@<TRIPOS>MOLECULE
mol_data/opt/m06hf/geoms/mol2/12ei12ei12ei.out
 38 40 0 0 0
SMALL
GASTEIGER

@<TRIPOS>ATOM
      1 C           0.5685    1.8890   -1.3213 C.ar    1  LIG1        0.1083
      2 C           1.7055    1.8056   -0.5792 C.ar    1  LIG1        0.0659
      3 C           1.8982    3.1081    0.0208 C.ar    1  LIG1        0.0138
      4 C           0.8570    3.8543   -0.4354 C.ar    1  LIG1        0.1750
      5 O           0.0494    3.1194   -1.2418 O.2     1  LIG1       -0.4583
      6 H           0.0432    1.1703   -1.9252 H       1  LIG1        0.1042
      7 C           2.5389    0.6542   -0.3984 C.1     1  LIG1       -0.0662
      8 C           3.2481   -0.3009   -0.2313 C.1     1  LIG1       -0.1138
      9 H           3.8726   -1.1514   -0.0846 H       1  LIG1        0.1232
     10 C           2.9956    3.4860    0.9761 C.3     1  LIG1       -0.0348
     11 H           2.7118    4.3702    1.5448 H       1  LIG1        0.0279
     12 H           3.9140    3.7053    0.4306 H       1  LIG1        0.0279
     13 H           3.1788    2.6534    1.6553 H       1  LIG1        0.0279
     14 C           0.4844    5.2425   -0.2079 C.ar    1  LIG1        0.1865
     15 C           1.2293    6.3854   -0.1023 C.ar    1  LIG1        0.0771
     16 C           0.2999    7.4571    0.1700 C.ar    1  LIG1        0.0145
     17 C          -0.9230    6.8629    0.1713 C.ar    1  LIG1        0.1760
     18 O          -0.8171    5.5288   -0.0464 O.2     1  LIG1       -0.4470
     19 C           2.6449    6.5228   -0.2636 C.1     1  LIG1       -0.0655
     20 C           3.8296    6.6757   -0.3996 C.1     1  LIG1       -0.1138
     21 H           4.8781    6.8124   -0.5310 H       1  LIG1        0.1232
     22 C           0.6611    8.8952    0.4177 C.3     1  LIG1       -0.0348
     23 H          -0.1595    9.4076    0.9174 H       1  LIG1        0.0279
     24 H           0.8626    9.4017   -0.5268 H       1  LIG1        0.0279
     25 H           1.5564    8.9367    1.0382 H       1  LIG1        0.0279
     26 C          -2.2633    7.3987    0.3605 C.ar    1  LIG1        0.1855
     27 C          -2.8538    8.5619   -0.0479 C.ar    1  LIG1        0.0763
     28 C          -4.2034    8.5365    0.4738 C.ar    1  LIG1        0.0034
     29 C          -4.3008    7.3578    1.1312 C.ar    1  LIG1        0.0968
     30 O          -3.1392    6.6680    1.0708 O.2     1  LIG1       -0.4583
     31 H          -5.1073    6.8894    1.6678 H       1  LIG1        0.1032
     32 C          -2.2902    9.5828   -0.8784 C.1     1  LIG1       -0.0655
     33 C          -1.8499   10.4536   -1.5809 C.1     1  LIG1       -0.1138
     34 H          -1.4596   11.2204   -2.2096 H       1  LIG1        0.1232
     35 C          -5.2443    9.6050    0.2792 C.3     1  LIG1       -0.0355
     36 H          -6.1691    9.3289    0.7837 H       1  LIG1        0.0279
     37 H          -5.4448    9.7407   -0.7841 H       1  LIG1        0.0279
     38 H          -4.8864   10.5524    0.6832 H       1  LIG1        0.0279
@<TRIPOS>BOND
     1    34    33    1
     2     6     1    1
     3    33    32    3
     4     1     5   ar
     5     1     2   ar
     6     5     4   ar
     7    32    27    1
     8    37    35    1
     9     2     7    1
    10     2     3   ar
    11    21    20    1
    12    24    22    1
    13     4    14    1
    14     4     3   ar
    15    20    19    3
    16     7     8    3
    17    19    15    1
    18     8     9    1
    19    14    15   ar
    20    14    18   ar
    21    15    16   ar
    22    27    26   ar
    23    27    28   ar
    24    18    17   ar
    25     3    10    1
    26    16    17   ar
    27    16    22    1
    28    17    26    1
    29    35    28    1
    30    35    38    1
    31    35    36    1
    32    26    30   ar
    33    22    23    1
    34    22    25    1
    35    12    10    1
    36    28    29   ar
    37    10    11    1
    38    10    13    1
    39    30    29   ar
    40    29    31    1
