@<TRIPOS>MOLECULE
mol_data/opt/m06hf/geoms/mol2/12ei12ei-12ei12ei.out
 50 53 0 0 0
SMALL
GASTEIGER

@<TRIPOS>ATOM
      1 C           0.1583    1.7252   -0.2118 C.ar    1  LIG1        0.1083
      2 C           1.5106    1.7084   -0.3573 C.ar    1  LIG1        0.0659
      3 C           1.9481    3.0856   -0.2993 C.ar    1  LIG1        0.0138
      4 C           0.8032    3.8009   -0.1193 C.ar    1  LIG1        0.1750
      5 O          -0.2762    2.9826   -0.0675 O.2     1  LIG1       -0.4583
      6 H          -0.5795    0.9428   -0.1934 H       1  LIG1        0.1042
      7 C           2.3514    0.5622   -0.5394 C.1     1  LIG1       -0.0662
      8 C           3.0767   -0.3832   -0.6935 C.1     1  LIG1       -0.1138
      9 H           3.7169   -1.2239   -0.8298 H       1  LIG1        0.1232
     10 C           3.3732    3.5483   -0.4320 C.3     1  LIG1       -0.0348
     11 H           3.4351    4.6325   -0.3844 H       1  LIG1        0.0279
     12 H           3.7791    3.1950   -1.3809 H       1  LIG1        0.0279
     13 H           3.9685    3.1153    0.3743 H       1  LIG1        0.0279
     14 C           0.5327    5.2206    0.0104 C.ar    1  LIG1        0.1865
     15 C          -0.6317    5.9395    0.0447 C.ar    1  LIG1        0.0771
     16 C          -0.2530    7.3268    0.1790 C.ar    1  LIG1        0.0145
     17 C           1.1080    7.3166    0.2107 C.ar    1  LIG1        0.1761
     18 O           1.5846    6.0501    0.1115 O.2     1  LIG1       -0.4470
     19 C          -1.9770    5.4605   -0.0382 C.1     1  LIG1       -0.0655
     20 C          -3.1227    5.1055   -0.1054 C.1     1  LIG1       -0.1138
     21 H          -4.1355    4.7811   -0.1660 H       1  LIG1        0.1232
     22 C          -1.2221    8.4756    0.2599 C.3     1  LIG1       -0.0348
     23 H          -1.9625    8.2628    1.0318 H       1  LIG1        0.0279
     24 H          -1.7439    8.5759   -0.6931 H       1  LIG1        0.0279
     25 H          -0.7058    9.4041    0.4877 H       1  LIG1        0.0279
     26 C           2.0910    8.3762    0.3262 C.ar    1  LIG1        0.1866
     27 C           3.4394    8.3832    0.5615 C.ar    1  LIG1        0.0771
     28 C           3.8422    9.7720    0.5819 C.ar    1  LIG1        0.0145
     29 C           2.7027   10.4730    0.3438 C.ar    1  LIG1        0.1760
     30 O           1.6450    9.6344    0.1894 O.2     1  LIG1       -0.4470
     31 C           4.3034    7.2701    0.8057 C.1     1  LIG1       -0.0655
     32 C           5.0697    6.3721    1.0328 C.1     1  LIG1       -0.1138
     33 H           5.7401    5.5699    1.2383 H       1  LIG1        0.1232
     34 C           5.2296   10.2757    0.8665 C.3     1  LIG1       -0.0348
     35 H           5.1931   11.3112    1.2010 H       1  LIG1        0.0279
     36 H           5.8424   10.2222   -0.0341 H       1  LIG1        0.0279
     37 H           5.6815    9.6539    1.6392 H       1  LIG1        0.0279
     38 C           2.4214   11.8958    0.2364 C.ar    1  LIG1        0.1855
     39 C           3.1254   12.9402   -0.2935 C.ar    1  LIG1        0.0763
     40 C           2.3176   14.1228   -0.0805 C.ar    1  LIG1        0.0034
     41 C           1.2019   13.6772    0.5397 C.ar    1  LIG1        0.0968
     42 O           1.2553   12.3395    0.7383 O.2     1  LIG1       -0.4583
     43 H           0.3150   14.1764    0.8885 H       1  LIG1        0.1032
     44 C           4.3771   12.8889   -0.9853 C.1     1  LIG1       -0.0655
     45 C           5.4216   12.8760   -1.5804 C.1     1  LIG1       -0.1138
     46 H           6.3441   12.8604   -2.1132 H       1  LIG1        0.1232
     47 C           2.6794   15.5222   -0.4970 C.3     1  LIG1       -0.0355
     48 H           1.8774   16.2125   -0.2399 H       1  LIG1        0.0279
     49 H           2.8499   15.5575   -1.5735 H       1  LIG1        0.0279
     50 H           3.5953   15.8357    0.0047 H       1  LIG1        0.0279
@<TRIPOS>BOND
     1    46    45    1
     2    45    44    3
     3    49    47    1
     4    12    10    1
     5    44    39    1
     6     9     8    1
     7     8     7    3
     8    24    22    1
     9     7     2    1
    10    47    48    1
    11    47    40    1
    12    47    50    1
    13    10    11    1
    14    10     3    1
    15    10    13    1
    16     2     3   ar
    17     2     1   ar
    18     3     4   ar
    19    39    40   ar
    20    39    38   ar
    21     1     6    1
    22     1     5   ar
    23    21    20    1
    24     4     5   ar
    25     4    14    1
    26    20    19    3
    27    40    41   ar
    28    19    15    1
    29    36    34    1
    30    14    15   ar
    31    14    18   ar
    32    15    16   ar
    33    18    17   ar
    34    16    17   ar
    35    16    22    1
    36    30    26   ar
    37    30    29   ar
    38    17    26    1
    39    38    29    1
    40    38    42   ar
    41    22    25    1
    42    22    23    1
    43    26    27   ar
    44    29    28   ar
    45    41    42   ar
    46    41    43    1
    47    27    28   ar
    48    27    31    1
    49    28    34    1
    50    31    32    3
    51    34    35    1
    52    34    37    1
    53    32    33    1
