@<TRIPOS>MOLECULE
mol_data/opt/m06hf/geoms/mol2/12ei12ei-12ei-12ei-.out
 50 53 0 0 0
SMALL
GASTEIGER

@<TRIPOS>ATOM
      1 C          -0.0930    1.7854   -0.6755 C.ar    1  LIG1        0.1083
      2 C           1.2603    1.7064   -0.7949 C.ar    1  LIG1        0.0659
      3 C           1.7718    3.0415   -0.5750 C.ar    1  LIG1        0.0138
      4 C           0.6625    3.7979   -0.3467 C.ar    1  LIG1        0.1750
      5 O          -0.4609    3.0437   -0.4066 O.2     1  LIG1       -0.4583
      6 H          -0.8748    1.0512   -0.7567 H       1  LIG1        0.1042
      7 C           2.0409    0.5373   -1.0725 C.1     1  LIG1       -0.0662
      8 C           2.7153   -0.4304   -1.3006 C.1     1  LIG1       -0.1138
      9 H           3.3087   -1.2913   -1.5044 H       1  LIG1        0.1232
     10 C           3.2256    3.4317   -0.6081 C.3     1  LIG1       -0.0348
     11 H           3.3724    4.4207   -0.1812 H       1  LIG1        0.0279
     12 H           3.5820    3.4305   -1.6395 H       1  LIG1        0.0279
     13 H           3.8038    2.6967   -0.0476 H       1  LIG1        0.0279
     14 C           0.4785    5.2067   -0.0522 C.ar    1  LIG1        0.1865
     15 C          -0.6113    5.9436    0.3262 C.ar    1  LIG1        0.0771
     16 C          -0.1454    7.3016    0.4938 C.ar    1  LIG1        0.0145
     17 C           1.1777    7.2608    0.1838 C.ar    1  LIG1        0.1761
     18 O           1.5576    5.9977   -0.1432 O.2     1  LIG1       -0.4470
     19 C          -1.9472    5.4896    0.5612 C.1     1  LIG1       -0.0655
     20 C          -3.0786    5.1458    0.7743 C.1     1  LIG1       -0.1138
     21 H          -4.0778    4.8268    0.9592 H       1  LIG1        0.1232
     22 C          -0.9794    8.4580    0.9701 C.3     1  LIG1       -0.0348
     23 H          -1.6765    8.1021    1.7286 H       1  LIG1        0.0279
     24 H          -1.5463    8.8819    0.1404 H       1  LIG1        0.0279
     25 H          -0.3428    9.2360    1.3883 H       1  LIG1        0.0279
     26 C           2.2149    8.2786    0.1504 C.ar    1  LIG1        0.1866
     27 C           2.2013    9.6005   -0.2016 C.ar    1  LIG1        0.0771
     28 C           3.5416   10.0953    0.0119 C.ar    1  LIG1        0.0145
     29 C           4.2465    9.0150    0.4421 C.ar    1  LIG1        0.1760
     30 O           3.4505    7.9199    0.5351 O.2     1  LIG1       -0.4470
     31 C           1.1041   10.3555   -0.7254 C.1     1  LIG1       -0.0655
     32 C           0.2053   11.0165   -1.1739 C.1     1  LIG1       -0.1138
     33 H          -0.5924   11.5954   -1.5796 H       1  LIG1        0.1232
     34 C           3.9963   11.5135   -0.1902 C.3     1  LIG1       -0.0348
     35 H           3.2289   12.1906    0.1852 H       1  LIG1        0.0279
     36 H           4.1540   11.7121   -1.2509 H       1  LIG1        0.0279
     37 H           4.9321   11.6876    0.3384 H       1  LIG1        0.0279
     38 C           5.6501    8.8462    0.7886 C.ar    1  LIG1        0.1855
     39 C           6.7964    9.3454    0.2354 C.ar    1  LIG1        0.0763
     40 C           7.8891    8.8301    1.0324 C.ar    1  LIG1        0.0034
     41 C           7.2993    8.0613    1.9767 C.ar    1  LIG1        0.0968
     42 O           5.9539    8.0679    1.8413 O.2     1  LIG1       -0.4583
     43 H           7.6943    7.4675    2.7826 H       1  LIG1        0.1032
     44 C           6.9172   10.1580   -0.9364 C.1     1  LIG1       -0.0655
     45 C           7.0529   10.8321   -1.9224 C.1     1  LIG1       -0.1138
     46 H           7.1697   11.4219   -2.8017 H       1  LIG1        0.1232
     47 C           9.3514    9.0996    0.8048 C.3     1  LIG1       -0.0355
     48 H           9.5566   10.1658    0.9040 H       1  LIG1        0.0279
     49 H           9.6342    8.7883   -0.2011 H       1  LIG1        0.0279
     50 H           9.9534    8.5524    1.5292 H       1  LIG1        0.0279
@<TRIPOS>BOND
     1    46    45    1
     2    45    44    3
     3    12    10    1
     4    33    32    1
     5     9     8    1
     6     8     7    3
     7    36    34    1
     8    32    31    3
     9     7     2    1
    10    44    39    1
    11     2     1   ar
    12     2     3   ar
    13     6     1    1
    14    31    27    1
    15     1     5   ar
    16    10     3    1
    17    10    11    1
    18    10    13    1
    19     3     4   ar
    20     5     4   ar
    21     4    14    1
    22    27    28   ar
    23    27    26   ar
    24    49    47    1
    25    34    28    1
    26    34    35    1
    27    34    37    1
    28    18    14   ar
    29    18    17   ar
    30    14    15   ar
    31    28    29   ar
    32    24    22    1
    33    26    17    1
    34    26    30   ar
    35    17    16   ar
    36    39    38   ar
    37    39    40   ar
    38    15    16   ar
    39    15    19    1
    40    29    30   ar
    41    29    38    1
    42    16    22    1
    43    19    20    3
    44    20    21    1
    45    38    42   ar
    46    47    48    1
    47    47    40    1
    48    47    50    1
    49    22    25    1
    50    22    23    1
    51    40    41   ar
    52    42    41   ar
    53    41    43    1
