@<TRIPOS>MOLECULE
mol_data/opt/m06hf/geoms/mol2/12ei12ei12ei12ei.out
 50 53 0 0 0
SMALL
GASTEIGER

@<TRIPOS>ATOM
      1 C           1.0376    2.1819   -2.1049 C.ar    1  LIG1        0.1083
      2 C           2.0164    1.9560   -1.1876 C.ar    1  LIG1        0.0659
      3 C           2.0382    3.1135   -0.3199 C.ar    1  LIG1        0.0138
      4 C           1.0722    3.9324   -0.8147 C.ar    1  LIG1        0.1750
      5 O           0.4629    3.3704   -1.8895 O.2     1  LIG1       -0.4583
      6 H           0.6657    1.5966   -2.9272 H       1  LIG1        0.1042
      7 C           2.8541    0.7989   -1.0786 C.1     1  LIG1       -0.0662
      8 C           3.5676   -0.1614   -0.9694 C.1     1  LIG1       -0.1138
      9 H           4.2012   -1.0127   -0.8774 H       1  LIG1        0.1232
     10 C           2.9225    3.2965    0.8819 C.3     1  LIG1       -0.0348
     11 H           2.5021    4.0475    1.5491 H       1  LIG1        0.0279
     12 H           3.9163    3.6228    0.5734 H       1  LIG1        0.0279
     13 H           3.0106    2.3448    1.4060 H       1  LIG1        0.0279
     14 C           0.6147    5.2518   -0.4029 C.ar    1  LIG1        0.1865
     15 C           1.2915    6.3514    0.0499 C.ar    1  LIG1        0.0771
     16 C           0.2952    7.3559    0.3398 C.ar    1  LIG1        0.0145
     17 C          -0.8880    6.7756    0.0035 C.ar    1  LIG1        0.1761
     18 O          -0.7020    5.5068   -0.4367 O.2     1  LIG1       -0.4470
     19 C           2.7080    6.5092    0.1790 C.1     1  LIG1       -0.0655
     20 C           3.8937    6.6727    0.2900 C.1     1  LIG1       -0.1138
     21 H           4.9457    6.8146    0.3790 H       1  LIG1        0.1232
     22 C           0.5607    8.7198    0.9131 C.3     1  LIG1       -0.0348
     23 H          -0.3483    9.1262    1.3539 H       1  LIG1        0.0279
     24 H           0.9005    9.3987    0.1301 H       1  LIG1        0.0279
     25 H           1.3371    8.6421    1.6741 H       1  LIG1        0.0279
     26 C          -2.2557    7.2727    0.0360 C.ar    1  LIG1        0.1866
     27 C          -2.7929    8.4960   -0.2585 C.ar    1  LIG1        0.0771
     28 C          -4.2096    8.3952    0.0038 C.ar    1  LIG1        0.0145
     29 C          -4.3974    7.1085    0.4027 C.ar    1  LIG1        0.1760
     30 O          -3.2230    6.4314    0.4321 O.2     1  LIG1       -0.4470
     31 C          -2.1129    9.6484   -0.7659 C.1     1  LIG1       -0.0655
     32 C          -1.5722   10.6313   -1.1978 C.1     1  LIG1       -0.1138
     33 H          -1.0901   11.4968   -1.5899 H       1  LIG1        0.1232
     34 C          -5.2092    9.5100   -0.1284 C.3     1  LIG1       -0.0348
     35 H          -6.1133    9.2728    0.4300 H       1  LIG1        0.0279
     36 H          -5.4761    9.6558   -1.1758 H       1  LIG1        0.0279
     37 H          -4.7695   10.4307    0.2550 H       1  LIG1        0.0279
     38 C          -5.5975    6.3743    0.7776 C.ar    1  LIG1        0.1855
     39 C          -6.8687    6.3803    0.2749 C.ar    1  LIG1        0.0763
     40 C          -7.6271    5.4472    1.0803 C.ar    1  LIG1        0.0034
     41 C          -6.7398    4.9602    1.9775 C.ar    1  LIG1        0.0968
     42 O          -5.5183    5.5142    1.8070 O.2     1  LIG1       -0.4583
     43 H          -6.8292    4.2370    2.7693 H       1  LIG1        0.1032
     44 C          -7.3538    7.1069   -0.8585 C.1     1  LIG1       -0.0655
     45 C          -7.7865    7.6995   -1.8106 C.1     1  LIG1       -0.1138
     46 H          -8.1635    8.2192   -2.6606 H       1  LIG1        0.1232
     47 C          -9.0822    5.1083    0.9053 C.3     1  LIG1       -0.0355
     48 H          -9.3828    4.3519    1.6291 H       1  LIG1        0.0279
     49 H          -9.2573    4.7280   -0.1014 H       1  LIG1        0.0279
     50 H          -9.6943    5.9997    1.0465 H       1  LIG1        0.0279
@<TRIPOS>BOND
     1     6     1    1
     2    46    45    1
     3     1     5   ar
     4     1     2   ar
     5     5     4   ar
     6    45    44    3
     7    33    32    1
     8    32    31    3
     9     2     7    1
    10     2     3   ar
    11    36    34    1
    12     7     8    3
    13     8     9    1
    14    44    39    1
    15     4    14    1
    16     4     3   ar
    17    31    27    1
    18    18    14   ar
    19    18    17   ar
    20    14    15   ar
    21     3    10    1
    22    27    28   ar
    23    27    26   ar
    24    34    28    1
    25    34    37    1
    26    34    35    1
    27    49    47    1
    28    17    26    1
    29    17    16   ar
    30    28    29   ar
    31    26    30   ar
    32    15    19    1
    33    15    16   ar
    34    24    22    1
    35    19    20    3
    36    39    38   ar
    37    39    40   ar
    38    20    21    1
    39    16    22    1
    40    29    30   ar
    41    29    38    1
    42    12    10    1
    43    38    42   ar
    44    10    13    1
    45    10    11    1
    46    47    50    1
    47    47    40    1
    48    47    48    1
    49    22    23    1
    50    22    25    1
    51    40    41   ar
    52    42    41   ar
    53    41    43    1
