@<TRIPOS>MOLECULE
mol_data/opt/m06hf/geoms/mol2/12ei12ei12ei12ei-.out
 50 53 0 0 0
SMALL
GASTEIGER

@<TRIPOS>ATOM
      1 C           1.3179    2.2536   -2.1402 C.ar    1  LIG1        0.1083
      2 C           2.1920    2.0089   -1.1266 C.ar    1  LIG1        0.0659
      3 C           2.0967    3.1360   -0.2242 C.ar    1  LIG1        0.0138
      4 C           1.1787    3.9590   -0.7978 C.ar    1  LIG1        0.1750
      5 O           0.7021    3.4259   -1.9512 O.2     1  LIG1       -0.4583
      6 H           1.0522    1.6939   -3.0196 H       1  LIG1        0.1042
      7 C           3.0322    0.8600   -0.9627 C.1     1  LIG1       -0.0662
      8 C           3.7453   -0.0941   -0.8065 C.1     1  LIG1       -0.1138
      9 H           4.3799   -0.9392   -0.6736 H       1  LIG1        0.1232
     10 C           2.8378    3.2914    1.0744 C.3     1  LIG1       -0.0348
     11 H           2.3419    4.0272    1.7057 H       1  LIG1        0.0279
     12 H           3.8592    3.6258    0.8885 H       1  LIG1        0.0279
     13 H           2.8697    2.3282    1.5838 H       1  LIG1        0.0279
     14 C           0.6629    5.2614   -0.4006 C.ar    1  LIG1        0.1865
     15 C           1.2758    6.3528    0.1507 C.ar    1  LIG1        0.0771
     16 C           0.2444    7.3420    0.3572 C.ar    1  LIG1        0.0145
     17 C          -0.8902    6.7621   -0.1186 C.ar    1  LIG1        0.1761
     18 O          -0.6454    5.5067   -0.5688 O.2     1  LIG1       -0.4470
     19 C           2.6692    6.5156    0.4329 C.1     1  LIG1       -0.0655
     20 C           3.8357    6.6795    0.6721 C.1     1  LIG1       -0.1138
     21 H           4.8718    6.8218    0.8747 H       1  LIG1        0.1232
     22 C           0.4338    8.6926    0.9889 C.3     1  LIG1       -0.0348
     23 H          -0.5241    9.0923    1.3184 H       1  LIG1        0.0279
     24 H           0.8721    9.3867    0.2708 H       1  LIG1        0.0279
     25 H           1.1059    8.5973    1.8419 H       1  LIG1        0.0279
     26 C          -2.2562    7.2526   -0.2176 C.ar    1  LIG1        0.1866
     27 C          -2.7684    8.4777   -0.5515 C.ar    1  LIG1        0.0771
     28 C          -4.2033    8.3677   -0.4479 C.ar    1  LIG1        0.0145
     29 C          -4.4204    7.0761   -0.0713 C.ar    1  LIG1        0.1760
     30 O          -3.2570    6.4051    0.0696 O.2     1  LIG1       -0.4470
     31 C          -2.0368    9.6278   -0.9897 C.1     1  LIG1       -0.0655
     32 C          -1.4478   10.6033   -1.3724 C.1     1  LIG1       -0.1138
     33 H          -0.9214   11.4614   -1.7214 H       1  LIG1        0.1232
     34 C          -5.2052    9.4593   -0.7199 C.3     1  LIG1       -0.0348
     35 H          -5.6699    9.7873    0.2106 H       1  LIG1        0.0279
     36 H          -5.9867    9.0989   -1.3870 H       1  LIG1        0.0279
     37 H          -4.6927   10.3028   -1.1800 H       1  LIG1        0.0279
     38 C          -5.6429    6.3429    0.1930 C.ar    1  LIG1        0.1855
     39 C          -5.8967    5.0398    0.5155 C.ar    1  LIG1        0.0763
     40 C          -7.3349    4.9351    0.6542 C.ar    1  LIG1        0.0034
     41 C          -7.8077    6.1764    0.4041 C.ar    1  LIG1        0.0968
     42 O          -6.7951    7.0348    0.1258 O.2     1  LIG1       -0.4583
     43 H          -8.8011    6.5897    0.3856 H       1  LIG1        0.1032
     44 C          -4.9579    3.9738    0.6813 C.1     1  LIG1       -0.0655
     45 C          -4.1929    3.0586    0.8235 C.1     1  LIG1       -0.1138
     46 H          -3.4986    2.2597    0.9440 H       1  LIG1        0.1232
     47 C          -8.0906    3.6825    1.0035 C.3     1  LIG1       -0.0355
     48 H          -7.7669    3.3126    1.9767 H       1  LIG1        0.0279
     49 H          -7.8908    2.9096    0.2608 H       1  LIG1        0.0279
     50 H          -9.1611    3.8804    1.0342 H       1  LIG1        0.0279
@<TRIPOS>BOND
     1     6     1    1
     2     1     5   ar
     3     1     2   ar
     4     5     4   ar
     5    33    32    1
     6    36    34    1
     7    32    31    3
     8    37    34    1
     9     2     7    1
    10     2     3   ar
    11    31    27    1
    12     7     8    3
    13     8     9    1
    14     4    14    1
    15     4     3   ar
    16    34    28    1
    17    34    35    1
    18    18    14   ar
    19    18    17   ar
    20    27    28   ar
    21    27    26   ar
    22    28    29   ar
    23    14    15   ar
    24     3    10    1
    25    26    17    1
    26    26    30   ar
    27    17    16   ar
    28    29    30   ar
    29    29    38    1
    30    42    38   ar
    31    42    41   ar
    32    15    16   ar
    33    15    19    1
    34    38    39   ar
    35    49    47    1
    36    24    22    1
    37    16    22    1
    38    43    41    1
    39    41    40   ar
    40    19    20    3
    41    39    40   ar
    42    39    44    1
    43    40    47    1
    44    20    21    1
    45    44    45    3
    46    45    46    1
    47    12    10    1
    48    22    23    1
    49    22    25    1
    50    47    50    1
    51    47    48    1
    52    10    13    1
    53    10    11    1
