@<TRIPOS>MOLECULE
mol_data/opt/m06hf/geoms/mol2/12el12el-12el.out
 41 43 0 0 0
SMALL
GASTEIGER

@<TRIPOS>ATOM
      1 C           0.0896    1.7763    0.5098 C.ar    1  LIG1        0.1118
      2 C           1.4482    1.6989    0.5411 C.ar    1  LIG1        0.1047
      3 C           1.9130    3.0537    0.3594 C.ar    1  LIG1        0.1842
      4 C           0.7928    3.8202    0.2218 C.ar    1  LIG1        0.2136
      5 O          -0.3084    3.0420    0.3160 O.2     1  LIG1       -0.4547
      6 H          -0.6799    1.0315    0.6078 H       1  LIG1        0.1043
      7 C           2.2676    0.5374    0.7098 C.1     1  LIG1       -0.0628
      8 C           2.9691   -0.4285    0.8419 C.1     1  LIG1       -0.1137
      9 H           3.5954   -1.2821    0.9646 H       1  LIG1        0.1232
     10 O           3.2066    3.4428    0.3254 O.3     1  LIG1       -0.4901
     11 C           3.7117    3.6300   -1.0018 C.3     1  LIG1        0.0790
     12 H           4.7580    3.9008   -0.8905 H       1  LIG1        0.0660
     13 H           3.6132    2.7003   -1.5656 H       1  LIG1        0.0660
     14 H           3.1708    4.4391   -1.4935 H       1  LIG1        0.0660
     15 C           0.6277    5.2386   -0.0053 C.ar    1  LIG1        0.1934
     16 C          -0.4483    6.0304   -0.3056 C.ar    1  LIG1        0.1159
     17 C           0.0918    7.3622   -0.4447 C.ar    1  LIG1        0.1849
     18 C           1.4293    7.2648   -0.2001 C.ar    1  LIG1        0.2146
     19 O           1.7489    5.9755    0.0578 O.2     1  LIG1       -0.4434
     20 C          -1.8187    5.6644   -0.4751 C.1     1  LIG1       -0.0620
     21 C          -2.9799    5.3938   -0.6191 C.1     1  LIG1       -0.1137
     22 H          -4.0082    5.1511   -0.7555 H       1  LIG1        0.1232
     23 O          -0.6104    8.4712   -0.7599 O.3     1  LIG1       -0.4901
     24 C          -1.1753    9.1272    0.3795 C.3     1  LIG1        0.0790
     25 H          -1.7282    9.9785   -0.0075 H       1  LIG1        0.0660
     26 H          -1.8477    8.4467    0.9044 H       1  LIG1        0.0660
     27 H          -0.3772    9.4624    1.0435 H       1  LIG1        0.0660
     28 C           2.4976    8.2385   -0.1399 C.ar    1  LIG1        0.1924
     29 C           3.8053    8.1218    0.2441 C.ar    1  LIG1        0.1152
     30 C           4.3505    9.4578    0.1070 C.ar    1  LIG1        0.1737
     31 C           3.3416   10.2417   -0.3404 C.ar    1  LIG1        0.1355
     32 O           2.2124    9.5038   -0.4826 O.2     1  LIG1       -0.4547
     33 H           3.2832   11.2888   -0.5730 H       1  LIG1        0.1068
     34 C           4.4463    6.9486    0.7487 C.1     1  LIG1       -0.0621
     35 C           4.9508    5.9489    1.1856 C.1     1  LIG1       -0.1137
     36 H           5.3487    5.0466    1.5905 H       1  LIG1        0.1232
     37 O           5.6091    9.8611    0.4002 O.3     1  LIG1       -0.4907
     38 C           6.6221    9.2064   -0.3645 C.3     1  LIG1        0.0790
     39 H           7.5658    9.6422   -0.0466 H       1  LIG1        0.0660
     40 H           6.6170    8.1350   -0.1632 H       1  LIG1        0.0660
     41 H           6.4597    9.3906   -1.4283 H       1  LIG1        0.0660
@<TRIPOS>BOND
     1    13    11    1
     2    14    11    1
     3    41    38    1
     4    11    12    1
     5    11    10    1
     6    23    17    1
     7    23    24    1
     8    22    21    1
     9    21    20    3
    10    33    31    1
    11    32    31   ar
    12    32    28   ar
    13    20    16    1
    14    17    16   ar
    15    17    18   ar
    16    38    40    1
    17    38    39    1
    18    38    37    1
    19    31    30   ar
    20    16    15   ar
    21    18    28    1
    22    18    19   ar
    23    28    29   ar
    24    25    24    1
    25    15    19   ar
    26    15     4    1
    27    30    29   ar
    28    30    37    1
    29     4     5   ar
    30     4     3   ar
    31    29    34    1
    32     5     1   ar
    33    10     3    1
    34     3     2   ar
    35    24    26    1
    36    24    27    1
    37     1     2   ar
    38     1     6    1
    39     2     7    1
    40     7     8    3
    41    34    35    3
    42     8     9    1
    43    35    36    1
