@<TRIPOS>MOLECULE
mol_data/opt/m06hf/geoms/mol2/12el12el.out
 28 29 0 0 0
SMALL
GASTEIGER

@<TRIPOS>ATOM
      1 C           0.1070    1.6895    0.3209 C.ar    1  LIG1        0.1118
      2 C           1.4071    1.6168   -0.0762 C.ar    1  LIG1        0.1047
      3 C           1.8322    2.9919   -0.2348 C.ar    1  LIG1        0.1842
      4 C           0.7579    3.7595    0.0957 C.ar    1  LIG1        0.2136
      5 O          -0.2899    2.9624    0.4236 O.2     1  LIG1       -0.4547
      6 H          -0.6176    0.9280    0.5489 H       1  LIG1        0.1043
      7 C           2.1634    0.4289   -0.3372 C.1     1  LIG1       -0.0628
      8 C           2.8019   -0.5644   -0.5601 C.1     1  LIG1       -0.1137
      9 H           3.3626   -1.4462   -0.7680 H       1  LIG1        0.1232
     10 O           3.0223    3.4408   -0.6796 O.3     1  LIG1       -0.4901
     11 C           4.1370    3.0636    0.1328 C.3     1  LIG1        0.0790
     12 H           5.0086    3.5166   -0.3323 H       1  LIG1        0.0660
     13 H           4.0026    3.4558    1.1416 H       1  LIG1        0.0660
     14 H           4.2383    1.9782    0.1524 H       1  LIG1        0.0660
     15 C           0.5511    5.1970    0.1128 C.ar    1  LIG1        0.1924
     16 C           1.3961    6.2492    0.3281 C.ar    1  LIG1        0.1152
     17 C           0.5674    7.4300    0.1888 C.ar    1  LIG1        0.1737
     18 C          -0.6818    6.9926   -0.0907 C.ar    1  LIG1        0.1355
     19 O          -0.6933    5.6397   -0.1336 O.2     1  LIG1       -0.4547
     20 H          -1.6128    7.5035   -0.2536 H       1  LIG1        0.1068
     21 C           2.7747    6.2312    0.7036 C.1     1  LIG1       -0.0621
     22 C           3.9296    6.2769    1.0349 C.1     1  LIG1       -0.1137
     23 H           4.9505    6.3147    1.3369 H       1  LIG1        0.1232
     24 O           0.9624    8.7159    0.3451 O.3     1  LIG1       -0.4907
     25 C           1.8633    9.1657   -0.6683 C.3     1  LIG1        0.0790
     26 H           2.1068   10.1951   -0.4193 H       1  LIG1        0.0660
     27 H           2.7674    8.5554   -0.6695 H       1  LIG1        0.0660
     28 H           1.3772    9.1162   -1.6445 H       1  LIG1        0.0660
@<TRIPOS>BOND
     1    28    25    1
     2     9     8    1
     3    10     3    1
     4    10    11    1
     5    27    25    1
     6    25    26    1
     7    25    24    1
     8     8     7    3
     9     7     2    1
    10    12    11    1
    11    20    18    1
    12     3     2   ar
    13     3     4   ar
    14    19    18   ar
    15    19    15   ar
    16    18    17   ar
    17     2     1   ar
    18     4    15    1
    19     4     5   ar
    20    15    16   ar
    21    11    14    1
    22    11    13    1
    23    17    16   ar
    24    17    24    1
    25     1     5   ar
    26     1     6    1
    27    16    21    1
    28    21    22    3
    29    22    23    1
