@<TRIPOS>MOLECULE
mol_data/opt/m06hf/geoms/mol2/12el12el-12el12el-.out
 54 57 0 0 0
SMALL
GASTEIGER

@<TRIPOS>ATOM
      1 C           0.1713    1.6115   -0.0233 C.ar    1  LIG1        0.1118
      2 C           1.5308    1.6050    0.0421 C.ar    1  LIG1        0.1047
      3 C           1.9175    2.9941    0.1086 C.ar    1  LIG1        0.1842
      4 C           0.7564    3.7100    0.0625 C.ar    1  LIG1        0.2136
      5 O          -0.2978    2.8674   -0.0151 O.2     1  LIG1       -0.4547
      6 H          -0.5530    0.8186   -0.0796 H       1  LIG1        0.1043
      7 C           2.4115    0.4768    0.0410 C.1     1  LIG1       -0.0628
      8 C           3.1579   -0.4641    0.0324 C.1     1  LIG1       -0.1137
      9 H           3.8209   -1.2986    0.0310 H       1  LIG1        0.1232
     10 O           3.1844    3.4558    0.1911 O.3     1  LIG1       -0.4901
     11 C           3.7233    3.8728   -1.0685 C.3     1  LIG1        0.0790
     12 H           4.7432    4.1891   -0.8697 H       1  LIG1        0.0660
     13 H           3.7100    3.0365   -1.7698 H       1  LIG1        0.0660
     14 H           3.1464    4.7124   -1.4576 H       1  LIG1        0.0660
     15 C           0.5119    5.1351    0.0666 C.ar    1  LIG1        0.1934
     16 C          -0.6144    5.9033   -0.0694 C.ar    1  LIG1        0.1159
     17 C          -0.1513    7.2691   -0.0114 C.ar    1  LIG1        0.1849
     18 C           1.2015    7.2073    0.1658 C.ar    1  LIG1        0.2146
     19 O           1.5959    5.9136    0.2094 O.2     1  LIG1       -0.4434
     20 C          -1.9694    5.4834   -0.2338 C.1     1  LIG1       -0.0620
     21 C          -3.1157    5.1518   -0.3652 C.1     1  LIG1       -0.1137
     22 H          -4.1312    4.8540   -0.4850 H       1  LIG1        0.1232
     23 O          -0.9407    8.3591   -0.1090 O.3     1  LIG1       -0.4901
     24 C          -1.1506    9.0383    1.1362 C.3     1  LIG1        0.0790
     25 H          -1.8656    9.8295    0.9301 H       1  LIG1        0.0660
     26 H          -1.5554    8.3386    1.8695 H       1  LIG1        0.0660
     27 H          -0.2136    9.4709    1.4857 H       1  LIG1        0.0660
     28 C           2.2227    8.2121    0.3367 C.ar    1  LIG1        0.1934
     29 C           3.5285    8.1329    0.7426 C.ar    1  LIG1        0.1159
     30 C           4.0009    9.4971    0.7494 C.ar    1  LIG1        0.1849
     31 C           2.9570   10.2694    0.3336 C.ar    1  LIG1        0.2146
     32 O           1.8792    9.4855    0.0925 O.2     1  LIG1       -0.4434
     33 C           4.2415    6.9594    1.1359 C.1     1  LIG1       -0.0620
     34 C           4.8112    5.9551    1.4689 C.1     1  LIG1       -0.1137
     35 H           5.2767    5.0475    1.7798 H       1  LIG1        0.1232
     36 O           5.2279    9.9186    1.1205 O.3     1  LIG1       -0.4901
     37 C           6.2299    9.7100    0.1218 C.3     1  LIG1        0.0790
     38 H           7.1592   10.0787    0.5470 H       1  LIG1        0.0660
     39 H           6.3153    8.6466   -0.1069 H       1  LIG1        0.0660
     40 H           5.9735   10.2727   -0.7776 H       1  LIG1        0.0660
     41 C           2.8018   11.6896    0.1066 C.ar    1  LIG1        0.1924
     42 C           1.7471   12.4084   -0.3853 C.ar    1  LIG1        0.1152
     43 C           2.2045   13.7785   -0.3868 C.ar    1  LIG1        0.1737
     44 C           3.4754   13.7682    0.0930 C.ar    1  LIG1        0.1355
     45 O           3.8360   12.4904    0.3933 O.2     1  LIG1       -0.4547
     46 H           4.2095   14.5303    0.2746 H       1  LIG1        0.1068
     47 C           0.4887   11.9078   -0.8378 C.1     1  LIG1       -0.0621
     48 C          -0.5513   11.4523   -1.2301 C.1     1  LIG1       -0.1137
     49 H          -1.4573   11.0215   -1.5898 H       1  LIG1        0.1232
     50 O           1.4378   14.7986   -0.8094 O.3     1  LIG1       -0.4907
     51 C           2.0613   16.0694   -0.7551 C.3     1  LIG1        0.0790
     52 H           1.3329   16.7853   -1.1241 H       1  LIG1        0.0660
     53 H           2.3361   16.3103    0.2755 H       1  LIG1        0.0660
     54 H           2.9518   16.0782   -1.3893 H       1  LIG1        0.0660
@<TRIPOS>BOND
     1    13    11    1
     2    49    48    1
     3    14    11    1
     4    54    51    1
     5    48    47    3
     6    52    51    1
     7    11    12    1
     8    11    10    1
     9    47    42    1
    10    50    51    1
    11    50    43    1
    12    40    37    1
    13    51    53    1
    14    22    21    1
    15    43    42   ar
    16    43    44   ar
    17    42    41   ar
    18    21    20    3
    19    20    16    1
    20    23    17    1
    21    23    24    1
    22    39    37    1
    23     6     1    1
    24    16    17   ar
    25    16    15   ar
    26     1     5   ar
    27     1     2   ar
    28     5     4   ar
    29    17    18   ar
    30     9     8    1
    31     8     7    3
    32     7     2    1
    33     2     3   ar
    34     4    15    1
    35     4     3   ar
    36    15    19   ar
    37    32    31   ar
    38    32    28   ar
    39    44    46    1
    40    44    45   ar
    41    41    31    1
    42    41    45   ar
    43     3    10    1
    44    37    38    1
    45    37    36    1
    46    18    19   ar
    47    18    28    1
    48    31    30   ar
    49    28    29   ar
    50    29    30   ar
    51    29    33    1
    52    30    36    1
    53    25    24    1
    54    33    34    3
    55    24    27    1
    56    24    26    1
    57    34    35    1
