@<TRIPOS>MOLECULE
mol_data/opt/m06hf/geoms/mol2/12el12el12el.out
 41 43 0 0 0
SMALL
GASTEIGER

@<TRIPOS>ATOM
      1 C           0.4395    1.6818    1.1153 C.ar    1  LIG1        0.1118
      2 C           1.5436    1.5404    0.3318 C.ar    1  LIG1        0.1047
      3 C           1.7987    2.8614   -0.2040 C.ar    1  LIG1        0.1842
      4 C           0.8387    3.6720    0.3200 C.ar    1  LIG1        0.2136
      5 O           0.0094    2.9468    1.1122 O.2     1  LIG1       -0.4547
      6 H          -0.1196    0.9729    1.7003 H       1  LIG1        0.1043
      7 C           2.2465    0.3237    0.0558 C.1     1  LIG1       -0.0628
      8 C           2.8329   -0.6986   -0.1774 C.1     1  LIG1       -0.1137
      9 H           3.3429   -1.6092   -0.3918 H       1  LIG1        0.1232
     10 O           2.7383    3.2272   -1.0956 O.3     1  LIG1       -0.4901
     11 C           4.0838    2.9710   -0.6867 C.3     1  LIG1        0.0790
     12 H           4.7124    3.3807   -1.4732 H       1  LIG1        0.0660
     13 H           4.2826    3.4801    0.2574 H       1  LIG1        0.0660
     14 H           4.2503    1.8988   -0.5877 H       1  LIG1        0.0660
     15 C           0.5576    5.0850    0.1468 C.ar    1  LIG1        0.1934
     16 C           1.3703    6.1658   -0.0651 C.ar    1  LIG1        0.1159
     17 C           0.4748    7.2947   -0.1823 C.ar    1  LIG1        0.1849
     18 C          -0.7836    6.8050   -0.0055 C.ar    1  LIG1        0.2146
     19 O          -0.7288    5.4638    0.1820 O.2     1  LIG1       -0.4434
     20 C           2.7967    6.1983   -0.1591 C.1     1  LIG1       -0.0620
     21 C           3.9943    6.2827   -0.2293 C.1     1  LIG1       -0.1137
     22 H           5.0543    6.3601   -0.3076 H       1  LIG1        0.1232
     23 O           0.8022    8.5729   -0.4554 O.3     1  LIG1       -0.4901
     24 C           1.5981    9.2060    0.5508 C.3     1  LIG1        0.0790
     25 H           1.7479   10.2271    0.2095 H       1  LIG1        0.0660
     26 H           1.0592    9.2014    1.4990 H       1  LIG1        0.0660
     27 H           2.5555    8.6950    0.6489 H       1  LIG1        0.0660
     28 C          -2.0956    7.4251   -0.0431 C.ar    1  LIG1        0.1924
     29 C          -2.5353    8.6958    0.2071 C.ar    1  LIG1        0.1152
     30 C          -3.9621    8.6533   -0.0420 C.ar    1  LIG1        0.1737
     31 C          -4.2516    7.3838   -0.4104 C.ar    1  LIG1        0.1355
     32 O          -3.1224    6.6392   -0.4077 O.2     1  LIG1       -0.4547
     33 H          -5.1717    6.8933   -0.6688 H       1  LIG1        0.1068
     34 C          -1.8099    9.8261    0.6964 C.1     1  LIG1       -0.0621
     35 C          -1.2644   10.8102    1.1214 C.1     1  LIG1       -0.1137
     36 H          -0.7825   11.6798    1.5048 H       1  LIG1        0.1232
     37 O          -4.8372    9.6776    0.0974 O.3     1  LIG1       -0.4907
     38 C          -4.6590   10.7157   -0.8686 C.3     1  LIG1        0.0790
     39 H          -5.4233   11.4585   -0.6562 H       1  LIG1        0.0660
     40 H          -3.6668   11.1574   -0.7701 H       1  LIG1        0.0660
     41 H          -4.7918   10.3114   -1.8737 H       1  LIG1        0.0660
@<TRIPOS>BOND
     1    41    38    1
     2    12    11    1
     3    10    11    1
     4    10     3    1
     5    38    40    1
     6    38    39    1
     7    38    37    1
     8    11    14    1
     9    11    13    1
    10    33    31    1
    11    23    17    1
    12    23    24    1
    13    31    32   ar
    14    31    30   ar
    15    32    28   ar
    16     9     8    1
    17    22    21    1
    18    21    20    3
    19     3     4   ar
    20     3     2   ar
    21    17    16   ar
    22    17    18   ar
    23     8     7    3
    24    20    16    1
    25    16    15   ar
    26    28    18    1
    27    28    29   ar
    28    30    37    1
    29    30    29   ar
    30    18    19   ar
    31     7     2    1
    32    15    19   ar
    33    15     4    1
    34    29    34    1
    35    25    24    1
    36     4     5   ar
    37     2     1   ar
    38    24    27    1
    39    24    26    1
    40    34    35    3
    41     5     1   ar
    42     1     6    1
    43    35    36    1
