@<TRIPOS>MOLECULE
mol_data/opt/m06hf/geoms/mol2/12el12el12el-12el.out
 54 57 0 0 0
SMALL
GASTEIGER

@<TRIPOS>ATOM
      1 C           0.1937    1.5783    0.5186 C.ar    1  LIG1        0.1118
      2 C           1.4879    1.5483    0.0962 C.ar    1  LIG1        0.1047
      3 C           1.8491    2.9340   -0.1162 C.ar    1  LIG1        0.1842
      4 C           0.7485    3.6655    0.2136 C.ar    1  LIG1        0.2136
      5 O          -0.2564    2.8352    0.5877 O.2     1  LIG1       -0.4547
      6 H          -0.4917    0.7948    0.7886 H       1  LIG1        0.1043
      7 C           2.2922    0.3874   -0.1381 C.1     1  LIG1       -0.0628
      8 C           2.9714   -0.5836   -0.3355 C.1     1  LIG1       -0.1137
      9 H           3.5698   -1.4458   -0.5198 H       1  LIG1        0.1232
     10 O           3.0083    3.4163   -0.6028 O.3     1  LIG1       -0.4901
     11 C           4.1543    3.1346    0.2056 C.3     1  LIG1        0.0790
     12 H           4.9966    3.5935   -0.3053 H       1  LIG1        0.0660
     13 H           4.0241    3.5813    1.1919 H       1  LIG1        0.0660
     14 H           4.3014    2.0578    0.2862 H       1  LIG1        0.0660
     15 C           0.4817    5.0908    0.1996 C.ar    1  LIG1        0.1934
     16 C           1.2904    6.1909    0.3098 C.ar    1  LIG1        0.1159
     17 C           0.4056    7.3245    0.2142 C.ar    1  LIG1        0.1849
     18 C          -0.8515    6.8174    0.0540 C.ar    1  LIG1        0.2146
     19 O          -0.8001    5.4671    0.0450 O.2     1  LIG1       -0.4434
     20 C           2.6994    6.2761    0.5299 C.1     1  LIG1       -0.0620
     21 C           3.8768    6.4182    0.7246 C.1     1  LIG1       -0.1137
     22 H           4.9204    6.5477    0.8971 H       1  LIG1        0.1232
     23 O           0.7879    8.6176    0.2781 O.3     1  LIG1       -0.4901
     24 C           0.9062    9.2405   -1.0068 C.3     1  LIG1        0.0790
     25 H           1.2929   10.2391   -0.8230 H       1  LIG1        0.0660
     26 H           1.5978    8.6696   -1.6286 H       1  LIG1        0.0660
     27 H          -0.0756    9.3054   -1.4763 H       1  LIG1        0.0660
     28 C          -2.1311    7.4682   -0.1095 C.ar    1  LIG1        0.1934
     29 C          -3.3942    7.0141   -0.3814 C.ar    1  LIG1        0.1159
     30 C          -4.2117    8.2021   -0.4623 C.ar    1  LIG1        0.1849
     31 C          -3.3856    9.2579   -0.2171 C.ar    1  LIG1        0.2146
     32 O          -2.1255    8.8079   -0.0128 O.2     1  LIG1       -0.4434
     33 C          -3.8410    5.6715   -0.5751 C.1     1  LIG1       -0.0620
     34 C          -4.2420    4.5510   -0.7356 C.1     1  LIG1       -0.1137
     35 H          -4.5878    3.5548   -0.8862 H       1  LIG1        0.1232
     36 O          -5.5328    8.2428   -0.7352 O.3     1  LIG1       -0.4901
     37 C          -6.3550    7.9546    0.3994 C.3     1  LIG1        0.0790
     38 H          -7.3795    7.9644    0.0383 H       1  LIG1        0.0660
     39 H          -6.1060    6.9716    0.8024 H       1  LIG1        0.0660
     40 H          -6.2125    8.7244    1.1598 H       1  LIG1        0.0660
     41 C          -3.5991   10.6862   -0.1240 C.ar    1  LIG1        0.1924
     42 C          -2.7708   11.6946    0.2879 C.ar    1  LIG1        0.1152
     43 C          -3.5658   12.8994    0.1613 C.ar    1  LIG1        0.1737
     44 C          -4.7760   12.5151   -0.3071 C.ar    1  LIG1        0.1355
     45 O          -4.8007   11.1696   -0.4729 O.2     1  LIG1       -0.4547
     46 H          -5.6707   13.0612   -0.5411 H       1  LIG1        0.1068
     47 C          -1.4479   11.5585    0.8113 C.1     1  LIG1       -0.0621
     48 C          -0.3450   11.4144    1.2673 C.1     1  LIG1       -0.1137
     49 H           0.6195   11.2387    1.6862 H       1  LIG1        0.1232
     50 O          -3.1882   14.1610    0.4765 O.3     1  LIG1       -0.4907
     51 C          -2.0858   14.6409   -0.2944 C.3     1  LIG1        0.0790
     52 H          -1.8978   15.6549    0.0492 H       1  LIG1        0.0660
     53 H          -1.2061   14.0192   -0.1269 H       1  LIG1        0.0660
     54 H          -2.3491   14.6433   -1.3540 H       1  LIG1        0.0660
@<TRIPOS>BOND
     1    26    24    1
     2    27    24    1
     3    54    51    1
     4    24    25    1
     5    24    23    1
     6    35    34    1
     7    34    33    3
     8    36    30    1
     9    36    37    1
    10    10     3    1
    11    10    11    1
    12    33    29    1
    13    46    44    1
    14     9     8    1
    15    45    44   ar
    16    45    41   ar
    17    30    29   ar
    18    30    31   ar
    19    29    28   ar
    20     8     7    3
    21    44    43   ar
    22    12    11    1
    23    51    53    1
    24    51    52    1
    25    51    50    1
    26    31    41    1
    27    31    32   ar
    28     7     2    1
    29    41    42   ar
    30     3     2   ar
    31     3     4   ar
    32    28    32   ar
    33    28    18    1
    34    38    37    1
    35    19    18   ar
    36    19    15   ar
    37    18    17   ar
    38     2     1   ar
    39    43    42   ar
    40    43    50    1
    41    15     4    1
    42    15    16   ar
    43    11    14    1
    44    11    13    1
    45     4     5   ar
    46    17    23    1
    47    17    16   ar
    48    42    47    1
    49    16    20    1
    50    37    39    1
    51    37    40    1
    52     1     5   ar
    53     1     6    1
    54    20    21    3
    55    21    22    1
    56    47    48    3
    57    48    49    1
