@<TRIPOS>MOLECULE
mol_data/opt/m06hf/geoms/mol2/12el12el12el12el-.out
 54 57 0 0 0
SMALL
GASTEIGER

@<TRIPOS>ATOM
      1 C           0.7223    1.6905   -1.3726 C.ar    1  LIG1        0.1118
      2 C           1.7801    1.5358   -0.5294 C.ar    1  LIG1        0.1047
      3 C           1.9703    2.8348    0.0815 C.ar    1  LIG1        0.1842
      4 C           1.0237    3.6489   -0.4614 C.ar    1  LIG1        0.2136
      5 O           0.2617    2.9447   -1.3358 O.2     1  LIG1       -0.4547
      6 H           0.2191    1.0004   -2.0269 H       1  LIG1        0.1043
      7 C           2.5000    0.3265   -0.2660 C.1     1  LIG1       -0.0628
      8 C           3.1034   -0.6883   -0.0437 C.1     1  LIG1       -0.1137
      9 H           3.6305   -1.5919    0.1594 H       1  LIG1        0.1232
     10 O           2.8492    3.1723    1.0434 O.3     1  LIG1       -0.4901
     11 C           4.2230    3.0041    0.6834 C.3     1  LIG1        0.0790
     12 H           4.7956    3.3580    1.5366 H       1  LIG1        0.0660
     13 H           4.4360    1.9519    0.4946 H       1  LIG1        0.0660
     14 H           4.4468    3.6064   -0.1979 H       1  LIG1        0.0660
     15 C           0.6900    5.0445   -0.2418 C.ar    1  LIG1        0.1934
     16 C           1.4405    6.1308    0.1207 C.ar    1  LIG1        0.1159
     17 C           0.5034    7.2282    0.1980 C.ar    1  LIG1        0.1849
     18 C          -0.7119    6.7191   -0.1473 C.ar    1  LIG1        0.2146
     19 O          -0.5954    5.3930   -0.4012 O.2     1  LIG1       -0.4434
     20 C           2.8442    6.2009    0.3812 C.1     1  LIG1       -0.0620
     21 C           4.0210    6.3207    0.5968 C.1     1  LIG1       -0.1137
     22 H           5.0610    6.4232    0.8043 H       1  LIG1        0.1232
     23 O           0.7573    8.4933    0.5837 O.3     1  LIG1       -0.4901
     24 C           1.6242    9.2192   -0.2940 C.3     1  LIG1        0.0790
     25 H           1.7445   10.2009    0.1564 H       1  LIG1        0.0660
     26 H           2.5882    8.7160   -0.3701 H       1  LIG1        0.0660
     27 H           1.1558    9.3097   -1.2745 H       1  LIG1        0.0660
     28 C          -2.0351    7.3053   -0.2314 C.ar    1  LIG1        0.1934
     29 C          -2.4882    8.5822   -0.4335 C.ar    1  LIG1        0.1159
     30 C          -3.9272    8.4824   -0.3951 C.ar    1  LIG1        0.1849
     31 C          -4.2169    7.1711   -0.1651 C.ar    1  LIG1        0.2146
     32 O          -3.0700    6.4643   -0.0713 O.2     1  LIG1       -0.4434
     33 C          -1.7631    9.7830   -0.7033 C.1     1  LIG1       -0.0620
     34 C          -1.2179   10.8269   -0.9437 C.1     1  LIG1       -0.1137
     35 H          -0.7345   11.7509   -1.1625 H       1  LIG1        0.1232
     36 O          -4.7975    9.4970   -0.5824 O.3     1  LIG1       -0.4901
     37 C          -5.0377   10.2657    0.5997 C.3     1  LIG1        0.0790
     38 H          -5.7170   11.0617    0.3070 H       1  LIG1        0.0660
     39 H          -5.4996    9.6334    1.3594 H       1  LIG1        0.0660
     40 H          -4.1010   10.6849    0.9699 H       1  LIG1        0.0660
     41 C          -5.4672    6.4582   -0.0119 C.ar    1  LIG1        0.1924
     42 C          -5.7451    5.1243    0.0931 C.ar    1  LIG1        0.1152
     43 C          -7.1802    5.0568    0.2442 C.ar    1  LIG1        0.1737
     44 C          -7.6385    6.3353    0.2187 C.ar    1  LIG1        0.1355
     45 O          -6.5889    7.1882    0.0649 O.2     1  LIG1       -0.4547
     46 H          -8.6133    6.7804    0.2904 H       1  LIG1        0.1068
     47 C          -4.8274    4.0310    0.0575 C.1     1  LIG1       -0.0621
     48 C          -4.0411    3.1244    0.0279 C.1     1  LIG1       -0.1137
     49 H          -3.3294    2.3328    0.0006 H       1  LIG1        0.1232
     50 O          -7.8420    3.8940    0.3772 O.3     1  LIG1       -0.4907
     51 C          -9.2447    4.0267    0.5230 C.3     1  LIG1        0.0790
     52 H          -9.6396    3.0204    0.6282 H       1  LIG1        0.0660
     53 H          -9.4761    4.6153    1.4148 H       1  LIG1        0.0660
     54 H          -9.6705    4.5072   -0.3618 H       1  LIG1        0.0660
@<TRIPOS>BOND
     1     6     1    1
     2     1     5   ar
     3     1     2   ar
     4     5     4   ar
     5    27    24    1
     6    35    34    1
     7    34    33    3
     8    33    29    1
     9    36    30    1
    10    36    37    1
    11     2     7    1
    12     2     3   ar
    13     4    15    1
    14     4     3   ar
    15    29    30   ar
    16    29    28   ar
    17    19    15   ar
    18    19    18   ar
    19    30    31   ar
    20    26    24    1
    21    54    51    1
    22    24    25    1
    23    24    23    1
    24     7     8    3
    25    15    16   ar
    26    28    18    1
    27    28    32   ar
    28    14    11    1
    29    31    32   ar
    30    31    41    1
    31    18    17   ar
    32     8     9    1
    33    41    45   ar
    34    41    42   ar
    35    49    48    1
    36    48    47    3
    37    47    42    1
    38    45    44   ar
    39     3    10    1
    40    42    43   ar
    41    16    17   ar
    42    16    20    1
    43    17    23    1
    44    44    43   ar
    45    44    46    1
    46    43    50    1
    47    38    37    1
    48    50    51    1
    49    20    21    3
    50    13    11    1
    51    51    52    1
    52    51    53    1
    53    21    22    1
    54    37    40    1
    55    37    39    1
    56    11    10    1
    57    11    12    1
