@<TRIPOS>MOLECULE
mol_data/opt/m06hf/geoms/mol2/12el.out
 15 15 0 0 0
SMALL
GASTEIGER

@<TRIPOS>ATOM
      1 C           0.1158    1.8647   -0.0001 C.ar    1  LIG1        0.1107
      2 C           1.4777    1.7951    0.0000 C.ar    1  LIG1        0.1039
      3 C           1.9216    3.1808    0.0000 C.ar    1  LIG1        0.1729
      4 C           0.7935    3.9332   -0.0000 C.ar    1  LIG1        0.1344
      5 O          -0.2992    3.1308   -0.0002 O.2     1  LIG1       -0.4660
      6 H          -0.6334    1.0928   -0.0002 H       1  LIG1        0.1043
      7 H           0.6374    4.9953   -0.0000 H       1  LIG1        0.1068
      8 C           2.2167    0.5655    0.0001 C.1     1  LIG1       -0.0628
      9 C           2.8044   -0.4827    0.0002 C.1     1  LIG1       -0.1137
     10 H           3.3241   -1.4123    0.0007 H       1  LIG1        0.1232
     11 O           3.1651    3.7072    0.0002 O.3     1  LIG1       -0.4907
     12 C           4.2594    2.8020   -0.0001 C.3     1  LIG1        0.0790
     13 H           5.1511    3.4233   -0.0000 H       1  LIG1        0.0660
     14 H           4.2395    2.1735    0.8916 H       1  LIG1        0.0660
     15 H           4.2393    2.1739   -0.8921 H       1  LIG1        0.0660
@<TRIPOS>BOND
     1    15    12    1
     2     6     1    1
     3     5     1   ar
     4     5     4   ar
     5     1     2   ar
     6    12    13    1
     7    12    11    1
     8    12    14    1
     9     7     4    1
    10     4     3   ar
    11     2     3   ar
    12     2     8    1
    13     3    11    1
    14     8     9    3
    15     9    10    1
