@<TRIPOS>MOLECULE
mol_data/opt/m06hf/geoms/mol2/12el6if4lf-12fd.out
 47 50 0 0 0
SMALL
GASTEIGER

@<TRIPOS>ATOM
      1 C           0.6239    1.6557    0.9337 C.ar    1  LIG1        0.1098
      2 C           1.6738    1.6504    0.0741 C.ar    1  LIG1        0.0836
      3 C           1.8551    3.0234   -0.3498 C.ar    1  LIG1        0.0867
      4 C           0.9060    3.7480    0.3024 C.ar    1  LIG1        0.1617
      5 O           0.1500    2.9036    1.0761 O.2     1  LIG1       -0.4596
      6 H           0.1332    0.8731    1.4844 H       1  LIG1        0.1043
      7 C           2.4587    0.5381   -0.3674 C.1     1  LIG1       -0.0646
      8 C           3.1399   -0.3674   -0.7673 C.1     1  LIG1       -0.1138
      9 H           3.7398   -1.1783   -1.1109 H       1  LIG1        0.1232
     10 N           2.8380    3.4744   -1.2366 N.pl3   1  LIG1       -0.3541
     11 H           3.3170    2.7022   -1.6857 H       1  LIG1        0.1425
     12 H           2.4734    4.1235   -1.9259 H       1  LIG1        0.1425
     13 C          -0.7073    5.6767    0.4939 C.ar    1  LIG1        0.2240
     14 C           0.5986    5.1790    0.3064 C.ar    1  LIG1        0.0822
     15 C           1.6044    6.1088    0.0466 C.ar    1  LIG1       -0.0230
     16 C           1.3169    7.4665   -0.0070 C.ar    1  LIG1        0.0533
     17 C          -0.0018    7.8607    0.2832 C.ar    1  LIG1        0.1134
     18 N          -0.9755    6.9626    0.4826 N.ar    1  LIG1       -0.2090
     19 H           2.6147    5.7534   -0.1317 H       1  LIG1        0.0645
     20 O          -1.7691    4.8658    0.6926 O.3     1  LIG1       -0.4919
     21 H          -1.4781    3.9610    0.8570 H       1  LIG1        0.2938
     22 N           2.2900    8.4292   -0.3523 N.pl3   1  LIG1       -0.3563
     23 H           3.1282    8.0135   -0.7398 H       1  LIG1        0.1424
     24 H           1.9051    9.1221   -0.9913 H       1  LIG1        0.1424
     25 C          -0.4242    9.2597    0.2991 C.ar    1  LIG1        0.0920
     26 C           0.2009   10.4646    0.6187 C.ar    1  LIG1        0.0945
     27 C          -0.7806   11.4825    0.4556 C.ar    1  LIG1        0.1650
     28 C          -1.9650   10.8782    0.0825 C.ar    1  LIG1        0.1092
     29 N          -1.7382    9.5359   -0.0024 N.ar    1  LIG1       -0.3473
     30 H          -2.3742    8.8137   -0.3007 H       1  LIG1        0.1662
     31 N           1.4492   10.7265    1.1682 N.pl3   1  LIG1       -0.3534
     32 H           2.1725   10.0541    0.9411 H       1  LIG1        0.1425
     33 H           1.7104   11.6991    1.0739 H       1  LIG1        0.1425
     34 O          -0.5309   12.7946    0.6856 O.3     1  LIG1       -0.5030
     35 H          -1.1782   13.3269    0.1495 H       1  LIG1        0.2923
     36 C          -3.2520   11.5144   -0.1520 C.ar    1  LIG1        0.0912
     37 C          -3.5081   12.8066   -0.5571 C.ar    1  LIG1        0.0938
     38 C          -4.9198   12.9617   -0.5969 C.ar    1  LIG1        0.1554
     39 C          -5.4866   11.7694   -0.2241 C.ar    1  LIG1        0.0461
     40 N          -4.4546   10.8988    0.0355 N.ar    1  LIG1       -0.3549
     41 H          -4.5594    9.9855    0.4462 H       1  LIG1        0.1655
     42 H          -6.5170   11.4774   -0.1263 H       1  LIG1        0.0845
     43 N          -2.5187   13.7899   -0.8696 N.pl3   1  LIG1       -0.3535
     44 H          -2.2702   13.7611   -1.8561 H       1  LIG1        0.1425
     45 H          -2.8860   14.7170   -0.6681 H       1  LIG1        0.1425
     46 O          -5.5053   14.1384   -0.9771 O.3     1  LIG1       -0.5035
     47 H          -6.4016   14.1899   -0.6307 H       1  LIG1        0.2923
@<TRIPOS>BOND
     1    12    10    1
     2    44    43    1
     3    11    10    1
     4    10     3    1
     5     9     8    1
     6    24    22    1
     7    46    47    1
     8    46    38    1
     9    43    45    1
    10    43    37    1
    11     8     7    3
    12    23    22    1
    13    38    37   ar
    14    38    39   ar
    15    37    36   ar
    16     7     2    1
    17    22    16    1
    18     3     2   ar
    19     3     4   ar
    20    30    29    1
    21    39    42    1
    22    39    40   ar
    23    36    40   ar
    24    36    28    1
    25    19    15    1
    26    16    15   ar
    27    16    17   ar
    28    29    28   ar
    29    29    25   ar
    30    40    41    1
    31    15    14   ar
    32     2     1   ar
    33    28    27   ar
    34    35    34    1
    35    17    25    1
    36    17    18   ar
    37    25    26   ar
    38     4    14    1
    39     4     5   ar
    40    14    13   ar
    41    27    26   ar
    42    27    34    1
    43    18    13   ar
    44    13    20    1
    45    26    31    1
    46    20    21    1
    47     1     5   ar
    48     1     6    1
    49    32    31    1
    50    33    31    1
