@<TRIPOS>MOLECULE
mol_data/opt/m06hf/geoms/mol2/12el12el-12el12el.out
 54 57 0 0 0
SMALL
GASTEIGER

@<TRIPOS>ATOM
      1 C           0.3670    1.6833   -0.7086 C.ar    1  LIG1        0.1118
      2 C           1.7029    1.7273   -0.4491 C.ar    1  LIG1        0.1047
      3 C           1.9845    3.1060   -0.1255 C.ar    1  LIG1        0.1842
      4 C           0.7969    3.7682   -0.2379 C.ar    1  LIG1        0.2136
      5 O          -0.1795    2.9008   -0.5858 O.2     1  LIG1       -0.4547
      6 H          -0.2898    0.8779   -0.9839 H       1  LIG1        0.1043
      7 C           2.6482    0.6531   -0.4843 C.1     1  LIG1       -0.0628
      8 C           3.4532   -0.2371   -0.5232 C.1     1  LIG1       -0.1137
      9 H           4.1688   -1.0259   -0.5541 H       1  LIG1        0.1232
     10 O           3.1908    3.6045    0.2225 O.3     1  LIG1       -0.4901
     11 C           3.9184    4.1686   -0.8746 C.3     1  LIG1        0.0790
     12 H           4.8791    4.4756   -0.4706 H       1  LIG1        0.0660
     13 H           4.0522    3.4153   -1.6532 H       1  LIG1        0.0660
     14 H           3.3852    5.0372   -1.2609 H       1  LIG1        0.0660
     15 C           0.4602    5.1628   -0.0562 C.ar    1  LIG1        0.1934
     16 C          -0.7190    5.8547   -0.0609 C.ar    1  LIG1        0.1159
     17 C          -0.3585    7.2299    0.1947 C.ar    1  LIG1        0.1849
     18 C           1.0057    7.2540    0.3180 C.ar    1  LIG1        0.2146
     19 O           1.4884    5.9891    0.1666 O.2     1  LIG1       -0.4434
     20 C          -2.0476    5.3634   -0.2393 C.1     1  LIG1       -0.0620
     21 C          -3.1723    4.9713   -0.3878 C.1     1  LIG1       -0.1137
     22 H          -4.1716    4.6273   -0.5207 H       1  LIG1        0.1232
     23 O          -1.2914    8.1835    0.2877 O.3     1  LIG1       -0.4901
     24 C          -1.0496    9.2961    1.1514 C.3     1  LIG1        0.0790
     25 H          -2.0311    9.6960    1.3907 H       1  LIG1        0.0660
     26 H          -0.5505    8.9555    2.0614 H       1  LIG1        0.0660
     27 H          -0.4432   10.0467    0.6490 H       1  LIG1        0.0660
     28 C           2.0170    8.2649    0.5494 C.ar    1  LIG1        0.1934
     29 C           3.2832    8.1532    1.0624 C.ar    1  LIG1        0.1159
     30 C           3.8207    9.4949    1.0357 C.ar    1  LIG1        0.1849
     31 C           2.8532   10.2866    0.4980 C.ar    1  LIG1        0.2146
     32 O           1.7592    9.5349    0.2031 O.2     1  LIG1       -0.4434
     33 C           3.8801    6.9654    1.5872 C.1     1  LIG1       -0.0620
     34 C           4.3412    5.9427    2.0185 C.1     1  LIG1       -0.1137
     35 H           4.7085    5.0162    2.3968 H       1  LIG1        0.1232
     36 O           5.0075    9.9139    1.5125 O.3     1  LIG1       -0.4901
     37 C           6.1449    9.2980    0.9021 C.3     1  LIG1        0.0790
     38 H           7.0132    9.7575    1.3668 H       1  LIG1        0.0660
     39 H           6.1378    8.2244    1.0903 H       1  LIG1        0.0660
     40 H           6.1382    9.5036   -0.1694 H       1  LIG1        0.0660
     41 C           2.7768   11.7085    0.2250 C.ar    1  LIG1        0.1924
     42 C           3.7205   12.6405   -0.1027 C.ar    1  LIG1        0.1152
     43 C           2.9881   13.8836   -0.2409 C.ar    1  LIG1        0.1737
     44 C           1.6878   13.5931   -0.0049 C.ar    1  LIG1        0.1355
     45 O           1.5589   12.2768    0.2884 O.2     1  LIG1       -0.4547
     46 H           0.7986   14.1959    0.0061 H       1  LIG1        0.1068
     47 C           5.1241   12.4585   -0.2994 C.1     1  LIG1       -0.0621
     48 C           6.3061   12.3557   -0.4954 C.1     1  LIG1       -0.1137
     49 H           7.3561   12.2699   -0.6554 H       1  LIG1        0.1232
     50 O           3.5061   15.0982   -0.5412 O.3     1  LIG1       -0.4907
     51 C           3.9924   15.1963   -1.8813 C.3     1  LIG1        0.0790
     52 H           4.3775   16.2070   -1.9893 H       1  LIG1        0.0660
     53 H           4.7893   14.4713   -2.0493 H       1  LIG1        0.0660
     54 H           3.1747   15.0258   -2.5842 H       1  LIG1        0.0660
@<TRIPOS>BOND
     1    54    51    1
     2    53    51    1
     3    52    51    1
     4    51    50    1
     5    13    11    1
     6    14    11    1
     7     6     1    1
     8    11    12    1
     9    11    10    1
    10     1     5   ar
    11     1     2   ar
    12    49    48    1
    13     5     4   ar
    14     9     8    1
    15    50    43    1
    16     8     7    3
    17    22    21    1
    18    48    47    3
    19     7     2    1
    20     2     3   ar
    21    21    20    3
    22    47    42    1
    23    43    42   ar
    24    43    44   ar
    25    20    16    1
    26     4     3   ar
    27     4    15    1
    28    40    37    1
    29     3    10    1
    30    42    41   ar
    31    16    15   ar
    32    16    17   ar
    33    15    19   ar
    34    44    46    1
    35    44    45   ar
    36    19    18   ar
    37    17    23    1
    38    17    18   ar
    39    32    31   ar
    40    32    28   ar
    41    41    45   ar
    42    41    31    1
    43    23    24    1
    44    18    28    1
    45    31    30   ar
    46    28    29   ar
    47    27    24    1
    48    37    39    1
    49    37    38    1
    50    37    36    1
    51    30    29   ar
    52    30    36    1
    53    29    33    1
    54    24    25    1
    55    24    26    1
    56    33    34    3
    57    34    35    1
