@<TRIPOS>MOLECULE
mol_data/opt/m06hf/geoms/mol2/12el12ii13df-13ae-.out
 48 51 0 0 0
SMALL
GASTEIGER

@<TRIPOS>ATOM
      1 C           0.4727    1.4975    0.6153 C.ar    1  LIG1        0.1118
      2 C           1.7601    1.5557    0.1810 C.ar    1  LIG1        0.1047
      3 C           2.0499    2.9658    0.0480 C.ar    1  LIG1        0.1841
      4 C           0.9196    3.6286    0.4120 C.ar    1  LIG1        0.2125
      5 O          -0.0354    2.7303    0.7617 O.2     1  LIG1       -0.4547
      6 H          -0.1709    0.6694    0.8537 H       1  LIG1        0.1043
      7 C           2.6482    0.4682   -0.0952 C.1     1  LIG1       -0.0628
      8 C           3.4011   -0.4351   -0.3386 C.1     1  LIG1       -0.1137
      9 H           4.0704   -1.2371   -0.5470 H       1  LIG1        0.1232
     10 O           3.2173    3.5114   -0.3671 O.3     1  LIG1       -0.4901
     11 C           3.3799    3.4888   -1.7893 C.3     1  LIG1        0.0790
     12 H           4.3463    3.9435   -1.9894 H       1  LIG1        0.0660
     13 H           3.3646    2.4594   -2.1491 H       1  LIG1        0.0660
     14 H           2.5824    4.0674   -2.2583 H       1  LIG1        0.0660
     15 C           0.5887    5.0457    0.4520 C.ar    1  LIG1        0.1775
     16 C           1.3274    6.1597    0.7082 C.ar    1  LIG1        0.0021
     17 C           0.4244    7.2767    0.5394 C.ar    1  LIG1        0.0004
     18 C          -0.7710    6.7283    0.1902 C.ar    1  LIG1        0.1564
     19 O          -0.6873    5.3758    0.1385 O.2     1  LIG1       -0.4496
     20 C           2.7711    6.2462    1.1277 C.3     1  LIG1       -0.0357
     21 H           2.8511    6.7947    2.0675 H       1  LIG1        0.0279
     22 H           3.3486    6.7771    0.3684 H       1  LIG1        0.0279
     23 H           3.1934    5.2513    1.2490 H       1  LIG1        0.0279
     24 C           0.7576    8.7271    0.7746 C.3     1  LIG1       -0.0358
     25 H          -0.1422    9.2894    1.0219 H       1  LIG1        0.0279
     26 H           1.2015    9.1730   -0.1165 H       1  LIG1        0.0279
     27 H           1.4633    8.8085    1.6018 H       1  LIG1        0.0279
     28 C          -2.0917    7.2772   -0.0860 C.ar    1  LIG1        0.1041
     29 C          -2.4917    8.4695   -0.6808 C.ar    1  LIG1        0.1220
     30 C          -3.9137    8.4625   -0.7048 C.ar    1  LIG1        0.1616
     31 C          -4.3360    7.2798   -0.1451 C.ar    1  LIG1        0.1067
     32 N          -3.2061    6.5810    0.2249 N.ar    1  LIG1       -0.3466
     33 H          -3.1920    5.6404    0.5921 H       1  LIG1        0.1662
     34 N          -0.9362   10.2591   -1.6921 N.1     1  LIG1       -0.1907
     35 C          -1.6352    9.4671   -1.2413 C.1     1  LIG1        0.1051
     36 O          -4.6701    9.4641   -1.1989 O.3     1  LIG1       -0.5034
     37 H          -5.6038    9.2356   -1.0981 H       1  LIG1        0.2923
     38 C          -5.7086    6.8185    0.0607 C.ar    1  LIG1        0.0677
     39 C          -6.7144    6.5910   -0.8505 C.ar    1  LIG1       -0.0194
     40 C          -7.8764    6.2143   -0.1110 C.ar    1  LIG1        0.0426
     41 C          -7.5273    6.2239    1.2245 C.ar    1  LIG1        0.0177
     42 N          -6.2252    6.5918    1.3138 N.ar    1  LIG1       -0.3583
     43 H          -5.7148    6.7423    2.1699 H       1  LIG1        0.1654
     44 H          -8.1204    5.9974    2.0929 H       1  LIG1        0.0819
     45 H          -6.6229    6.6536   -1.9221 H       1  LIG1        0.0651
     46 C          -9.1674    5.8756   -0.6356 C.1     1  LIG1       -0.0682
     47 C         -10.2484    5.5944   -1.0779 C.1     1  LIG1       -0.1139
     48 H         -11.2067    5.3468   -1.4711 H       1  LIG1        0.1232
@<TRIPOS>BOND
     1    14    11    1
     2    13    11    1
     3    12    11    1
     4    45    39    1
     5    11    10    1
     6    34    35    3
     7    48    47    1
     8    35    29    1
     9    36    37    1
    10    36    30    1
    11    47    46    3
    12    39    40   ar
    13    39    38   ar
    14    30    29   ar
    15    30    31   ar
    16    29    28   ar
    17    46    40    1
    18     9     8    1
    19    10     3    1
    20     8     7    3
    21    31    38    1
    22    31    32   ar
    23    26    24    1
    24    40    41   ar
    25     7     2    1
    26    28    18    1
    27    28    32   ar
    28     3     2   ar
    29     3     4   ar
    30    38    42   ar
    31    19    18   ar
    32    19    15   ar
    33     2     1   ar
    34    18    17   ar
    35    32    33    1
    36    22    20    1
    37     4    15    1
    38     4     5   ar
    39    15    16   ar
    40    17    16   ar
    41    17    24    1
    42     1     5   ar
    43     1     6    1
    44    16    20    1
    45    24    25    1
    46    24    27    1
    47    20    23    1
    48    20    21    1
    49    41    42   ar
    50    41    44    1
    51    42    43    1
