@<TRIPOS>MOLECULE
mol_data/opt/m06hf/geoms/mol2/12el12el-12el-12el.out
 54 57 0 0 0
SMALL
GASTEIGER

@<TRIPOS>ATOM
      1 C          -0.0189    1.7459    0.2826 C.ar    1  LIG1        0.1118
      2 C           1.3353    1.6287    0.2174 C.ar    1  LIG1        0.1047
      3 C           1.8300    2.9793    0.1012 C.ar    1  LIG1        0.1842
      4 C           0.7293    3.7860    0.0931 C.ar    1  LIG1        0.2136
      5 O          -0.3874    3.0323    0.2054 O.2     1  LIG1       -0.4547
      6 H          -0.8035    1.0167    0.3811 H       1  LIG1        0.1043
      7 C           2.1219    0.4339    0.2536 C.1     1  LIG1       -0.0628
      8 C           2.7859   -0.5661    0.2759 C.1     1  LIG1       -0.1137
      9 H           3.3739   -1.4544    0.2978 H       1  LIG1        0.1232
     10 O           3.1312    3.3366    0.0316 O.3     1  LIG1       -0.4901
     11 C           3.6019    3.5974   -1.2992 C.3     1  LIG1        0.0790
     12 H           4.6536    3.8498   -1.1970 H       1  LIG1        0.0660
     13 H           3.4730    2.7036   -1.9114 H       1  LIG1        0.0660
     14 H           3.0584    4.4425   -1.7206 H       1  LIG1        0.0660
     15 C           0.5834    5.2202   -0.0242 C.ar    1  LIG1        0.1934
     16 C          -0.5028    6.0531   -0.0212 C.ar    1  LIG1        0.1159
     17 C           0.0378    7.3772   -0.2134 C.ar    1  LIG1        0.1849
     18 C           1.3902    7.2362   -0.3048 C.ar    1  LIG1        0.2146
     19 O           1.7149    5.9236   -0.1934 O.2     1  LIG1       -0.4434
     20 C          -1.8855    5.7314    0.1375 C.1     1  LIG1       -0.0620
     21 C          -3.0543    5.4936    0.2763 C.1     1  LIG1       -0.1137
     22 H          -4.0903    5.2754    0.3931 H       1  LIG1        0.1232
     23 O          -0.6771    8.5185   -0.2756 O.3     1  LIG1       -0.4901
     24 C          -0.9194    9.1125    1.0033 C.3     1  LIG1        0.0790
     25 H          -1.4667   10.0300    0.8053 H       1  LIG1        0.0660
     26 H          -1.5144    8.4367    1.6199 H       1  LIG1        0.0660
     27 H           0.0293    9.3394    1.4918 H       1  LIG1        0.0660
     28 C           2.4882    8.1703   -0.4565 C.ar    1  LIG1        0.1934
     29 C           2.5787    9.4812   -0.8471 C.ar    1  LIG1        0.1159
     30 C           3.9828    9.8038   -0.7600 C.ar    1  LIG1        0.1849
     31 C           4.6115    8.6806   -0.3130 C.ar    1  LIG1        0.2146
     32 O           3.7043    7.6946   -0.1390 O.2     1  LIG1       -0.4434
     33 C           1.5537   10.3740   -1.2851 C.1     1  LIG1       -0.0620
     34 C           0.7161   11.1527   -1.6523 C.1     1  LIG1       -0.1137
     35 H          -0.0351   11.8244   -1.9977 H       1  LIG1        0.1232
     36 O           4.5430   10.9887   -1.0831 O.3     1  LIG1       -0.4901
     37 C           4.5592   11.9268   -0.0035 C.3     1  LIG1        0.0790
     38 H           5.0039   12.8347   -0.4012 H       1  LIG1        0.0660
     39 H           3.5402   12.1228    0.3346 H       1  LIG1        0.0660
     40 H           5.1642   11.5357    0.8156 H       1  LIG1        0.0660
     41 C           5.9902    8.3861    0.0160 C.ar    1  LIG1        0.1924
     42 C           6.5817    7.2587    0.5155 C.ar    1  LIG1        0.1152
     43 C           7.9798    7.6106    0.6630 C.ar    1  LIG1        0.1737
     44 C           8.1022    8.8915    0.2420 C.ar    1  LIG1        0.1355
     45 O           6.8924    9.3683   -0.1424 O.2     1  LIG1       -0.4547
     46 H           8.9431    9.5575    0.1791 H       1  LIG1        0.1068
     47 C           5.9386    6.0303    0.8617 C.1     1  LIG1       -0.0621
     48 C           5.3714    5.0103    1.1519 C.1     1  LIG1       -0.1137
     49 H           4.8145    4.1254    1.3761 H       1  LIG1        0.1232
     50 O           8.9696    6.8315    1.1591 O.3     1  LIG1       -0.4907
     51 C           9.2159    5.6483    0.3972 C.3     1  LIG1        0.0790
     52 H          10.0119    5.1194    0.9146 H       1  LIG1        0.0660
     53 H           8.3188    5.0301    0.3553 H       1  LIG1        0.0660
     54 H           9.5342    5.9186   -0.6115 H       1  LIG1        0.0660
@<TRIPOS>BOND
     1    35    34    1
     2    13    11    1
     3    14    11    1
     4    34    33    3
     5    11    12    1
     6    11    10    1
     7    33    29    1
     8    36    30    1
     9    36    37    1
    10    29    30   ar
    11    29    28   ar
    12    30    31   ar
    13    54    51    1
    14    28    18    1
    15    28    32   ar
    16    38    37    1
    17    31    32   ar
    18    31    41    1
    19    18    17   ar
    20    18    19   ar
    21    23    17    1
    22    23    24    1
    23    17    16   ar
    24    19    15   ar
    25    45    41   ar
    26    45    44   ar
    27    15    16   ar
    28    15     4    1
    29    16    20    1
    30    37    39    1
    31    37    40    1
    32    41    42   ar
    33    10     3    1
    34     4     3   ar
    35     4     5   ar
    36     3     2   ar
    37    20    21    3
    38    46    44    1
    39     5     1   ar
    40     2     7    1
    41     2     1   ar
    42    44    43   ar
    43     7     8    3
    44     8     9    1
    45    21    22    1
    46     1     6    1
    47    53    51    1
    48    51    52    1
    49    51    50    1
    50    42    43   ar
    51    42    47    1
    52    43    50    1
    53    25    24    1
    54    47    48    3
    55    24    27    1
    56    24    26    1
    57    48    49    1
