@<TRIPOS>MOLECULE
mol_data/opt/m06hf/geoms/mol2/12el12el-12el-12el-.out
 54 57 0 0 0
SMALL
GASTEIGER

@<TRIPOS>ATOM
      1 C          -0.0498    1.8037    0.7452 C.ar    1  LIG1        0.1118
      2 C           1.3079    1.6713    0.7845 C.ar    1  LIG1        0.1047
      3 C           1.8215    3.0218    0.6518 C.ar    1  LIG1        0.1842
      4 C           0.7223    3.8275    0.5487 C.ar    1  LIG1        0.2136
      5 O          -0.4062    3.0777    0.6036 O.2     1  LIG1       -0.4547
      6 H          -0.8357    1.0715    0.8062 H       1  LIG1        0.1043
      7 C           1.9898    0.4178    0.9263 C.1     1  LIG1       -0.0628
      8 C           2.5270   -0.6497    1.0495 C.1     1  LIG1       -0.1137
      9 H           3.0016   -1.5969    1.1612 H       1  LIG1        0.1232
     10 O           3.0800    3.4787    0.6139 O.3     1  LIG1       -0.4901
     11 C           4.1278    2.5722    0.9362 C.3     1  LIG1        0.0790
     12 H           5.0340    3.1711    0.9392 H       1  LIG1        0.0660
     13 H           3.9619    2.1324    1.9208 H       1  LIG1        0.0660
     14 H           4.1947    1.7846    0.1853 H       1  LIG1        0.0660
     15 C           0.5743    5.2577    0.4096 C.ar    1  LIG1        0.1934
     16 C          -0.5356    6.0572    0.3152 C.ar    1  LIG1        0.1159
     17 C          -0.0245    7.3996    0.2083 C.ar    1  LIG1        0.1849
     18 C           1.3364    7.3010    0.2442 C.ar    1  LIG1        0.2146
     19 O           1.6913    5.9963    0.3627 O.2     1  LIG1       -0.4434
     20 C          -1.9153    5.6883    0.2996 C.1     1  LIG1       -0.0620
     21 C          -3.0821    5.4059    0.2767 C.1     1  LIG1       -0.1137
     22 H          -4.1165    5.1533    0.2608 H       1  LIG1        0.1232
     23 O          -0.7935    8.4999    0.0820 O.3     1  LIG1       -0.4901
     24 C          -0.7628    9.0882   -1.2202 C.3     1  LIG1        0.0790
     25 H          -1.4136    9.9569   -1.1689 H       1  LIG1        0.0660
     26 H           0.2515    9.4008   -1.4711 H       1  LIG1        0.0660
     27 H          -1.1349    8.3719   -1.9550 H       1  LIG1        0.0660
     28 C           2.4017    8.2819    0.1725 C.ar    1  LIG1        0.1934
     29 C           2.4372    9.6231    0.4488 C.ar    1  LIG1        0.1159
     30 C           3.7786   10.0453    0.1243 C.ar    1  LIG1        0.1849
     31 C           4.4433    8.9275   -0.2923 C.ar    1  LIG1        0.2146
     32 O           3.5939    7.8633   -0.2752 O.2     1  LIG1       -0.4434
     33 C           1.3986   10.4537    0.9667 C.1     1  LIG1       -0.0620
     34 C           0.5274   11.1554    1.4038 C.1     1  LIG1       -0.1137
     35 H          -0.2491   11.7638    1.8050 H       1  LIG1        0.1232
     36 O           4.1702   11.3235    0.2323 O.3     1  LIG1       -0.4901
     37 C           5.0171   11.8377   -0.7958 C.3     1  LIG1        0.0790
     38 H           4.8962   12.9174   -0.7607 H       1  LIG1        0.0660
     39 H           6.0548   11.5718   -0.6050 H       1  LIG1        0.0660
     40 H           4.6953   11.4509   -1.7646 H       1  LIG1        0.0660
     41 C           5.8270    8.6676   -0.6505 C.ar    1  LIG1        0.1924
     42 C           6.9947    9.1295   -0.1099 C.ar    1  LIG1        0.1152
     43 C           8.0425    8.5140   -0.8883 C.ar    1  LIG1        0.1737
     44 C           7.4273    7.7256   -1.8080 C.ar    1  LIG1        0.1355
     45 O           6.0800    7.8259   -1.6636 O.2     1  LIG1       -0.4547
     46 H           7.7822    7.0707   -2.5820 H       1  LIG1        0.1068
     47 C           7.1332   10.0027    1.0115 C.1     1  LIG1       -0.0621
     48 C           7.2155   10.7497    1.9487 C.1     1  LIG1       -0.1137
     49 H           7.2835   11.4039    2.7865 H       1  LIG1        0.1232
     50 O           9.3486    8.7337   -0.6555 O.3     1  LIG1       -0.4907
     51 C          10.2302    8.0042   -1.4906 C.3     1  LIG1        0.0790
     52 H          11.2366    8.2774   -1.1878 H       1  LIG1        0.0660
     53 H          10.0747    6.9306   -1.3543 H       1  LIG1        0.0660
     54 H          10.0679    8.2746   -2.5375 H       1  LIG1        0.0660
@<TRIPOS>BOND
     1    46    44    1
     2    54    51    1
     3    27    24    1
     4    44    45   ar
     5    44    43   ar
     6    40    37    1
     7    45    41   ar
     8    51    53    1
     9    51    52    1
    10    51    50    1
    11    26    24    1
    12    24    25    1
    13    24    23    1
    14    43    50    1
    15    43    42   ar
    16    37    38    1
    17    37    39    1
    18    37    36    1
    19    41    31    1
    20    41    42   ar
    21    31    32   ar
    22    31    30   ar
    23    32    28   ar
    24    42    47    1
    25    23    17    1
    26    30    36    1
    27    30    29   ar
    28    28    18    1
    29    28    29   ar
    30    14    11    1
    31    17    18   ar
    32    17    16   ar
    33    18    19   ar
    34    22    21    1
    35    21    20    3
    36    20    16    1
    37    16    15   ar
    38    19    15   ar
    39    15     4    1
    40    29    33    1
    41     4     5   ar
    42     4     3   ar
    43     5     1   ar
    44    10     3    1
    45    10    11    1
    46     3     2   ar
    47     1     2   ar
    48     1     6    1
    49     2     7    1
    50     7     8    3
    51    11    12    1
    52    11    13    1
    53    33    34    3
    54    47    48    3
    55     8     9    1
    56    34    35    1
    57    48    49    1
