@<TRIPOS>MOLECULE
mol_data/opt/m06hf/geoms/mol2/12el12el12el12el.out
 54 57 0 0 0
SMALL
GASTEIGER

@<TRIPOS>ATOM
      1 C           0.4231    1.4885    0.3325 C.ar    1  LIG1        0.1118
      2 C           1.7118    1.6078    0.7561 C.ar    1  LIG1        0.1047
      3 C           2.0280    3.0134    0.6140 C.ar    1  LIG1        0.1842
      4 C           0.9094    3.6010    0.1059 C.ar    1  LIG1        0.2136
      5 O          -0.0643    2.6709   -0.0540 O.2     1  LIG1       -0.4547
      6 H          -0.2347    0.6401    0.2652 H       1  LIG1        0.1043
      7 C           2.5420    0.5681    1.2848 C.1     1  LIG1       -0.0628
      8 C           3.2400   -0.3020    1.7310 C.1     1  LIG1       -0.1137
      9 H           3.8540   -1.0730    2.1354 H       1  LIG1        0.1232
     10 O           3.1639    3.6448    0.9667 O.3     1  LIG1       -0.4901
     11 C           4.3365    3.1740    0.2961 C.3     1  LIG1        0.0790
     12 H           5.1520    3.7936    0.6594 H       1  LIG1        0.0660
     13 H           4.5160    2.1273    0.5420 H       1  LIG1        0.0660
     14 H           4.2167    3.3020   -0.7805 H       1  LIG1        0.0660
     15 C           0.5942    4.9782   -0.2237 C.ar    1  LIG1        0.1934
     16 C           1.3680    6.0305   -0.6341 C.ar    1  LIG1        0.1159
     17 C           0.4510    7.1390   -0.7773 C.ar    1  LIG1        0.1849
     18 C          -0.7800    6.6648   -0.4387 C.ar    1  LIG1        0.2146
     19 O          -0.6881    5.3519   -0.1111 O.2     1  LIG1       -0.4434
     20 C           2.7547    6.0296   -0.9795 C.1     1  LIG1       -0.0620
     21 C           3.9126    6.0769   -1.3000 C.1     1  LIG1       -0.1137
     22 H           4.9366    6.1181   -1.5912 H       1  LIG1        0.1232
     23 O           0.7292    8.3769   -1.2261 O.3     1  LIG1       -0.4901
     24 C           1.6665    9.1025   -0.4253 C.3     1  LIG1        0.0790
     25 H           1.7488   10.0834   -0.8859 H       1  LIG1        0.0660
     26 H           1.2844    9.1931    0.5922 H       1  LIG1        0.0660
     27 H           2.6333    8.5990   -0.4303 H       1  LIG1        0.0660
     28 C          -2.0974    7.2726   -0.4123 C.ar    1  LIG1        0.1934
     29 C          -2.5257    8.5533   -0.1802 C.ar    1  LIG1        0.1159
     30 C          -3.9657    8.4972   -0.3098 C.ar    1  LIG1        0.1849
     31 C          -4.2760    7.1992   -0.5778 C.ar    1  LIG1        0.2146
     32 O          -3.1393    6.4641   -0.6512 O.2     1  LIG1       -0.4434
     33 C          -1.7363    9.7079    0.1171 C.1     1  LIG1       -0.0620
     34 C          -1.1145   10.7022    0.3831 C.1     1  LIG1       -0.1137
     35 H          -0.5625   11.5859    0.6063 H       1  LIG1        0.1232
     36 O          -4.8439    9.5158   -0.2412 O.3     1  LIG1       -0.4901
     37 C          -4.8326   10.2395    0.9922 C.3     1  LIG1        0.0790
     38 H          -5.6815   10.9169    0.9434 H       1  LIG1        0.0660
     39 H          -4.9512    9.5451    1.8251 H       1  LIG1        0.0660
     40 H          -3.9036   10.7998    1.0914 H       1  LIG1        0.0660
     41 C          -5.5356    6.5251   -0.8404 C.ar    1  LIG1        0.1924
     42 C          -6.7967    6.7016   -0.3308 C.ar    1  LIG1        0.1152
     43 C          -7.6161    5.7214   -1.0225 C.ar    1  LIG1        0.1737
     44 C          -6.7811    5.0537   -1.8562 C.ar    1  LIG1        0.1355
     45 O          -5.5251    5.5432   -1.7468 O.2     1  LIG1       -0.4547
     46 H          -6.9487    4.2475   -2.5455 H       1  LIG1        0.1068
     47 C          -7.1437    7.6161    0.7156 C.1     1  LIG1       -0.0621
     48 C          -7.4446    8.3611    1.6105 C.1     1  LIG1       -0.1137
     49 H          -7.7132    9.0168    2.4063 H       1  LIG1        0.1232
     50 O          -8.9340    5.4433   -0.9260 O.3     1  LIG1       -0.4907
     51 C          -9.7153    6.2235   -0.0331 C.3     1  LIG1        0.0790
     52 H         -10.7323    5.8560   -0.1415 H       1  LIG1        0.0660
     53 H          -9.3744    6.0886    0.9940 H       1  LIG1        0.0660
     54 H          -9.6667    7.2799   -0.3015 H       1  LIG1        0.0660
@<TRIPOS>BOND
     1    46    44    1
     2    44    45   ar
     3    44    43   ar
     4    45    41   ar
     5    22    21    1
     6    21    20    3
     7    23    17    1
     8    23    24    1
     9    43    50    1
    10    43    42   ar
    11    20    16    1
    12    50    51    1
    13    25    24    1
    14    41    31    1
    15    41    42   ar
    16    14    11    1
    17    17    16   ar
    18    17    18   ar
    19    32    31   ar
    20    32    28   ar
    21    16    15   ar
    22    31    30   ar
    23    18    28    1
    24    18    19   ar
    25    27    24    1
    26    24    26    1
    27    28    29   ar
    28    42    47    1
    29    30    36    1
    30    30    29   ar
    31    54    51    1
    32    36    37    1
    33    15    19   ar
    34    15     4    1
    35    29    33    1
    36    52    51    1
    37     5     4   ar
    38     5     1   ar
    39    51    53    1
    40     4     3   ar
    41    33    34    3
    42     6     1    1
    43    11    13    1
    44    11    12    1
    45    11    10    1
    46     1     2   ar
    47    34    35    1
    48     3     2   ar
    49     3    10    1
    50    47    48    3
    51     2     7    1
    52    38    37    1
    53    37    40    1
    54    37    39    1
    55     7     8    3
    56    48    49    1
    57     8     9    1
