@<TRIPOS>MOLECULE
mol_data/opt/m06hf/geoms/mol2/12el12el-.out
 28 29 0 0 0
SMALL
GASTEIGER

@<TRIPOS>ATOM
      1 C           0.1514    1.8050    0.0001 C.ar    1  LIG1        0.1118
      2 C           1.5139    1.7332    0.0001 C.ar    1  LIG1        0.1047
      3 C           1.9633    3.1135    0.0001 C.ar    1  LIG1        0.1842
      4 C           0.8276    3.8731    0.0000 C.ar    1  LIG1        0.2136
      5 O          -0.2638    3.0687    0.0001 O.2     1  LIG1       -0.4547
      6 H          -0.5982    1.0339    0.0002 H       1  LIG1        0.1043
      7 C           2.2486    0.5012    0.0002 C.1     1  LIG1       -0.0628
      8 C           2.8307   -0.5499    0.0002 C.1     1  LIG1       -0.1137
      9 H           3.3473   -1.4820   -0.0007 H       1  LIG1        0.1232
     10 O           3.2024    3.6296    0.0000 O.3     1  LIG1       -0.4901
     11 C           4.2967    2.7226    0.0001 C.3     1  LIG1        0.0790
     12 H           5.1862    3.3464   -0.0000 H       1  LIG1        0.0660
     13 H           4.2748    2.0966    0.8926 H       1  LIG1        0.0660
     14 H           4.2748    2.0965   -0.8925 H       1  LIG1        0.0660
     15 C           0.6103    5.3043   -0.0001 C.ar    1  LIG1        0.1924
     16 C          -0.5355    6.0526   -0.0001 C.ar    1  LIG1        0.1152
     17 C          -0.0826    7.4243   -0.0002 C.ar    1  LIG1        0.1737
     18 C           1.2743    7.3907   -0.0002 C.ar    1  LIG1        0.1355
     19 O           1.6910    6.0953   -0.0001 O.2     1  LIG1       -0.4547
     20 H           2.0395    8.1438   -0.0002 H       1  LIG1        0.1068
     21 C          -1.8969    5.6222   -0.0001 C.1     1  LIG1       -0.0621
     22 C          -3.0505    5.2885   -0.0000 C.1     1  LIG1       -0.1137
     23 H          -4.0743    4.9952    0.0002 H       1  LIG1        0.1232
     24 O          -0.9348    8.4647   -0.0002 O.3     1  LIG1       -0.4907
     25 C          -0.3175    9.7393   -0.0003 C.3     1  LIG1        0.0790
     26 H          -1.1216   10.4692   -0.0003 H       1  LIG1        0.0660
     27 H           0.2989    9.8595    0.8951 H       1  LIG1        0.0660
     28 H           0.2989    9.8594   -0.8958 H       1  LIG1        0.0660
@<TRIPOS>BOND
     1    28    25    1
     2    14    11    1
     3     9     8    1
     4    26    25    1
     5    25    24    1
     6    25    27    1
     7    24    17    1
     8    20    18    1
     9    18    17   ar
    10    18    19   ar
    11    17    16   ar
    12    19    15   ar
    13    16    21    1
    14    16    15   ar
    15    21    22    3
    16    15     4    1
    17    22    23    1
    18    12    11    1
    19     4     5   ar
    20     4     3   ar
    21    10    11    1
    22    10     3    1
    23     5     1   ar
    24    11    13    1
    25     3     2   ar
    26     1     2   ar
    27     1     6    1
    28     2     7    1
    29     7     8    3
