@<TRIPOS>MOLECULE
mol_data/opt/m06hf/geoms/mol2/12el12el12el-12el-.out
 54 57 0 0 0
SMALL
GASTEIGER

@<TRIPOS>ATOM
      1 C           0.3388    1.5017    0.4244 C.ar    1  LIG1        0.1118
      2 C           1.6005    1.5495   -0.0853 C.ar    1  LIG1        0.1047
      3 C           1.9124    2.9587   -0.1929 C.ar    1  LIG1        0.1842
      4 C           0.8205    3.6234    0.2747 C.ar    1  LIG1        0.2136
      5 O          -0.1354    2.7330    0.6397 O.2     1  LIG1       -0.4547
      6 H          -0.3077    0.6763    0.6656 H       1  LIG1        0.1043
      7 C           2.4137    0.4416   -0.4880 C.1     1  LIG1       -0.0628
      8 C           3.0991   -0.4834   -0.8322 C.1     1  LIG1       -0.1137
      9 H           3.6990   -1.3052   -1.1490 H       1  LIG1        0.1232
     10 O           3.0243    3.5160   -0.7095 O.3     1  LIG1       -0.4901
     11 C           4.2263    3.2070    0.0022 C.3     1  LIG1        0.0790
     12 H           5.0210    3.7349   -0.5182 H       1  LIG1        0.0660
     13 H           4.1455    3.5676    1.0282 H       1  LIG1        0.0660
     14 H           4.4093    2.1324   -0.0174 H       1  LIG1        0.0660
     15 C           0.5169    5.0361    0.3984 C.ar    1  LIG1        0.1934
     16 C           1.3017    6.1413    0.5915 C.ar    1  LIG1        0.1159
     17 C           0.3876    7.2558    0.6180 C.ar    1  LIG1        0.1849
     18 C          -0.8580    6.7343    0.4283 C.ar    1  LIG1        0.2146
     19 O          -0.7757    5.3917    0.2968 O.2     1  LIG1       -0.4434
     20 C           2.7121    6.2368    0.7954 C.1     1  LIG1       -0.0620
     21 C           3.8902    6.3861    0.9791 C.1     1  LIG1       -0.1137
     22 H           4.9332    6.5253    1.1461 H       1  LIG1        0.1232
     23 O           0.7257    8.5433    0.8350 O.3     1  LIG1       -0.4901
     24 C           0.9691    9.2965   -0.3578 C.3     1  LIG1        0.0790
     25 H           1.3292   10.2667   -0.0268 H       1  LIG1        0.0660
     26 H           1.7286    8.7982   -0.9623 H       1  LIG1        0.0660
     27 H           0.0402    9.4100   -0.9172 H       1  LIG1        0.0660
     28 C          -2.1543    7.3663    0.3308 C.ar    1  LIG1        0.1934
     29 C          -3.4331    6.8815    0.2976 C.ar    1  LIG1        0.1159
     30 C          -4.2753    8.0433    0.1463 C.ar    1  LIG1        0.1849
     31 C          -3.4414    9.1232    0.1033 C.ar    1  LIG1        0.2146
     32 O          -2.1548    8.7035    0.2105 O.2     1  LIG1       -0.4434
     33 C          -3.8802    5.5276    0.3813 C.1     1  LIG1       -0.0620
     34 C          -4.2742    4.3955    0.4493 C.1     1  LIG1       -0.1137
     35 H          -4.6232    3.3913    0.5158 H       1  LIG1        0.1232
     36 O          -5.6184    7.9907    0.0529 O.3     1  LIG1       -0.4901
     37 C          -6.1457    8.4252   -1.2033 C.3     1  LIG1        0.0790
     38 H          -7.2204    8.2805   -1.1386 H       1  LIG1        0.0660
     39 H          -5.9229    9.4802   -1.3663 H       1  LIG1        0.0660
     40 H          -5.7256    7.8161   -2.0058 H       1  LIG1        0.0660
     41 C          -3.6529   10.5521   -0.0302 C.ar    1  LIG1        0.1924
     42 C          -4.7158   11.3581    0.2713 C.ar    1  LIG1        0.1152
     43 C          -4.3031   12.6856   -0.1219 C.ar    1  LIG1        0.1737
     44 C          -3.0401   12.5745   -0.6068 C.ar    1  LIG1        0.1355
     45 O          -2.6494   11.2725   -0.5549 O.2     1  LIG1       -0.4547
     46 H          -2.3288   13.2768   -0.9988 H       1  LIG1        0.1068
     47 C          -5.9495   10.9938    0.8897 C.1     1  LIG1       -0.0621
     48 C          -6.9850   10.6810    1.4117 C.1     1  LIG1       -0.1137
     49 H          -7.8947   10.3959    1.8865 H       1  LIG1        0.1232
     50 O          -5.0952   13.7620    0.0199 O.3     1  LIG1       -0.4907
     51 C          -4.5089   14.9876   -0.3812 C.3     1  LIG1        0.0790
     52 H          -5.2550   15.7563   -0.2036 H       1  LIG1        0.0660
     53 H          -3.6133   15.1886    0.2130 H       1  LIG1        0.0660
     54 H          -4.2510   14.9524   -1.4430 H       1  LIG1        0.0660
@<TRIPOS>BOND
     1    40    37    1
     2    54    51    1
     3    39    37    1
     4    37    38    1
     5    37    36    1
     6     9     8    1
     7    46    44    1
     8    26    24    1
     9    27    24    1
    10     8     7    3
    11    10     3    1
    12    10    11    1
    13    44    45   ar
    14    44    43   ar
    15    45    41   ar
    16    12    11    1
    17     7     2    1
    18    51    52    1
    19    51    50    1
    20    51    53    1
    21    24    25    1
    22    24    23    1
    23     3     2   ar
    24     3     4   ar
    25    43    50    1
    26    43    42   ar
    27     2     1   ar
    28    41    31    1
    29    41    42   ar
    30    14    11    1
    31    11    13    1
    32    36    30    1
    33    31    30   ar
    34    31    32   ar
    35    30    29   ar
    36    32    28   ar
    37    42    47    1
    38     4    15    1
    39     4     5   ar
    40    19    15   ar
    41    19    18   ar
    42    29    28   ar
    43    29    33    1
    44    28    18    1
    45    33    34    3
    46    15    16   ar
    47     1     5   ar
    48     1     6    1
    49    18    17   ar
    50    34    35    1
    51    16    17   ar
    52    16    20    1
    53    17    23    1
    54    20    21    3
    55    47    48    3
    56    21    22    1
    57    48    49    1
