@<TRIPOS>MOLECULE
mol_data/opt/m06hf/geoms/mol2/12fa12fa-12fa-12fa.out
 34 37 0 0 0
SMALL
GASTEIGER

@<TRIPOS>ATOM
      1 C          -0.1242    1.7500   -0.0001 C.ar    1  LIG1        0.1340
      2 C           1.2222    1.6213    0.0002 C.ar    1  LIG1        0.1551
      3 C           1.7818    2.9499    0.0003 C.ar    1  LIG1        0.0290
      4 C           0.7096    3.7822   -0.0000 C.ar    1  LIG1        0.1770
      5 O          -0.4444    3.0779   -0.0002 O.2     1  LIG1       -0.4560
      6 H          -0.9305    1.0417   -0.0002 H       1  LIG1        0.1068
      7 O           1.8889    0.4379    0.0004 O.3     1  LIG1       -0.5036
      8 H           2.8381    0.5931    0.0007 H       1  LIG1        0.2923
      9 H           2.8181    3.2442    0.0005 H       1  LIG1        0.0693
     10 C           0.5513    5.2173   -0.0001 C.ar    1  LIG1        0.2119
     11 C          -0.5772    5.9817   -0.0004 C.ar    1  LIG1        0.1665
     12 C          -0.1448    7.3454   -0.0004 C.ar    1  LIG1        0.0298
     13 C           1.2216    7.2941   -0.0002 C.ar    1  LIG1        0.1780
     14 O           1.6461    6.0169    0.0000 O.2     1  LIG1       -0.4447
     15 O          -1.8661    5.5830   -0.0006 O.3     1  LIG1       -0.5031
     16 H          -1.8968    4.6168   -0.0006 H       1  LIG1        0.2923
     17 H          -0.8012    8.1980   -0.0007 H       1  LIG1        0.0693
     18 C           2.2527    8.3135   -0.0000 C.ar    1  LIG1        0.2119
     19 C           2.2137    9.6803    0.0001 C.ar    1  LIG1        0.1665
     20 C           3.5671   10.1365    0.0001 C.ar    1  LIG1        0.0298
     21 C           4.3221    9.0032   -0.0001 C.ar    1  LIG1        0.1780
     22 O           3.5494    7.9058   -0.0001 O.2     1  LIG1       -0.4447
     23 O           1.1527   10.5190    0.0003 O.3     1  LIG1       -0.5031
     24 H           0.3245   10.0313    0.0005 H       1  LIG1        0.2923
     25 H           3.9099   11.1557    0.0001 H       1  LIG1        0.0693
     26 C           5.7582    8.8180   -0.0002 C.ar    1  LIG1        0.2109
     27 C           6.5674    7.7220   -0.0003 C.ar    1  LIG1        0.1657
     28 C           7.9190    8.2135   -0.0004 C.ar    1  LIG1        0.0185
     29 C           7.8107    9.5650   -0.0002 C.ar    1  LIG1        0.0964
     30 O           6.5226    9.9398   -0.0002 O.2     1  LIG1       -0.4560
     31 H           8.5414   10.3543   -0.0002 H       1  LIG1        0.1031
     32 O           6.1447    6.4359   -0.0004 O.3     1  LIG1       -0.5031
     33 H           6.9025    5.8432   -0.0005 H       1  LIG1        0.2923
     34 H           8.8274    7.6345   -0.0005 H       1  LIG1        0.0686
@<TRIPOS>BOND
     1    17    12    1
     2    15    16    1
     3    15    11    1
     4    34    28    1
     5    33    32    1
     6    12    11   ar
     7    12    13   ar
     8    28    27   ar
     9    28    29   ar
    10    11    10   ar
    11    32    27    1
    12    27    26   ar
    13     5     1   ar
    14     5     4   ar
    15     6     1    1
    16    29    31    1
    17    29    30   ar
    18    26    30   ar
    19    26    21    1
    20    13    18    1
    21    13    14   ar
    22    22    21   ar
    23    22    18   ar
    24    10     4    1
    25    10    14   ar
    26    21    20   ar
    27     1     2   ar
    28    18    19   ar
    29     4     3   ar
    30    20    19   ar
    31    20    25    1
    32    19    23    1
    33     2     3   ar
    34     2     7    1
    35     3     9    1
    36    23    24    1
    37     7     8    1
