@<TRIPOS>MOLECULE
mol_data/opt/m06hf/geoms/mol2/12fa12ld12ee4fh-.out
 46 49 0 0 0
SMALL
GASTEIGER

@<TRIPOS>ATOM
      1 C           0.7620    1.5874    1.5599 C.ar    1  LIG1        0.1340
      2 C           2.0230    1.6156    1.0590 C.ar    1  LIG1        0.1551
      3 C           2.1782    2.8771    0.3906 C.ar    1  LIG1        0.0290
      4 C           0.9806    3.5048    0.5516 C.ar    1  LIG1        0.1770
      5 O           0.1274    2.7448    1.2525 O.2     1  LIG1       -0.4560
      6 H           0.2157    0.8518    2.1193 H       1  LIG1        0.1068
      7 O           2.9394    0.6209    1.1962 O.3     1  LIG1       -0.5036
      8 H           3.7028    0.7983    0.6388 H       1  LIG1        0.2923
      9 H           3.0328    3.2642   -0.1393 H       1  LIG1        0.0693
     10 C           0.5401    4.8181    0.1200 C.ar    1  LIG1        0.2135
     11 C           1.2378    5.8369   -0.4501 C.ar    1  LIG1        0.1869
     12 C           0.2870    6.8940   -0.6787 C.ar    1  LIG1        0.1428
     13 C          -0.9116    6.4205   -0.2162 C.ar    1  LIG1        0.1930
     14 O          -0.7572    5.1728    0.2534 O.2     1  LIG1       -0.4434
     15 O           2.5538    5.8326   -0.7579 O.3     1  LIG1       -0.4900
     16 C           3.3390    6.7020    0.0693 C.3     1  LIG1        0.0790
     17 H           4.3630    6.6014   -0.2790 H       1  LIG1        0.0660
     18 H           3.0055    7.7337   -0.0458 H       1  LIG1        0.0660
     19 H           3.2551    6.3876    1.1107 H       1  LIG1        0.0660
     20 N           0.8527    9.1013   -1.8846 N.1     1  LIG1       -0.1906
     21 C           0.5687    8.1297   -1.3434 C.1     1  LIG1        0.1068
     22 C          -2.2372    7.0059   -0.1326 C.ar    1  LIG1        0.1885
     23 C          -2.6635    8.2863    0.0678 C.ar    1  LIG1        0.0895
     24 C          -4.1076    8.2192    0.0611 C.ar    1  LIG1        0.0866
     25 C          -4.4230    6.9003   -0.1196 C.ar    1  LIG1        0.1559
     26 O          -3.2912    6.1752   -0.2439 O.2     1  LIG1       -0.4490
     27 C          -1.8572    9.4453    0.2777 C.1     1  LIG1       -0.0645
     28 C          -1.1702   10.4135    0.4550 C.1     1  LIG1       -0.1138
     29 H          -0.5499   11.2686    0.5934 H       1  LIG1        0.1232
     30 C          -4.9861    9.3419    0.1615 C.1     1  LIG1       -0.0646
     31 C          -5.6888   10.3132    0.2210 C.1     1  LIG1       -0.1138
     32 H          -6.3081   11.1781    0.2714 H       1  LIG1        0.1232
     33 C          -6.7762    6.4633    0.5719 C.ar    1  LIG1        0.1276
     34 C          -7.9660    5.7621    0.3957 C.ar    1  LIG1       -0.0177
     35 C          -5.6913    6.1694   -0.2570 C.ar    1  LIG1        0.0616
     36 C          -8.0724    4.7797   -0.5790 C.ar    1  LIG1       -0.0376
     37 H          -8.8112    5.9762    1.0392 H       1  LIG1        0.0655
     38 C          -5.7956    5.1639   -1.2192 C.ar    1  LIG1       -0.0268
     39 C          -6.9849    4.4594   -1.3987 C.ar    1  LIG1        0.0254
     40 H          -4.9328    4.9396   -1.8346 H       1  LIG1        0.0644
     41 H          -9.0051    4.2413   -0.6944 H       1  LIG1        0.0637
     42 O          -6.6047    7.3914    1.5519 O.3     1  LIG1       -0.5061
     43 H          -7.4530    7.6916    1.8926 H       1  LIG1        0.2922
     44 N          -7.0735    3.4239   -2.3388 N.pl3   1  LIG1       -0.3579
     45 H          -8.0099    3.2476   -2.6754 H       1  LIG1        0.1423
     46 H          -6.4170    3.5006   -3.1035 H       1  LIG1        0.1423
@<TRIPOS>BOND
     1    46    44    1
     2    45    44    1
     3    44    39    1
     4    20    21    3
     5    40    38    1
     6    39    38   ar
     7    39    36   ar
     8    21    12    1
     9    38    35   ar
    10    15    11    1
    11    15    16    1
    12    41    36    1
    13    12    11   ar
    14    12    13   ar
    15    36    34   ar
    16    11    10   ar
    17    17    16    1
    18    35    25    1
    19    35    33   ar
    20    26    22   ar
    21    26    25   ar
    22    13    22    1
    23    13    14   ar
    24     9     3    1
    25    22    23   ar
    26    25    24   ar
    27    18    16    1
    28    24    23   ar
    29    24    30    1
    30    23    27    1
    31    16    19    1
    32    10    14   ar
    33    10     4    1
    34    30    31    3
    35    31    32    1
    36    27    28    3
    37     3     4   ar
    38     3     2   ar
    39    34    33   ar
    40    34    37    1
    41    28    29    1
    42     4     5   ar
    43    33    42    1
    44     8     7    1
    45     2     7    1
    46     2     1   ar
    47     5     1   ar
    48    42    43    1
    49     1     6    1
