@<TRIPOS>MOLECULE
mol_data/opt/m06hf/geoms/mol2/12fa12fa12fa12fa-.out
 34 37 0 0 0
SMALL
GASTEIGER

@<TRIPOS>ATOM
      1 C           0.5678    1.6501   -0.0000 C.ar    1  LIG1        0.1340
      2 C           1.9109    1.8323   -0.0000 C.ar    1  LIG1        0.1551
      3 C           2.1430    3.2507   -0.0000 C.ar    1  LIG1        0.0290
      4 C           0.8995    3.8070   -0.0000 C.ar    1  LIG1        0.1770
      5 O          -0.0507    2.8589   -0.0000 O.2     1  LIG1       -0.4560
      6 H          -0.0512    0.7731   -0.0000 H       1  LIG1        0.1068
      7 O           2.8350    0.8332   -0.0001 O.3     1  LIG1       -0.5036
      8 H           3.7201    1.2087   -0.0001 H       1  LIG1        0.2923
      9 H           3.0787    3.7848   -0.0000 H       1  LIG1        0.0693
     10 C           0.4758    5.1920   -0.0000 C.ar    1  LIG1        0.2119
     11 C           1.1924    6.3507   -0.0000 C.ar    1  LIG1        0.1665
     12 C           0.2504    7.4293   -0.0000 C.ar    1  LIG1        0.0298
     13 C          -0.9717    6.8242   -0.0001 C.ar    1  LIG1        0.1780
     14 O          -0.8490    5.4853   -0.0001 O.2     1  LIG1       -0.4447
     15 O           2.5497    6.4014    0.0000 O.3     1  LIG1       -0.5031
     16 H           2.8469    7.3166    0.0000 H       1  LIG1        0.2923
     17 H           0.4356    8.4906   -0.0000 H       1  LIG1        0.0693
     18 C          -2.3134    7.3593   -0.0002 C.ar    1  LIG1        0.2119
     19 C          -2.7962    8.6316   -0.0002 C.ar    1  LIG1        0.1665
     20 C          -4.2293    8.5446   -0.0003 C.ar    1  LIG1        0.0298
     21 C          -4.5022    7.2113   -0.0003 C.ar    1  LIG1        0.1780
     22 O          -3.3612    6.4900   -0.0002 O.2     1  LIG1       -0.4447
     23 O          -2.0108    9.7370   -0.0002 O.3     1  LIG1       -0.5031
     24 H          -2.5546   10.5310   -0.0003 H       1  LIG1        0.2923
     25 H          -4.9479    9.3462   -0.0004 H       1  LIG1        0.0693
     26 C          -5.7081    6.4206   -0.0003 C.ar    1  LIG1        0.2109
     27 C          -5.8664    5.0652   -0.0003 C.ar    1  LIG1        0.1657
     28 C          -7.2835    4.8293   -0.0004 C.ar    1  LIG1        0.0185
     29 C          -7.8532    6.0589   -0.0004 C.ar    1  LIG1        0.0964
     30 O          -6.9195    7.0299   -0.0005 O.2     1  LIG1       -0.4560
     31 H          -8.8783    6.3847   -0.0004 H       1  LIG1        0.1031
     32 O          -4.9319    4.0964   -0.0001 O.3     1  LIG1       -0.5031
     33 H          -4.0449    4.4823   -0.0000 H       1  LIG1        0.2923
     34 H          -7.7730    3.8713   -0.0005 H       1  LIG1        0.0686
@<TRIPOS>BOND
     1    34    28    1
     2    30    29   ar
     3    30    26   ar
     4    28    29   ar
     5    28    27   ar
     6    31    29    1
     7    25    20    1
     8    24    23    1
     9    26    21    1
    10    26    27   ar
    11    20    21   ar
    12    20    19   ar
    13    21    22   ar
    14    27    32    1
    15    19    23    1
    16    19    18   ar
    17    22    18   ar
    18    18    13    1
    19    32    33    1
    20     8     7    1
    21    13    14   ar
    22    13    12   ar
    23     7     2    1
    24    14    10   ar
    25    17    12    1
    26     5     4   ar
    27     5     1   ar
    28    12    11   ar
    29     2     3   ar
    30     2     1   ar
    31    10     4    1
    32    10    11   ar
    33     4     3   ar
    34     9     3    1
    35    11    15    1
    36     1     6    1
    37    15    16    1
