@<TRIPOS>MOLECULE
mol_data/opt/m06hf/geoms/mol2/12fa12fa-.out
 18 19 0 0 0
SMALL
GASTEIGER

@<TRIPOS>ATOM
      1 C           0.1836    1.8720   -0.0001 C.ar    1  LIG1        0.1340
      2 C           1.5356    1.8345    0.0000 C.ar    1  LIG1        0.1551
      3 C           2.0028    3.1988   -0.0000 C.ar    1  LIG1        0.0290
      4 C           0.8765    3.9564   -0.0001 C.ar    1  LIG1        0.1769
      5 O          -0.2257    3.1749   -0.0001 O.2     1  LIG1       -0.4560
      6 H          -0.5723    1.1107   -0.0001 H       1  LIG1        0.1068
      7 O           2.2809    0.6991    0.0001 O.3     1  LIG1       -0.5036
      8 H           3.2171    0.9194    0.0001 H       1  LIG1        0.2923
      9 H           3.0180    3.5589    0.0000 H       1  LIG1        0.0693
     10 C           0.6189    5.3797   -0.0001 C.ar    1  LIG1        0.2108
     11 C          -0.5604    6.0629   -0.0001 C.ar    1  LIG1        0.1657
     12 C          -0.2188    7.4579   -0.0001 C.ar    1  LIG1        0.0185
     13 C           1.1355    7.4949   -0.0002 C.ar    1  LIG1        0.0964
     14 O           1.6562    6.2525   -0.0001 O.2     1  LIG1       -0.4560
     15 H           1.8426    8.3054   -0.0003 H       1  LIG1        0.1031
     16 O          -1.8193    5.5765   -0.0001 O.3     1  LIG1       -0.5031
     17 H          -1.7864    4.6106   -0.0001 H       1  LIG1        0.2923
     18 H          -0.9051    8.2860   -0.0001 H       1  LIG1        0.0686
@<TRIPOS>BOND
     1    15    13    1
     2    13    14   ar
     3    13    12   ar
     4    14    10   ar
     5    12    11   ar
     6    12    18    1
     7    10    11   ar
     8    10     4    1
     9    11    16    1
    10    17    16    1
    11     5     4   ar
    12     5     1   ar
    13     4     3   ar
    14     6     1    1
    15     1     2   ar
    16     3     9    1
    17     3     2   ar
    18     2     7    1
    19     7     8    1
