@<TRIPOS>MOLECULE
mol_data/opt/m06hf/geoms/mol2/12fa12fa12fa.out
 26 28 0 0 0
SMALL
GASTEIGER

@<TRIPOS>ATOM
      1 C           0.4529    1.6446   -0.0001 C.ar    1  LIG1        0.1340
      2 C           1.7957    1.8314   -0.0000 C.ar    1  LIG1        0.1551
      3 C           2.0228    3.2498   -0.0000 C.ar    1  LIG1        0.0290
      4 C           0.7772    3.8022   -0.0001 C.ar    1  LIG1        0.1770
      5 O          -0.1693    2.8515   -0.0001 O.2     1  LIG1       -0.4560
      6 H          -0.1627    0.7650   -0.0001 H       1  LIG1        0.1068
      7 O           2.7238    0.8358    0.0000 O.3     1  LIG1       -0.5036
      8 H           3.6065    1.2175    0.0001 H       1  LIG1        0.2923
      9 H           2.9561    3.7878    0.0000 H       1  LIG1        0.0693
     10 C           0.3567    5.1885   -0.0001 C.ar    1  LIG1        0.2119
     11 C           1.0855    6.3394   -0.0000 C.ar    1  LIG1        0.1665
     12 C           0.1535    7.4257   -0.0001 C.ar    1  LIG1        0.0298
     13 C          -1.0741    6.8313   -0.0002 C.ar    1  LIG1        0.1780
     14 O          -0.9642    5.4932   -0.0002 O.2     1  LIG1       -0.4447
     15 O           2.4439    6.3736    0.0000 O.3     1  LIG1       -0.5031
     16 H           2.7529    7.2848    0.0001 H       1  LIG1        0.2923
     17 H           0.3445    8.4857   -0.0001 H       1  LIG1        0.0693
     18 C          -2.4034    7.4063   -0.0002 C.ar    1  LIG1        0.2109
     19 C          -2.8091    8.7062   -0.0002 C.ar    1  LIG1        0.1657
     20 C          -4.2443    8.6890   -0.0003 C.ar    1  LIG1        0.0185
     21 C          -4.5812    7.3742   -0.0002 C.ar    1  LIG1        0.0964
     22 O          -3.4878    6.5976   -0.0003 O.2     1  LIG1       -0.4560
     23 H          -5.5295    6.8671   -0.0002 H       1  LIG1        0.1031
     24 O          -1.9605    9.7677   -0.0002 O.3     1  LIG1       -0.5031
     25 H          -2.4572   10.5915   -0.0002 H       1  LIG1        0.2923
     26 H          -4.9147    9.5322   -0.0004 H       1  LIG1        0.0686
@<TRIPOS>BOND
     1    26    20    1
     2    20    19   ar
     3    20    21   ar
     4    22    21   ar
     5    22    18   ar
     6    25    24    1
     7    19    24    1
     8    19    18   ar
     9    21    23    1
    10    18    13    1
    11    14    13   ar
    12    14    10   ar
    13    13    12   ar
    14     5     1   ar
    15     5     4   ar
    16     6     1    1
    17    10     4    1
    18    10    11   ar
    19    12    17    1
    20    12    11   ar
    21     1     2   ar
    22     4     3   ar
    23    11    15    1
    24     2     3   ar
    25     2     7    1
    26     3     9    1
    27     7     8    1
    28    15    16    1
