@<TRIPOS>MOLECULE
mol_data/opt/m06hf/geoms/mol2/12fa12fa12fa-12fa-.out
 34 37 0 0 0
SMALL
GASTEIGER

@<TRIPOS>ATOM
      1 C           0.2019    1.7006   -0.1570 C.ar    1  LIG1        0.1340
      2 C           1.5512    1.7192   -0.0281 C.ar    1  LIG1        0.1551
      3 C           1.9456    3.0975    0.0788 C.ar    1  LIG1        0.0290
      4 C           0.7816    3.7990    0.0054 C.ar    1  LIG1        0.1770
      5 O          -0.2703    2.9749   -0.1382 O.2     1  LIG1       -0.4560
      6 H          -0.5102    0.9056   -0.2698 H       1  LIG1        0.1068
      7 O           2.3492    0.6183   -0.0229 O.3     1  LIG1       -0.5036
      8 H           3.2482    0.8659    0.2121 H       1  LIG1        0.2923
      9 H           2.9331    3.5126    0.1917 H       1  LIG1        0.0693
     10 C           0.5137    5.2202    0.0571 C.ar    1  LIG1        0.2119
     11 C           1.3273    6.2989    0.2157 C.ar    1  LIG1        0.1665
     12 C           0.4966    7.4700    0.1838 C.ar    1  LIG1        0.0298
     13 C          -0.7677    7.0003    0.0054 C.ar    1  LIG1        0.1780
     14 O          -0.7708    5.6516   -0.0751 O.2     1  LIG1       -0.4447
     15 O           2.6723    6.2146    0.3704 O.3     1  LIG1       -0.5031
     16 H           3.0503    7.0915    0.4873 H       1  LIG1        0.2923
     17 H           0.7891    8.5021    0.2796 H       1  LIG1        0.0693
     18 C          -2.0700    7.6083   -0.1083 C.ar    1  LIG1        0.2119
     19 C          -3.2959    7.0264   -0.2592 C.ar    1  LIG1        0.1665
     20 C          -4.2399    8.1014   -0.3493 C.ar    1  LIG1        0.0298
     21 C          -3.5028    9.2440   -0.2317 C.ar    1  LIG1        0.1780
     22 O          -2.1943    8.9585   -0.0812 O.2     1  LIG1       -0.4447
     23 O          -3.6120    5.7198   -0.3325 O.3     1  LIG1       -0.5031
     24 H          -2.8095    5.1817   -0.2835 H       1  LIG1        0.2923
     25 H          -5.2969    8.0196   -0.5395 H       1  LIG1        0.0693
     26 C          -3.9224   10.6312   -0.1795 C.ar    1  LIG1        0.2109
     27 C          -5.0516   11.1767    0.3522 C.ar    1  LIG1        0.1657
     28 C          -4.9774   12.5886    0.1127 C.ar    1  LIG1        0.0185
     29 C          -3.8013   12.7745   -0.5361 C.ar    1  LIG1        0.0964
     30 O          -3.1528   11.6107   -0.7164 O.2     1  LIG1       -0.4560
     31 H          -3.3118   13.6544   -0.9145 H       1  LIG1        0.1031
     32 O          -6.0625   10.5539    1.0010 O.3     1  LIG1       -0.5031
     33 H          -5.7803    9.6685    1.2651 H       1  LIG1        0.2923
     34 H          -5.7024   13.3295    0.3994 H       1  LIG1        0.0686
@<TRIPOS>BOND
     1    31    29    1
     2    30    29   ar
     3    30    26   ar
     4    25    20    1
     5    29    28   ar
     6    20    19   ar
     7    20    21   ar
     8    23    24    1
     9    23    19    1
    10     6     1    1
    11    19    18   ar
    12    21    26    1
    13    21    22   ar
    14    26    27   ar
    15     1     5   ar
    16     1     2   ar
    17     5     4   ar
    18    18    22   ar
    19    18    13    1
    20    14    13   ar
    21    14    10   ar
    22     2     7    1
    23     2     3   ar
    24     7     8    1
    25     4    10    1
    26     4     3   ar
    27    13    12   ar
    28    10    11   ar
    29     3     9    1
    30    28    27   ar
    31    28    34    1
    32    12    11   ar
    33    12    17    1
    34    11    15    1
    35    27    32    1
    36    15    16    1
    37    32    33    1
