@<TRIPOS>MOLECULE
mol_data/opt/m06hf/geoms/mol2/12fa13ee-12hh6fh12ii6fl4ea4di-.out
 98 105 0 0 0
SMALL
GASTEIGER

@<TRIPOS>ATOM
      1 C           0.5675    4.8101    4.8328 C.ar    1  LIG1        0.1339
      2 C           1.9225    4.7785    4.8635 C.ar    1  LIG1        0.1551
      3 C           2.3882    5.4469    3.6783 C.ar    1  LIG1        0.0273
      4 C           1.2593    5.8299    3.0249 C.ar    1  LIG1        0.1557
      5 O           0.1604    5.4528    3.7070 O.2     1  LIG1       -0.4577
      6 H          -0.1887    4.4360    5.4970 H       1  LIG1        0.1068
      7 O           2.6636    4.2060    5.8475 O.3     1  LIG1       -0.5036
      8 H           3.5998    4.3518    5.6835 H       1  LIG1        0.2923
      9 H           3.4013    5.6191    3.3556 H       1  LIG1        0.0693
     10 C           1.0207    6.5440    1.7830 C.ar    1  LIG1        0.0995
     11 C           1.8941    7.0555    0.8422 C.ar    1  LIG1        0.0690
     12 C           1.0933    7.6518   -0.1859 C.ar    1  LIG1        0.0691
     13 C          -0.2319    7.4898    0.1849 C.ar    1  LIG1        0.1013
     14 N          -0.2467    6.8179    1.3702 N.ar    1  LIG1       -0.3473
     15 H          -1.0789    6.5694    1.8886 H       1  LIG1        0.1662
     16 C           3.3204    6.9849    0.8799 C.1     1  LIG1       -0.0662
     17 C           4.5210    6.9276    0.9080 C.1     1  LIG1       -0.1138
     18 H           5.5854    6.8832    0.9157 H       1  LIG1        0.1232
     19 C           1.5825    8.2543   -1.3858 C.1     1  LIG1       -0.0662
     20 C           2.0072    8.7571   -2.3936 C.1     1  LIG1       -0.1138
     21 H           2.4042    9.1762   -3.2893 H       1  LIG1        0.1232
     22 C          -1.4734    7.8999   -0.4437 C.ar    1  LIG1        0.1754
     23 C          -1.8479    8.9309   -1.2504 C.ar    1  LIG1        0.0941
     24 C          -3.2761    8.7887   -1.4394 C.ar    1  LIG1        0.0928
     25 C          -3.6644    7.6947   -0.7278 C.ar    1  LIG1        0.1633
     26 O          -2.5767    7.1493   -0.1245 O.2     1  LIG1       -0.4493
     27 N          -1.1230   10.0090   -1.7428 N.pl3   1  LIG1       -0.3536
     28 H          -0.1180    9.8965   -1.6691 H       1  LIG1        0.1425
     29 H          -1.3880   10.2502   -2.6906 H       1  LIG1        0.1425
     30 N          -4.1057    9.6544   -2.1955 N.pl3   1  LIG1       -0.3536
     31 H          -3.8100   10.6200   -2.0835 H       1  LIG1        0.1425
     32 H          -4.1124    9.4135   -3.1828 H       1  LIG1        0.1425
     33 C          -5.0930    5.7173   -0.0534 C.ar    1  LIG1        0.2241
     34 C          -4.9658    7.0482   -0.5201 C.ar    1  LIG1        0.0822
     35 C          -6.1314    7.7514   -0.8030 C.ar    1  LIG1       -0.0230
     36 C          -7.3806    7.1582   -0.6211 C.ar    1  LIG1        0.0549
     37 C          -7.3849    5.8544   -0.1104 C.ar    1  LIG1        0.1306
     38 N          -6.2696    5.1667    0.1400 N.ar    1  LIG1       -0.2074
     39 H          -6.0454    8.7610   -1.1886 H       1  LIG1        0.0645
     40 O          -4.0399    4.9242    0.2226 O.3     1  LIG1       -0.4919
     41 H          -3.2088    5.3805    0.0479 H       1  LIG1        0.2938
     42 N          -8.5648    7.8481   -0.9102 N.pl3   1  LIG1       -0.3562
     43 H          -8.4491    8.5705   -1.6086 H       1  LIG1        0.1424
     44 H          -9.3392    7.2314   -1.1319 H       1  LIG1        0.1424
     45 C          -8.6398    5.1146    0.1347 C.ar    1  LIG1        0.1589
     46 C          -9.8293    5.4036    0.7346 C.ar    1  LIG1        0.0004
     47 C         -10.5882    4.1708    0.7271 C.ar    1  LIG1       -0.0010
     48 C          -9.7918    3.2459    0.1229 C.ar    1  LIG1        0.1441
     49 O          -8.6177    3.8138   -0.2419 O.2     1  LIG1       -0.4525
     50 C         -10.2518    6.6839    1.4116 C.3     1  LIG1       -0.0358
     51 H         -10.4649    6.4819    2.4627 H       1  LIG1        0.0279
     52 H         -11.1578    7.0819    0.9491 H       1  LIG1        0.0279
     53 H          -9.4668    7.4338    1.3415 H       1  LIG1        0.0279
     54 C         -11.9457    3.9655    1.3482 C.3     1  LIG1       -0.0358
     55 H         -12.1094    2.9084    1.5586 H       1  LIG1        0.0279
     56 H         -12.7393    4.3232    0.6883 H       1  LIG1        0.0279
     57 H         -12.0109    4.5177    2.2863 H       1  LIG1        0.0279
     58 C          -8.8376    0.9315   -0.0444 C.ar    1  LIG1        0.2240
     59 C          -9.9347    1.8123   -0.1529 C.ar    1  LIG1        0.0823
     60 C         -11.1699    1.2774   -0.5149 C.ar    1  LIG1       -0.0020
     61 C         -11.3026   -0.0932   -0.6958 C.ar    1  LIG1        0.1469
     62 C         -10.1726   -0.8916   -0.4740 C.ar    1  LIG1        0.1175
     63 N          -8.9811   -0.3728   -0.1980 N.ar    1  LIG1       -0.2087
     64 H         -12.0047    1.9463   -0.6798 H       1  LIG1        0.0663
     65 O          -7.5907    1.3353    0.2457 O.3     1  LIG1       -0.4919
     66 H          -7.4876    2.2959    0.1825 H       1  LIG1        0.2938
     67 O         -12.4349   -0.7035   -1.1251 O.3     1  LIG1       -0.4929
     68 C         -13.6621   -0.0484   -0.8709 C.3     1  LIG1        0.0789
     69 H         -14.4387   -0.7870   -1.0524 H       1  LIG1        0.0660
     70 H         -13.7053    0.2878    0.1686 H       1  LIG1        0.0660
     71 H         -13.7971    0.8003   -1.5468 H       1  LIG1        0.0660
     72 C         -11.2128   -3.1631    0.0080 C.ar    1  LIG1        0.0345
     73 C         -11.2116   -4.5495   -0.1705 C.ar    1  LIG1       -0.0379
     74 C         -10.2343   -2.3763   -0.6192 C.ar    1  LIG1        0.0195
     75 C         -10.2419   -5.1619   -0.9614 C.ar    1  LIG1       -0.0155
     76 H         -11.9783   -5.1383    0.3158 H       1  LIG1        0.0636
     77 C          -9.2442   -3.0012   -1.3759 C.ar    1  LIG1       -0.0507
     78 C          -9.2486   -4.3773   -1.5543 C.ar    1  LIG1       -0.0533
     79 H          -8.4658   -2.3873   -1.8090 H       1  LIG1        0.0625
     80 C         -12.2009   -2.5980    0.9001 C.1     1  LIG1       -0.0690
     81 C         -13.0164   -2.1970    1.6872 C.1     1  LIG1       -0.1139
     82 H         -13.7271   -1.8515    2.4011 H       1  LIG1        0.1232
     83 H          -8.4690   -4.8520   -2.1371 H       1  LIG1        0.0624
     84 C         -10.3602   -7.5683   -0.1589 C.ar    1  LIG1        0.0595
     85 C         -10.3504   -8.9405   -0.4230 C.ar    1  LIG1       -0.0435
     86 C         -10.2540   -6.6352   -1.1987 C.ar    1  LIG1       -0.0002
     87 C         -10.2322   -9.3926   -1.7280 C.ar    1  LIG1       -0.0576
     88 H         -10.4240   -9.6359    0.4022 H       1  LIG1        0.0631
     89 C         -10.1392   -7.1215   -2.5035 C.ar    1  LIG1       -0.0499
     90 C         -10.1265   -8.4853   -2.7862 C.ar    1  LIG1       -0.0498
     91 H         -10.0758   -6.4061   -3.3151 H       1  LIG1        0.0627
     92 H         -10.2206  -10.4568   -1.9294 H       1  LIG1        0.0621
     93 N         -10.5323   -6.8593    2.3342 N.1     1  LIG1       -0.1909
     94 C         -10.4511   -7.1459    1.2257 C.1     1  LIG1        0.0998
     95 C         -10.0291   -8.9837   -4.2158 C.3     1  LIG1       -0.0397
     96 H          -9.6778   -8.1926   -4.8766 H       1  LIG1        0.0278
     97 H         -11.0098   -9.3160   -4.5613 H       1  LIG1        0.0278
     98 H          -9.3396   -9.8259   -4.2771 H       1  LIG1        0.0278
@<TRIPOS>BOND
     1    96    95    1
     2    97    95    1
     3    98    95    1
     4    95    90    1
     5    91    89    1
     6    21    20    1
     7    32    30    1
     8    90    89   ar
     9    90    87   ar
    10    29    27    1
    11    89    86   ar
    12    20    19    3
    13    30    31    1
    14    30    24    1
    15    83    78    1
    16    92    87    1
    17    79    77    1
    18    27    28    1
    19    27    23    1
    20    87    85   ar
    21    43    42    1
    22    78    77   ar
    23    78    75   ar
    24    71    68    1
    25    24    23   ar
    26    24    25   ar
    27    19    12    1
    28    77    74   ar
    29    23    22   ar
    30    86    75    1
    31    86    84   ar
    32    39    35    1
    33    44    42    1
    34    67    68    1
    35    67    61    1
    36    69    68    1
    37    75    73   ar
    38    42    36    1
    39    68    70    1
    40    35    36   ar
    41    35    34   ar
    42    25    34    1
    43    25    26   ar
    44    61    60   ar
    45    61    62   ar
    46    64    60    1
    47    36    37   ar
    48    74    62    1
    49    74    72   ar
    50    34    33   ar
    51    60    59   ar
    52    62    63   ar
    53    22    26   ar
    54    22    13    1
    55    85    84   ar
    56    85    88    1
    57    49    48   ar
    58    49    45   ar
    59    63    58   ar
    60    12    13   ar
    61    12    11   ar
    62    73    72   ar
    63    73    76    1
    64    84    94    1
    65    59    58   ar
    66    59    48    1
    67    37    45    1
    68    37    38   ar
    69    33    38   ar
    70    33    40    1
    71    58    65    1
    72    72    80    1
    73    41    40    1
    74    48    47   ar
    75    45    46   ar
    76    66    65    1
    77    13    14   ar
    78    56    54    1
    79    47    46   ar
    80    47    54    1
    81    46    50    1
    82    11    16    1
    83    11    10   ar
    84    16    17    3
    85    80    81    3
    86    17    18    1
    87    52    50    1
    88    94    93    3
    89    53    50    1
    90    54    55    1
    91    54    57    1
    92    14    10   ar
    93    14    15    1
    94    50    51    1
    95    81    82    1
    96    10     4    1
    97     4     3   ar
    98     4     5   ar
    99     9     3    1
   100     3     2   ar
   101     5     1   ar
   102     1     2   ar
   103     1     6    1
   104     2     7    1
   105     8     7    1
