@<TRIPOS>MOLECULE
mol_data/opt/m06hf/geoms/mol2/12fa12fa-12fa.out
 26 28 0 0 0
SMALL
GASTEIGER

@<TRIPOS>ATOM
      1 C           0.1136    1.8069   -0.0000 C.ar    1  LIG1        0.1340
      2 C           1.4647    1.7436   -0.0001 C.ar    1  LIG1        0.1551
      3 C           1.9591    3.0975   -0.0001 C.ar    1  LIG1        0.0290
      4 C           0.8478    3.8772   -0.0000 C.ar    1  LIG1        0.1770
      5 O          -0.2705    3.1178   -0.0000 O.2     1  LIG1       -0.4560
      6 H          -0.6548    1.0581   -0.0000 H       1  LIG1        0.1068
      7 O           2.1880    0.5935   -0.0001 O.3     1  LIG1       -0.5036
      8 H           3.1280    0.7962   -0.0001 H       1  LIG1        0.2923
      9 H           2.9805    3.4403   -0.0001 H       1  LIG1        0.0693
     10 C           0.6250    5.3038   -0.0000 C.ar    1  LIG1        0.2119
     11 C          -0.5349    6.0218   -0.0000 C.ar    1  LIG1        0.1665
     12 C          -0.1596    7.4036   -0.0001 C.ar    1  LIG1        0.0298
     13 C           1.2023    7.4006   -0.0001 C.ar    1  LIG1        0.1780
     14 O           1.6887    6.1456   -0.0001 O.2     1  LIG1       -0.4447
     15 O          -1.8052    5.5657   -0.0000 O.3     1  LIG1       -0.5031
     16 H          -1.7941    4.5991    0.0000 H       1  LIG1        0.2923
     17 H          -0.8121    8.2588   -0.0001 H       1  LIG1        0.0693
     18 C           2.1647    8.4820   -0.0002 C.ar    1  LIG1        0.2109
     19 C           3.5261    8.5187   -0.0000 C.ar    1  LIG1        0.1657
     20 C           3.8955    9.9086   -0.0002 C.ar    1  LIG1        0.0185
     21 C           2.7246   10.5913   -0.0004 C.ar    1  LIG1        0.0964
     22 O           1.6797    9.7489   -0.0004 O.2     1  LIG1       -0.4560
     23 H           2.4949   11.6418   -0.0006 H       1  LIG1        0.1031
     24 O           4.3348    7.4318    0.0003 O.3     1  LIG1       -0.5031
     25 H           5.2566    7.7073    0.0004 H       1  LIG1        0.2923
     26 H           4.8898   10.3235   -0.0002 H       1  LIG1        0.0686
@<TRIPOS>BOND
     1    23    21    1
     2    22    21   ar
     3    22    18   ar
     4    21    20   ar
     5    20    26    1
     6    20    19   ar
     7    18    13    1
     8    18    19   ar
     9     8     7    1
    10    17    12    1
    11    13    12   ar
    12    13    14   ar
    13     7     2    1
    14    12    11   ar
    15     9     3    1
    16    14    10   ar
    17     2     3   ar
    18     2     1   ar
    19     3     4   ar
    20    11    10   ar
    21    11    15    1
    22    10     4    1
    23     4     5   ar
    24     1     6    1
    25     1     5   ar
    26    15    16    1
    27    19    24    1
    28    24    25    1
