@<TRIPOS>MOLECULE
mol_data/opt/m06hf/geoms/mol2/12fa12fa-12fa12fa.out
 34 37 0 0 0
SMALL
GASTEIGER

@<TRIPOS>ATOM
      1 C           0.1494    1.7235   -0.0001 C.ar    1  LIG1        0.1340
      2 C           1.5016    1.6811   -0.0001 C.ar    1  LIG1        0.1551
      3 C           1.9749    3.0420   -0.0001 C.ar    1  LIG1        0.0290
      4 C           0.8518    3.8052   -0.0001 C.ar    1  LIG1        0.1770
      5 O          -0.2549    3.0288   -0.0001 O.2     1  LIG1       -0.4560
      6 H          -0.6082    0.9633   -0.0001 H       1  LIG1        0.1068
      7 O           2.2460    0.5439   -0.0001 O.3     1  LIG1       -0.5036
      8 H           3.1813    0.7669   -0.0001 H       1  LIG1        0.2923
      9 H           2.9904    3.4008   -0.0000 H       1  LIG1        0.0693
     10 C           0.6116    5.2283   -0.0001 C.ar    1  LIG1        0.2119
     11 C          -0.5560    5.9350   -0.0001 C.ar    1  LIG1        0.1665
     12 C          -0.1951    7.3201   -0.0001 C.ar    1  LIG1        0.0298
     13 C           1.1679    7.3314   -0.0001 C.ar    1  LIG1        0.1780
     14 O           1.6670    6.0812   -0.0001 O.2     1  LIG1       -0.4447
     15 O          -1.8215    5.4657   -0.0001 O.3     1  LIG1       -0.5031
     16 H          -1.8010    4.4993   -0.0001 H       1  LIG1        0.2923
     17 H          -0.8544    8.1698   -0.0001 H       1  LIG1        0.0693
     18 C           2.1131    8.4243   -0.0001 C.ar    1  LIG1        0.2119
     19 C           3.4754    8.4859   -0.0000 C.ar    1  LIG1        0.1665
     20 C           3.8274    9.8758   -0.0001 C.ar    1  LIG1        0.0298
     21 C           2.6390   10.5430   -0.0001 C.ar    1  LIG1        0.1780
     22 O           1.6062    9.6848   -0.0002 O.2     1  LIG1       -0.4447
     23 O           4.3015    7.4129    0.0001 O.3     1  LIG1       -0.5031
     24 H           5.2176    7.7064    0.0001 H       1  LIG1        0.2923
     25 H           4.8084   10.3214   -0.0000 H       1  LIG1        0.0693
     26 C           2.3414   11.9602   -0.0002 C.ar    1  LIG1        0.2109
     27 C           3.1656   13.0442   -0.0002 C.ar    1  LIG1        0.1657
     28 C           2.3201   14.2038   -0.0004 C.ar    1  LIG1        0.0185
     29 C           1.0529   13.7170   -0.0003 C.ar    1  LIG1        0.0964
     30 O           1.0535   12.3755   -0.0003 O.2     1  LIG1       -0.4560
     31 H           0.0897   14.1963   -0.0003 H       1  LIG1        0.1031
     32 O           4.5212   12.9665   -0.0002 O.3     1  LIG1       -0.5031
     33 H           4.9063   13.8482   -0.0002 H       1  LIG1        0.2923
     34 H           2.6199   15.2386   -0.0004 H       1  LIG1        0.0686
@<TRIPOS>BOND
     1    34    28    1
     2    28    29   ar
     3    28    27   ar
     4    31    29    1
     5    30    29   ar
     6    30    26   ar
     7    27    26   ar
     8    27    32    1
     9    26    21    1
    10    33    32    1
    11    22    21   ar
    12    22    18   ar
    13    21    20   ar
    14    16    15    1
    15     8     7    1
    16    17    12    1
    17    15    11    1
    18    18    13    1
    19    18    19   ar
    20    12    11   ar
    21    12    13   ar
    22    11    10   ar
    23    13    14   ar
    24     5     4   ar
    25     5     1   ar
    26     7     2    1
    27    10    14   ar
    28    10     4    1
    29     2     1   ar
    30     2     3   ar
    31     4     3   ar
    32     6     1    1
    33     3     9    1
    34    20    25    1
    35    20    19   ar
    36    19    23    1
    37    23    24    1
