@<TRIPOS>MOLECULE
mol_data/opt/m06hf/geoms/mol2/12fa12fa.out
 18 19 0 0 0
SMALL
GASTEIGER

@<TRIPOS>ATOM
      1 C           0.2326    1.7892   -0.0001 C.ar    1  LIG1        0.1340
      2 C           1.5848    1.8828    0.0000 C.ar    1  LIG1        0.1551
      3 C           1.9085    3.2827    0.0000 C.ar    1  LIG1        0.0290
      4 C           0.7048    3.9193   -0.0001 C.ar    1  LIG1        0.1769
      5 O          -0.3055    3.0361   -0.0001 O.2     1  LIG1       -0.4560
      6 H          -0.4423    0.9543   -0.0001 H       1  LIG1        0.1068
      7 O           2.4431    0.8265    0.0001 O.3     1  LIG1       -0.5036
      8 H           3.3501    1.1465    0.0001 H       1  LIG1        0.2923
      9 H           2.8771    3.7541    0.0001 H       1  LIG1        0.0693
     10 C           0.3795    5.3332   -0.0001 C.ar    1  LIG1        0.2108
     11 C           1.1853    6.4297   -0.0001 C.ar    1  LIG1        0.1657
     12 C           0.3216    7.5764   -0.0002 C.ar    1  LIG1        0.0185
     13 C          -0.9374    7.0695   -0.0002 C.ar    1  LIG1        0.0964
     14 O          -0.9151    5.7275   -0.0002 O.2     1  LIG1       -0.4560
     15 H          -1.9077    7.5331   -0.0002 H       1  LIG1        0.1031
     16 O           2.5437    6.3735    0.0000 O.3     1  LIG1       -0.5031
     17 H           2.9146    7.2615    0.0000 H       1  LIG1        0.2923
     18 H           0.6031    8.6160   -0.0002 H       1  LIG1        0.0686
@<TRIPOS>BOND
     1    14    13   ar
     2    14    10   ar
     3    18    12    1
     4    12    13   ar
     5    12    11   ar
     6    15    13    1
     7     5     4   ar
     8     5     1   ar
     9    10    11   ar
    10    10     4    1
    11     6     1    1
    12    11    16    1
    13     4     3   ar
    14     1     2   ar
    15     2     3   ar
    16     2     7    1
    17    16    17    1
    18     3     9    1
    19     7     8    1
