@<TRIPOS>MOLECULE
mol_data/opt/m06hf/geoms/mol2/12fa12fa-12fa12fa-.out
 34 37 0 0 0
SMALL
GASTEIGER

@<TRIPOS>ATOM
      1 C           0.0760    1.7836   -0.0001 C.ar    1  LIG1        0.1340
      2 C           1.4270    1.7081   -0.0001 C.ar    1  LIG1        0.1551
      3 C           1.9327    3.0575   -0.0001 C.ar    1  LIG1        0.0290
      4 C           0.8279    3.8467   -0.0001 C.ar    1  LIG1        0.1770
      5 O          -0.2972    3.0981   -0.0001 O.2     1  LIG1       -0.4560
      6 H          -0.7002    1.0425   -0.0001 H       1  LIG1        0.1068
      7 O           2.1439    0.5542   -0.0001 O.3     1  LIG1       -0.5036
      8 H           3.0845    0.7542   -0.0001 H       1  LIG1        0.2923
      9 H           2.9563    3.3925   -0.0000 H       1  LIG1        0.0693
     10 C           0.6241    5.2759   -0.0001 C.ar    1  LIG1        0.2119
     11 C          -0.5242    6.0128   -0.0000 C.ar    1  LIG1        0.1665
     12 C          -0.1268    7.3881   -0.0000 C.ar    1  LIG1        0.0298
     13 C           1.2367    7.3648   -0.0001 C.ar    1  LIG1        0.1780
     14 O           1.7008    6.1013   -0.0001 O.2     1  LIG1       -0.4447
     15 O          -1.8022    5.5809   -0.0000 O.3     1  LIG1       -0.5031
     16 H          -1.8119    4.6144   -0.0000 H       1  LIG1        0.2923
     17 H          -0.7750    8.2463   -0.0000 H       1  LIG1        0.0693
     18 C           2.2202    8.4229   -0.0001 C.ar    1  LIG1        0.2119
     19 C           3.5822    8.4344   -0.0000 C.ar    1  LIG1        0.1665
     20 C           3.9943    9.8111   -0.0001 C.ar    1  LIG1        0.0298
     21 C           2.8418   10.5312   -0.0001 C.ar    1  LIG1        0.1780
     22 O           1.7662    9.7116   -0.0001 O.2     1  LIG1       -0.4447
     23 O           4.3669    7.3332    0.0000 O.3     1  LIG1       -0.5031
     24 H           5.2936    7.5912    0.0000 H       1  LIG1        0.2923
     25 H           4.9964   10.2054   -0.0001 H       1  LIG1        0.0693
     26 C           2.5438   11.9431   -0.0002 C.ar    1  LIG1        0.2109
     27 C           1.3475   12.5983   -0.0003 C.ar    1  LIG1        0.1657
     28 C           1.6565   14.0003   -0.0004 C.ar    1  LIG1        0.0185
     29 C           3.0098   14.0689   -0.0003 C.ar    1  LIG1        0.0964
     30 O           3.5608   12.8400   -0.0003 O.2     1  LIG1       -0.4560
     31 H           3.6948   14.8979   -0.0003 H       1  LIG1        0.1031
     32 O           0.1006   12.0857   -0.0002 O.3     1  LIG1       -0.5031
     33 H           0.1498   11.1207   -0.0002 H       1  LIG1        0.2923
     34 H           0.9514   14.8126   -0.0005 H       1  LIG1        0.0686
@<TRIPOS>BOND
     1    34    28    1
     2    28    29   ar
     3    28    27   ar
     4    31    29    1
     5    29    30   ar
     6    30    26   ar
     7    27    32    1
     8    27    26   ar
     9    32    33    1
    10    26    21    1
    11    21    22   ar
    12    21    20   ar
    13    22    18   ar
    14     8     7    1
    15     7     2    1
    16    20    25    1
    17    20    19   ar
    18     2     1   ar
    19     2     3   ar
    20     5     1   ar
    21     5     4   ar
    22     6     1    1
    23    18    13    1
    24    18    19   ar
    25     4     3   ar
    26     4    10    1
    27     3     9    1
    28    14    10   ar
    29    14    13   ar
    30    10    11   ar
    31    13    12   ar
    32    16    15    1
    33    11    12   ar
    34    11    15    1
    35    12    17    1
    36    19    23    1
    37    23    24    1
