@<TRIPOS>MOLECULE
mol_data/opt/m06hf/geoms/mol2/12fa12ae4ah-4dh-.out
 44 47 0 0 0
SMALL
GASTEIGER

@<TRIPOS>ATOM
      1 C           0.6195    1.7504   -0.7574 C.ar    1  LIG1        0.1340
      2 C           1.8862    1.7756   -0.2733 C.ar    1  LIG1        0.1551
      3 C           2.1337    3.1186    0.1719 C.ar    1  LIG1        0.0288
      4 C           0.9834    3.7968   -0.0938 C.ar    1  LIG1        0.1734
      5 O           0.0691    2.9836   -0.6447 O.2     1  LIG1       -0.4561
      6 H           0.0159    0.9699   -1.1803 H       1  LIG1        0.1068
      7 O           2.7223    0.7045   -0.2120 O.3     1  LIG1       -0.5036
      8 H           3.6227    1.0019   -0.0512 H       1  LIG1        0.2923
      9 H           3.0250    3.5120    0.6319 H       1  LIG1        0.0693
     10 C           0.6171    5.1937    0.0935 C.ar    1  LIG1        0.1719
     11 C           1.3453    6.3042    0.3730 C.ar    1  LIG1        0.0033
     12 C           0.3982    7.3853    0.4387 C.ar    1  LIG1        0.0711
     13 C          -0.8340    6.8358    0.1873 C.ar    1  LIG1        0.1512
     14 O          -0.6895    5.5109   -0.0166 O.2     1  LIG1       -0.4505
     15 H           2.4111    6.3781    0.5020 H       1  LIG1        0.0669
     16 C           0.7222    8.7584    0.6847 C.1     1  LIG1       -0.0658
     17 C           1.0262    9.9032    0.8883 C.1     1  LIG1       -0.1138
     18 H           1.2931   10.9200    1.0617 H       1  LIG1        0.1232
     19 C          -2.4807    8.6953    0.4361 C.ar    1  LIG1       -0.0504
     20 C          -3.7843    9.1521    0.3182 C.ar    1  LIG1       -0.0516
     21 C          -2.1984    7.3724    0.0861 C.ar    1  LIG1        0.0203
     22 C          -4.8140    8.3249   -0.1335 C.ar    1  LIG1        0.0041
     23 H          -4.0208   10.1727    0.5927 H       1  LIG1        0.0624
     24 C          -3.2123    6.5336   -0.3734 C.ar    1  LIG1       -0.0298
     25 C          -4.5242    6.9962   -0.4929 C.ar    1  LIG1        0.0331
     26 H          -2.9774    5.5121   -0.6456 H       1  LIG1        0.0643
     27 H          -1.6990    9.3478    0.7951 H       1  LIG1        0.0625
     28 N          -5.5293    6.1285   -0.9300 N.pl3   1  LIG1       -0.3575
     29 H          -6.3069    6.5862   -1.3886 H       1  LIG1        0.1423
     30 H          -5.1848    5.3398   -1.4602 H       1  LIG1        0.1423
     31 C          -6.5226   10.0186   -0.9176 C.ar    1  LIG1        0.0596
     32 C          -7.8352   10.4994   -0.9350 C.ar    1  LIG1       -0.0420
     33 C          -6.2108    8.8473   -0.2088 C.ar    1  LIG1        0.0030
     34 C          -8.8419    9.8284   -0.2663 C.ar    1  LIG1       -0.0398
     35 H          -8.0567   11.4038   -1.4856 H       1  LIG1        0.0631
     36 C          -7.2321    8.1757    0.4567 C.ar    1  LIG1       -0.0320
     37 C          -8.5521    8.6493    0.4397 C.ar    1  LIG1        0.0252
     38 H          -6.9899    7.2719    1.0036 H       1  LIG1        0.0642
     39 H          -9.8543   10.2117   -0.2809 H       1  LIG1        0.0636
     40 N          -4.7351   11.3488   -2.2473 N.1     1  LIG1       -0.1909
     41 C          -5.5107   10.7433   -1.6547 C.1     1  LIG1        0.0998
     42 N          -9.5366    7.9927    1.1453 N.pl3   1  LIG1       -0.3579
     43 H         -10.4946    8.1852    0.9002 H       1  LIG1        0.1423
     44 H          -9.3536    7.0415    1.4236 H       1  LIG1        0.1423
@<TRIPOS>BOND
     1    40    41    3
     2    41    31    1
     3    35    32    1
     4    30    28    1
     5    29    28    1
     6     6     1    1
     7    32    31   ar
     8    32    34   ar
     9    28    25    1
    10    31    33   ar
    11     1     5   ar
    12     1     2   ar
    13    26    24    1
    14     5     4   ar
    15    25    24   ar
    16    25    22   ar
    17    24    21   ar
    18    39    34    1
    19     2     7    1
    20     2     3   ar
    21    34    37   ar
    22     7     8    1
    23    33    22    1
    24    33    36   ar
    25    22    20   ar
    26     4    10    1
    27     4     3   ar
    28    14    10   ar
    29    14    13   ar
    30    21    13    1
    31    21    19   ar
    32    10    11   ar
    33     3     9    1
    34    13    12   ar
    35    20    19   ar
    36    20    23    1
    37    11    12   ar
    38    11    15    1
    39    19    27    1
    40    12    16    1
    41    37    36   ar
    42    37    42    1
    43    36    38    1
    44    16    17    3
    45    17    18    1
    46    43    42    1
    47    42    44    1
