@<TRIPOS>MOLECULE
mol_data/opt/m06hf/geoms/mol2/12fa12fa-12fa-12fa-.out
 34 37 0 0 0
SMALL
GASTEIGER

@<TRIPOS>ATOM
      1 C          -0.4312    1.7627    0.2174 C.ar    1  LIG1        0.1340
      2 C           0.8509    1.5655    0.6005 C.ar    1  LIG1        0.1551
      3 C           1.5152    2.8440    0.5482 C.ar    1  LIG1        0.0290
      4 C           0.5642    3.7171    0.1313 C.ar    1  LIG1        0.1770
      5 O          -0.6127    3.0846   -0.0726 O.2     1  LIG1       -0.4560
      6 H          -1.2730    1.1063    0.1065 H       1  LIG1        0.1068
      7 O           1.3774    0.3666    0.9584 O.3     1  LIG1       -0.5036
      8 H           2.2999    0.4696    1.2098 H       1  LIG1        0.2923
      9 H           2.5407    3.0774    0.7822 H       1  LIG1        0.0693
     10 C           0.5523    5.1381   -0.1325 C.ar    1  LIG1        0.2119
     11 C          -0.4581    5.9467   -0.5630 C.ar    1  LIG1        0.1665
     12 C           0.1019    7.2599   -0.6862 C.ar    1  LIG1        0.0298
     13 C           1.4058    7.1346   -0.3034 C.ar    1  LIG1        0.1780
     14 O           1.6869    5.8609    0.0357 O.2     1  LIG1       -0.4447
     15 O          -1.7360    5.6239   -0.8468 O.3     1  LIG1       -0.5031
     16 H          -1.8655    4.6774   -0.7001 H       1  LIG1        0.2923
     17 H          -0.3873    8.1406   -1.0675 H       1  LIG1        0.0693
     18 C           2.4377    8.1409   -0.1505 C.ar    1  LIG1        0.2119
     19 C           2.3246    9.4447    0.2299 C.ar    1  LIG1        0.1665
     20 C           3.6406   10.0053    0.1719 C.ar    1  LIG1        0.0298
     21 C           4.4489    8.9758   -0.2176 C.ar    1  LIG1        0.1780
     22 O           3.7386    7.8497   -0.4068 O.2     1  LIG1       -0.4447
     23 O           1.2125   10.1206    0.5969 O.3     1  LIG1       -0.5031
     24 H           0.5046    9.4940    0.7965 H       1  LIG1        0.2923
     25 H           3.9218   11.0307    0.3424 H       1  LIG1        0.0693
     26 C           5.8905    8.9277   -0.3703 C.ar    1  LIG1        0.2109
     27 C           6.8586    9.5812    0.3299 C.ar    1  LIG1        0.1657
     28 C           8.1142    9.1907   -0.2421 C.ar    1  LIG1        0.0185
     29 C           7.7940    8.3249   -1.2360 C.ar    1  LIG1        0.0964
     30 O           6.4638    8.1539   -1.3241 O.2     1  LIG1       -0.4560
     31 H           8.3913    7.7698   -1.9377 H       1  LIG1        0.1031
     32 O           6.7131   10.4287    1.3755 O.3     1  LIG1       -0.5031
     33 H           5.8307   10.3236    1.7544 H       1  LIG1        0.2923
     34 H           9.0914    9.5176    0.0662 H       1  LIG1        0.0686
@<TRIPOS>BOND
     1    31    29    1
     2    30    29   ar
     3    30    26   ar
     4    29    28   ar
     5    17    12    1
     6    15    16    1
     7    15    11    1
     8    12    11   ar
     9    12    13   ar
    10    11    10   ar
    11    22    21   ar
    12    22    18   ar
    13    26    21    1
    14    26    27   ar
    15    13    18    1
    16    13    14   ar
    17    28    34    1
    18    28    27   ar
    19    21    20   ar
    20    18    19   ar
    21    10    14   ar
    22    10     4    1
    23     5     4   ar
    24     5     1   ar
    25     6     1    1
    26     4     3   ar
    27    20    19   ar
    28    20    25    1
    29     1     2   ar
    30    19    23    1
    31    27    32    1
    32     3     2   ar
    33     3     9    1
    34    23    24    1
    35     2     7    1
    36     7     8    1
    37    32    33    1
