@<TRIPOS>MOLECULE
mol_data/opt/m06hf/geoms/mol2/12fa13id13he-13fi-.out
 46 49 0 0 0
SMALL
GASTEIGER

@<TRIPOS>ATOM
      1 C           0.4415    1.8676    0.9398 C.ar    1  LIG1        0.1339
      2 C           1.7220    1.7882    0.5085 C.ar    1  LIG1        0.1551
      3 C           2.0821    3.0901    0.0109 C.ar    1  LIG1        0.0272
      4 C           0.9732    3.8596    0.1878 C.ar    1  LIG1        0.1548
      5 O          -0.0191    3.1333    0.7421 O.2     1  LIG1       -0.4577
      6 H          -0.2282    1.1531    1.3790 H       1  LIG1        0.1068
      7 O           2.4883    0.6670    0.5446 O.3     1  LIG1       -0.5036
      8 H           3.3887    0.8729    0.2771 H       1  LIG1        0.2923
      9 H           3.0229    3.3935   -0.4155 H       1  LIG1        0.0693
     10 C           0.6616    5.2529   -0.0846 C.ar    1  LIG1        0.0869
     11 C           1.4372    6.2782   -0.5740 C.ar    1  LIG1       -0.0041
     12 C           0.5791    7.4180   -0.6178 C.ar    1  LIG1        0.0820
     13 C          -0.6754    7.0565   -0.1453 C.ar    1  LIG1        0.0831
     14 N          -0.5992    5.7381    0.1656 N.ar    1  LIG1       -0.3493
     15 H          -1.3242    5.2072    0.6254 H       1  LIG1        0.1661
     16 C           2.8829    6.2233   -0.9935 C.3     1  LIG1       -0.0364
     17 H           3.2147    7.2164   -1.2938 H       1  LIG1        0.0279
     18 H           3.0122    5.5437   -1.8379 H       1  LIG1        0.0279
     19 H           3.5074    5.8825   -0.1654 H       1  LIG1        0.0279
     20 N           1.1854    9.7773   -1.4660 N.1     1  LIG1       -0.1908
     21 C           0.9190    8.7204   -1.0984 C.1     1  LIG1        0.1016
     22 C          -1.8952    7.8240    0.0295 C.ar    1  LIG1        0.0868
     23 C          -2.0998    9.1054    0.5001 C.ar    1  LIG1        0.0679
     24 C          -3.5213    9.2952    0.5700 C.ar    1  LIG1        0.0727
     25 C          -4.1241    8.1318    0.1296 C.ar    1  LIG1        0.0844
     26 N          -3.1390    7.2428   -0.1766 N.ar    1  LIG1       -0.3493
     27 H          -3.2934    6.4510   -0.7833 H       1  LIG1        0.1661
     28 N          -1.1606   10.0234    0.9510 N.pl3   1  LIG1       -0.3553
     29 H          -0.3740   10.1736    0.3301 H       1  LIG1        0.1424
     30 H          -1.5941   10.8969    1.2238 H       1  LIG1        0.1424
     31 C          -4.1579   10.4736    1.0672 C.1     1  LIG1       -0.0656
     32 C          -4.6445   11.4846    1.5001 C.1     1  LIG1       -0.1138
     33 H          -5.0936   12.3744    1.8747 H       1  LIG1        0.1232
     34 C          -5.5302    7.7931   -0.0344 C.ar    1  LIG1        0.1064
     35 C          -6.5710    8.5000   -0.5903 C.ar    1  LIG1        0.1463
     36 C          -7.7448    7.6939   -0.5372 C.ar    1  LIG1        0.0090
     37 C          -7.3665    6.5109    0.0554 C.ar    1  LIG1        0.0087
     38 N          -6.0388    6.5675    0.3418 N.ar    1  LIG1       -0.3563
     39 H          -5.5272    5.8927    0.8859 H       1  LIG1        0.1655
     40 H          -7.9580    5.6435    0.2951 H       1  LIG1        0.0811
     41 O          -6.4454    9.7412   -1.1286 O.3     1  LIG1       -0.5043
     42 H          -7.3073   10.0632   -1.4102 H       1  LIG1        0.2922
     43 C          -9.1107    8.0796   -1.0480 C.3     1  LIG1       -0.0348
     44 H          -9.8179    7.2709   -0.8660 H       1  LIG1        0.0279
     45 H          -9.0895    8.2751   -2.1226 H       1  LIG1        0.0279
     46 H          -9.4827    8.9717   -0.5386 H       1  LIG1        0.0279
@<TRIPOS>BOND
     1    45    43    1
     2    18    16    1
     3    20    21    3
     4    42    41    1
     5    17    16    1
     6    41    35    1
     7    21    12    1
     8    43    44    1
     9    43    46    1
    10    43    36    1
    11    16    11    1
    12    16    19    1
    13    27    26    1
    14    12    11   ar
    15    12    13   ar
    16    35    36   ar
    17    35    34   ar
    18    11    10   ar
    19    36    37   ar
    20     9     3    1
    21    26    22   ar
    22    26    25   ar
    23    13    22    1
    24    13    14   ar
    25    10    14   ar
    26    10     4    1
    27    34    25    1
    28    34    38   ar
    29     3     4   ar
    30     3     2   ar
    31    22    23   ar
    32    37    40    1
    33    37    38   ar
    34    25    24   ar
    35    14    15    1
    36     4     5   ar
    37     8     7    1
    38    29    28    1
    39    38    39    1
    40    23    24   ar
    41    23    28    1
    42     2     7    1
    43     2     1   ar
    44    24    31    1
    45     5     1   ar
    46     1     6    1
    47    28    30    1
    48    31    32    3
    49    32    33    1
