@<TRIPOS>MOLECULE
mol_data/opt/m06hf/geoms/mol2/12fa12fa12fa12fa.out
 34 37 0 0 0
SMALL
GASTEIGER

@<TRIPOS>ATOM
      1 C           0.8794    1.6059   -0.0001 C.ar    1  LIG1        0.1340
      2 C           2.2066    1.8797   -0.0001 C.ar    1  LIG1        0.1551
      3 C           2.3407    3.3104   -0.0000 C.ar    1  LIG1        0.0290
      4 C           1.0615    3.7802   -0.0001 C.ar    1  LIG1        0.1770
      5 O           0.1794    2.7691   -0.0001 O.2     1  LIG1       -0.4560
      6 H           0.3218    0.6888   -0.0002 H       1  LIG1        0.1068
      7 O           3.1970    0.9454   -0.0001 O.3     1  LIG1       -0.5036
      8 H           4.0549    1.3800   -0.0001 H       1  LIG1        0.2923
      9 H           3.2367    3.9087    0.0000 H       1  LIG1        0.0693
     10 C           0.5490    5.1351   -0.0000 C.ar    1  LIG1        0.2119
     11 C           1.1973    6.3337    0.0000 C.ar    1  LIG1        0.1665
     12 C           0.1941    7.3538   -0.0000 C.ar    1  LIG1        0.0298
     13 C          -0.9913    6.6768   -0.0001 C.ar    1  LIG1        0.1780
     14 O          -0.7894    5.3492   -0.0001 O.2     1  LIG1       -0.4447
     15 O           2.5503    6.4622    0.0001 O.3     1  LIG1       -0.5031
     16 H           2.7932    7.3932    0.0001 H       1  LIG1        0.2923
     17 H           0.3128    8.4247    0.0000 H       1  LIG1        0.0693
     18 C          -2.3547    7.1581   -0.0001 C.ar    1  LIG1        0.2119
     19 C          -2.8525    8.4274   -0.0002 C.ar    1  LIG1        0.1665
     20 C          -4.2788    8.3180   -0.0003 C.ar    1  LIG1        0.0298
     21 C          -4.5256    6.9760   -0.0002 C.ar    1  LIG1        0.1780
     22 O          -3.3818    6.2739   -0.0002 O.2     1  LIG1       -0.4447
     23 O          -2.0803    9.5449   -0.0002 O.3     1  LIG1       -0.5031
     24 H          -2.6383   10.3288   -0.0003 H       1  LIG1        0.2923
     25 H          -5.0190    9.1001   -0.0003 H       1  LIG1        0.0693
     26 C          -5.7739    6.2427   -0.0003 C.ar    1  LIG1        0.2109
     27 C          -7.0630    6.6812   -0.0004 C.ar    1  LIG1        0.1657
     28 C          -7.8952    5.5121   -0.0004 C.ar    1  LIG1        0.0185
     29 C          -7.0310    4.4643   -0.0001 C.ar    1  LIG1        0.0964
     30 O          -5.7596    4.8901   -0.0002 O.2     1  LIG1       -0.4560
     31 H          -7.1795    3.3989    0.0000 H       1  LIG1        0.1031
     32 O          -7.4210    7.9920   -0.0004 O.3     1  LIG1       -0.5031
     33 H          -8.3795    8.0742   -0.0006 H       1  LIG1        0.2923
     34 H          -8.9711    5.4674   -0.0006 H       1  LIG1        0.0686
@<TRIPOS>BOND
     1    34    28    1
     2    33    32    1
     3    32    27    1
     4    28    27   ar
     5    28    29   ar
     6    27    26   ar
     7    25    20    1
     8    24    23    1
     9    26    30   ar
    10    26    21    1
    11    20    21   ar
    12    20    19   ar
    13    30    29   ar
    14    21    22   ar
    15    19    23    1
    16    19    18   ar
    17    22    18   ar
    18     6     1    1
    19    18    13    1
    20     5     1   ar
    21     5     4   ar
    22     1     2   ar
    23     7     2    1
    24     7     8    1
    25    14    13   ar
    26    14    10   ar
    27    29    31    1
    28     2     3   ar
    29    13    12   ar
    30     4    10    1
    31     4     3   ar
    32    10    11   ar
    33     3     9    1
    34    12    17    1
    35    12    11   ar
    36    11    15    1
    37    15    16    1
