@<TRIPOS>MOLECULE
mol_data/opt/m06hf/geoms/mol2/12fa12fa12fa-12fa.out
 34 37 0 0 0
SMALL
GASTEIGER

@<TRIPOS>ATOM
      1 C           0.2552    1.7037   -0.0001 C.ar    1  LIG1        0.1340
      2 C           1.6096    1.7517   -0.0000 C.ar    1  LIG1        0.1551
      3 C           1.9831    3.1398   -0.0000 C.ar    1  LIG1        0.0290
      4 C           0.8024    3.8180   -0.0001 C.ar    1  LIG1        0.1770
      5 O          -0.2396    2.9699   -0.0001 O.2     1  LIG1       -0.4560
      6 H          -0.4478    0.8921   -0.0001 H       1  LIG1        0.1068
      7 O           2.4290    0.6662    0.0000 O.3     1  LIG1       -0.5036
      8 H           3.3473    0.9517    0.0001 H       1  LIG1        0.2923
      9 H           2.9682    3.5753    0.0000 H       1  LIG1        0.0693
     10 C           0.5061    5.2344   -0.0001 C.ar    1  LIG1        0.2119
     11 C           1.3019    6.3374   -0.0001 C.ar    1  LIG1        0.1665
     12 C           0.4414    7.4874   -0.0001 C.ar    1  LIG1        0.0298
     13 C          -0.8220    6.9815   -0.0002 C.ar    1  LIG1        0.1780
     14 O          -0.7970    5.6305   -0.0002 O.2     1  LIG1       -0.4447
     15 O           2.6577    6.2874    0.0000 O.3     1  LIG1       -0.5031
     16 H           3.0246    7.1770    0.0001 H       1  LIG1        0.2923
     17 H           0.7115    8.5299   -0.0001 H       1  LIG1        0.0693
     18 C          -2.1421    7.5570   -0.0002 C.ar    1  LIG1        0.2119
     19 C          -3.3669    6.9507   -0.0002 C.ar    1  LIG1        0.1665
     20 C          -4.3385    8.0016   -0.0002 C.ar    1  LIG1        0.0298
     21 C          -3.6150    9.1565   -0.0002 C.ar    1  LIG1        0.1780
     22 O          -2.2926    8.9057   -0.0002 O.2     1  LIG1       -0.4447
     23 O          -3.6586    5.6354   -0.0002 O.3     1  LIG1       -0.5031
     24 H          -2.8424    5.1169   -0.0002 H       1  LIG1        0.2923
     25 H          -5.4090    7.9003   -0.0003 H       1  LIG1        0.0693
     26 C          -4.0273   10.5438   -0.0003 C.ar    1  LIG1        0.2109
     27 C          -3.3438   11.7226   -0.0002 C.ar    1  LIG1        0.1657
     28 C          -4.3328   12.7664   -0.0003 C.ar    1  LIG1        0.0185
     29 C          -5.5290   12.1283   -0.0003 C.ar    1  LIG1        0.0964
     30 O          -5.3601   10.7969   -0.0003 O.2     1  LIG1       -0.4560
     31 H          -6.5440   12.4842   -0.0003 H       1  LIG1        0.1031
     32 O          -1.9945   11.8451   -0.0002 O.3     1  LIG1       -0.5031
     33 H          -1.7528   12.7762   -0.0002 H       1  LIG1        0.2923
     34 H          -4.1636   13.8303   -0.0003 H       1  LIG1        0.0686
@<TRIPOS>BOND
     1    34    28    1
     2    30    29   ar
     3    30    26   ar
     4    28    29   ar
     5    28    27   ar
     6    31    29    1
     7    26    27   ar
     8    26    21    1
     9    25    20    1
    10    20    21   ar
    11    20    19   ar
    12    27    32    1
    13    21    22   ar
    14    22    18   ar
    15    33    32    1
    16    19    18   ar
    17    19    23    1
    18    18    13    1
    19    23    24    1
    20    13    14   ar
    21    13    12   ar
    22    14    10   ar
    23     5     1   ar
    24     5     4   ar
    25    12    17    1
    26    12    11   ar
    27     6     1    1
    28    10     4    1
    29    10    11   ar
    30     1     2   ar
    31     4     3   ar
    32    11    15    1
    33     2     3   ar
    34     2     7    1
    35     3     9    1
    36    15    16    1
    37     7     8    1
