@<TRIPOS>MOLECULE
mol_data/opt/m06hf/geoms/mol2/12fa13df13ef13ff-6fd12eh13la12la.out
 86 93 0 0 0
SMALL
GASTEIGER

@<TRIPOS>ATOM
      1 C           1.4950    2.3527    0.6349 C.ar    1  LIG1        0.1339
      2 C           2.7563    2.4716    0.1524 C.ar    1  LIG1        0.1551
      3 C           2.9254    3.8401   -0.2564 C.ar    1  LIG1        0.0273
      4 C           1.7351    4.4363    0.0170 C.ar    1  LIG1        0.1559
      5 O           0.8663    3.5556    0.5528 O.2     1  LIG1       -0.4577
      6 H           0.9452    1.5264    1.0443 H       1  LIG1        0.1068
      7 O           3.6597    1.4620    0.0873 O.3     1  LIG1       -0.5036
      8 H           4.4793    1.7733   -0.3090 H       1  LIG1        0.2923
      9 H           3.7959    4.3086   -0.6874 H       1  LIG1        0.0693
     10 C           1.2426    5.7915   -0.1562 C.ar    1  LIG1        0.1039
     11 C           1.8672    6.9262   -0.6513 C.ar    1  LIG1        0.1220
     12 C           0.9304    7.9951   -0.5769 C.ar    1  LIG1        0.1616
     13 C          -0.2333    7.4779   -0.0406 C.ar    1  LIG1        0.1080
     14 N          -0.0108    6.1375    0.2052 N.ar    1  LIG1       -0.3466
     15 H          -0.6374    5.5163    0.6955 H       1  LIG1        0.1662
     16 N           4.2870    6.9606   -1.5376 N.1     1  LIG1       -0.1907
     17 C           3.2061    6.9757   -1.1487 C.1     1  LIG1        0.1051
     18 O           1.1855    9.2354   -1.0283 O.3     1  LIG1       -0.5034
     19 H           0.6973    9.8963   -0.5129 H       1  LIG1        0.2923
     20 C          -1.5213    8.1117    0.1844 C.ar    1  LIG1        0.0862
     21 C          -1.8086    9.4008    0.6019 C.ar    1  LIG1        0.0935
     22 C          -3.2303    9.5388    0.5970 C.ar    1  LIG1        0.1596
     23 C          -3.7574    8.3316    0.1936 C.ar    1  LIG1        0.1103
     24 N          -2.7006    7.4721   -0.0501 N.ar    1  LIG1       -0.3478
     25 H          -2.7738    6.6290   -0.6000 H       1  LIG1        0.1661
     26 C          -0.8383   10.3791    0.9791 C.1     1  LIG1       -0.0638
     27 C           0.0116   11.1824    1.2687 C.1     1  LIG1       -0.1137
     28 H           0.7473   11.8971    1.5604 H       1  LIG1        0.1232
     29 O          -3.8780   10.6518    0.9875 O.3     1  LIG1       -0.5034
     30 H          -4.7438   10.7094    0.5517 H       1  LIG1        0.2923
     31 C          -5.1484    7.9531    0.0404 C.ar    1  LIG1        0.1127
     32 C          -6.2274    8.7503   -0.2289 C.ar    1  LIG1        0.1864
     33 C          -7.3907    7.9317   -0.2328 C.ar    1  LIG1        0.1850
     34 C          -7.0003    6.6459    0.0343 C.ar    1  LIG1        0.0979
     35 N          -5.6127    6.6552    0.1599 N.ar    1  LIG1       -0.3469
     36 H          -5.1367    5.9774    0.7421 H       1  LIG1        0.1662
     37 O          -6.1795   10.0878   -0.4910 O.3     1  LIG1       -0.5019
     38 H          -7.0666   10.4087   -0.6981 H       1  LIG1        0.2924
     39 O          -8.6184    8.4402   -0.5206 O.3     1  LIG1       -0.5019
     40 H          -9.2051    7.7482   -0.8508 H       1  LIG1        0.2924
     41 C          -7.4086    4.2462   -0.5902 C.ar    1  LIG1        0.2225
     42 C          -7.8082    5.4223    0.0969 C.ar    1  LIG1        0.0646
     43 C          -8.9982    5.3616    0.8009 C.ar    1  LIG1       -0.0278
     44 C          -9.7550    4.1848    0.7936 C.ar    1  LIG1        0.0816
     45 C          -9.2804    3.0934    0.0522 C.ar    1  LIG1        0.1284
     46 N          -8.1157    3.1408   -0.6011 N.ar    1  LIG1       -0.2080
     47 H          -9.3264    6.2116    1.3872 H       1  LIG1        0.0639
     48 O          -6.2582    4.2134   -1.2778 O.3     1  LIG1       -0.4919
     49 H          -5.8749    5.1009   -1.3283 H       1  LIG1        0.2937
     50 N         -11.8115    4.1269    2.3650 N.1     1  LIG1       -0.1908
     51 C         -10.9195    4.1175    1.6431 C.1     1  LIG1        0.1014
     52 C         -10.0161    1.8288   -0.0593 C.ar    1  LIG1        0.1724
     53 C         -11.3451    1.5201   -0.1908 C.ar    1  LIG1        0.0932
     54 C         -11.4218    0.0857   -0.3211 C.ar    1  LIG1        0.0889
     55 C         -10.1249   -0.3494   -0.2870 C.ar    1  LIG1        0.1772
     56 O          -9.2827    0.7085   -0.1289 O.2     1  LIG1       -0.4485
     57 C         -12.4738    2.3897   -0.2985 C.1     1  LIG1       -0.0639
     58 C         -13.4561    3.0728   -0.4133 C.1     1  LIG1       -0.1137
     59 H         -14.3209    3.6904   -0.4916 H       1  LIG1        0.1232
     60 N         -12.5949   -0.6414   -0.3889 N.pl3   1  LIG1       -0.3540
     61 H         -13.3735   -0.1175   -0.7649 H       1  LIG1        0.1425
     62 H         -12.4791   -1.5675   -0.7849 H       1  LIG1        0.1425
     63 C          -9.4974   -1.6517   -0.3620 C.ar    1  LIG1        0.1267
     64 C          -9.9689   -2.8922   -0.7555 C.ar    1  LIG1        0.1490
     65 C          -8.9166   -3.8330   -0.6217 C.ar    1  LIG1        0.0093
     66 C          -7.8242   -3.1207   -0.1575 C.ar    1  LIG1        0.0898
     67 N          -8.1863   -1.8223   -0.0069 N.ar    1  LIG1       -0.3463
     68 H          -7.5796   -1.0791    0.3065 H       1  LIG1        0.1662
     69 O         -11.2377   -3.0963   -1.2144 O.3     1  LIG1       -0.4929
     70 C         -11.5635   -4.4429   -1.5165 C.3     1  LIG1        0.0789
     71 H         -12.6008   -4.4408   -1.8410 H       1  LIG1        0.0660
     72 H         -10.9222   -4.8132   -2.3189 H       1  LIG1        0.0660
     73 H         -11.4498   -5.0676   -0.6280 H       1  LIG1        0.0660
     74 H          -8.9182   -4.8876   -0.8356 H       1  LIG1        0.0677
     75 C          -6.4791   -3.5652    0.1465 C.ar    1  LIG1        0.1923
     76 C          -5.8825   -4.7887    0.1059 C.ar    1  LIG1        0.1670
     77 C          -4.5174   -4.5955    0.5256 C.ar    1  LIG1        0.0187
     78 C          -4.4081   -3.2691    0.7844 C.ar    1  LIG1        0.0963
     79 O          -5.5773   -2.6405    0.5610 O.2     1  LIG1       -0.4577
     80 H          -3.5903   -2.6584    1.1218 H       1  LIG1        0.1031
     81 O          -6.5203   -5.9233   -0.2670 O.3     1  LIG1       -0.4913
     82 C          -5.7397   -7.1052   -0.2247 C.3     1  LIG1        0.0790
     83 H          -6.3947   -7.9130   -0.5389 H       1  LIG1        0.0660
     84 H          -4.8926   -7.0279   -0.9105 H       1  LIG1        0.0660
     85 H          -5.3825   -7.2911    0.7910 H       1  LIG1        0.0660
     86 H          -3.7388   -5.3324    0.6216 H       1  LIG1        0.0686
@<TRIPOS>BOND
     1    72    70    1
     2    71    70    1
     3    16    17    3
     4    70    69    1
     5    70    73    1
     6    49    48    1
     7    48    41    1
     8    69    64    1
     9    17    11    1
    10    18    12    1
    11    18    19    1
    12    84    82    1
    13    40    39    1
    14    74    65    1
    15    62    60    1
    16    61    60    1
    17    64    65   ar
    18    64    63   ar
    19    38    37    1
    20     9     3    1
    21    11    12   ar
    22    11    10   ar
    23    65    66   ar
    24    46    41   ar
    25    46    45   ar
    26    25    24    1
    27    41    42   ar
    28    12    13   ar
    29    83    82    1
    30    39    33    1
    31    59    58    1
    32    37    32    1
    33    58    57    3
    34    60    54    1
    35    63    55    1
    36    63    67   ar
    37    54    55   ar
    38    54    53   ar
    39     8     7    1
    40    57    53    1
    41    55    56   ar
    42    81    82    1
    43    81    76    1
    44     3     4   ar
    45     3     2   ar
    46    33    32   ar
    47    33    34   ar
    48    32    31   ar
    49    82    85    1
    50    53    52   ar
    51    66    67   ar
    52    66    75    1
    53    10     4    1
    54    10    14   ar
    55    56    52   ar
    56    52    45    1
    57    24    20   ar
    58    24    23   ar
    59    13    20    1
    60    13    14   ar
    61    67    68    1
    62     4     5   ar
    63    34    42    1
    64    34    35   ar
    65    31    35   ar
    66    31    23    1
    67    45    44   ar
    68     7     2    1
    69    42    43   ar
    70    76    75   ar
    71    76    77   ar
    72    75    79   ar
    73     2     1   ar
    74    35    36    1
    75    20    21   ar
    76    23    22   ar
    77    14    15    1
    78    77    86    1
    79    77    78   ar
    80    30    29    1
    81     5     1   ar
    82    79    78   ar
    83    22    21   ar
    84    22    29    1
    85    21    26    1
    86     1     6    1
    87    78    80    1
    88    44    43   ar
    89    44    51    1
    90    43    47    1
    91    26    27    3
    92    27    28    1
    93    51    50    3
