@<TRIPOS>MOLECULE
mol_data/opt/m06hf/geoms/mol2/12fa13fi-12ed-13di-.out
 44 47 0 0 0
SMALL
GASTEIGER

@<TRIPOS>ATOM
      1 C           0.5365    1.8337   -1.1675 C.ar    1  LIG1        0.1339
      2 C           1.8252    1.8228   -0.7496 C.ar    1  LIG1        0.1551
      3 C           2.1201    3.1399   -0.2513 C.ar    1  LIG1        0.0273
      4 C           0.9687    3.8433   -0.4153 C.ar    1  LIG1        0.1581
      5 O           0.0084    3.0717   -0.9618 O.2     1  LIG1       -0.4576
      6 H          -0.0979    1.0851   -1.6029 H       1  LIG1        0.1068
      7 O           2.6499    0.7434   -0.7964 O.3     1  LIG1       -0.5036
      8 H           3.5408    1.0006   -0.5415 H       1  LIG1        0.2923
      9 H           3.0355    3.5168    0.1733 H       1  LIG1        0.0693
     10 C           0.6138    5.2176   -0.1179 C.ar    1  LIG1        0.1249
     11 C           1.3864    6.2486    0.3775 C.ar    1  LIG1        0.1486
     12 C           0.5772    7.4037    0.5089 C.ar    1  LIG1        0.0200
     13 C          -0.6792    7.0259    0.0602 C.ar    1  LIG1        0.0904
     14 N          -0.6435    5.7073   -0.2963 N.ar    1  LIG1       -0.3462
     15 H          -1.4145    5.1759   -0.6724 H       1  LIG1        0.1662
     16 O           2.6978    6.1086    0.7418 O.3     1  LIG1       -0.5043
     17 H           3.2037    6.8635    0.4207 H       1  LIG1        0.2922
     18 C           1.0171    8.7172    1.1013 C.3     1  LIG1       -0.0341
     19 H           0.1690    9.2310    1.5532 H       1  LIG1        0.0279
     20 H           1.4408    9.3768    0.3420 H       1  LIG1        0.0279
     21 H           1.7657    8.5265    1.8720 H       1  LIG1        0.0279
     22 C          -1.9149    7.7801   -0.0206 C.ar    1  LIG1        0.1688
     23 C          -2.2066    9.0820   -0.3132 C.ar    1  LIG1        0.0899
     24 C          -3.6445    9.1963   -0.1944 C.ar    1  LIG1        0.1149
     25 C          -4.1077    7.9541    0.1136 C.ar    1  LIG1        0.1716
     26 O          -3.0656    7.1015    0.2266 O.2     1  LIG1       -0.4492
     27 C          -1.3131   10.1220   -0.7119 C.1     1  LIG1       -0.0645
     28 C          -0.5953   11.0177   -1.0648 C.1     1  LIG1       -0.1138
     29 H           0.0316   11.8167   -1.3876 H       1  LIG1        0.1232
     30 N          -5.0018   11.3811   -0.3760 N.1     1  LIG1       -0.1907
     31 C          -4.4087   10.4017   -0.3092 C.1     1  LIG1        0.1043
     32 C          -5.4322    7.4121    0.3627 C.ar    1  LIG1        0.1013
     33 C          -6.6664    7.7183   -0.1836 C.ar    1  LIG1        0.0829
     34 C          -7.6423    6.8792    0.4320 C.ar    1  LIG1       -0.0151
     35 C          -6.9542    6.0911    1.3218 C.ar    1  LIG1        0.0064
     36 N          -5.6294    6.4190    1.2679 N.ar    1  LIG1       -0.3569
     37 H          -4.8908    6.0097    1.8204 H       1  LIG1        0.1655
     38 H          -7.3137    5.3240    1.9862 H       1  LIG1        0.0810
     39 N          -7.1389    9.3695   -2.1114 N.1     1  LIG1       -0.1908
     40 C          -6.9160    8.6482   -1.2463 C.1     1  LIG1        0.1016
     41 C          -9.1189    6.8744    0.1317 C.3     1  LIG1       -0.0371
     42 H          -9.6251    6.1380    0.7546 H       1  LIG1        0.0278
     43 H          -9.2899    6.6287   -0.9170 H       1  LIG1        0.0278
     44 H          -9.5460    7.8584    0.3277 H       1  LIG1        0.0278
@<TRIPOS>BOND
     1    39    40    3
     2     6     1    1
     3    29    28    1
     4    40    33    1
     5     1     5   ar
     6     1     2   ar
     7    28    27    3
     8     5     4   ar
     9    43    41    1
    10     7     2    1
    11     7     8    1
    12     2     3   ar
    13    27    23    1
    14    15    14    1
    15     4     3   ar
    16     4    10    1
    17    30    31    3
    18    23    24   ar
    19    23    22   ar
    20    31    24    1
    21    14    10   ar
    22    14    13   ar
    23     3     9    1
    24    24    25   ar
    25    33    32   ar
    26    33    34   ar
    27    10    11   ar
    28    22    13    1
    29    22    26   ar
    30    13    12   ar
    31    25    26   ar
    32    25    32    1
    33    41    44    1
    34    41    34    1
    35    41    42    1
    36    20    18    1
    37    32    36   ar
    38    11    12   ar
    39    11    16    1
    40    17    16    1
    41    34    35   ar
    42    12    18    1
    43    18    19    1
    44    18    21    1
    45    36    35   ar
    46    36    37    1
    47    35    38    1
