@<TRIPOS>MOLECULE
mol_data/opt/m06hf/geoms/mol2/12fd12hh13aa-6ih-.out
 44 47 0 0 0
SMALL
GASTEIGER

@<TRIPOS>ATOM
      1 C           0.4544    1.7921   -1.1915 C.ar    1  LIG1        0.1354
      2 C           1.7629    1.7690   -0.8618 C.ar    1  LIG1        0.1729
      3 C           2.0890    3.1050   -0.4191 C.ar    1  LIG1        0.1418
      4 C           0.9317    3.8396   -0.5337 C.ar    1  LIG1        0.1926
      5 O          -0.0418    3.0491   -0.9919 O.2     1  LIG1       -0.4547
      6 H          -0.2229    1.0425   -1.5524 H       1  LIG1        0.1068
      7 O           2.5932    0.7039   -0.9058 O.3     1  LIG1       -0.5028
      8 H           3.4988    0.9753   -0.7172 H       1  LIG1        0.2923
      9 N           4.3782    3.8185    0.5162 N.1     1  LIG1       -0.1906
     10 C           3.3478    3.5169    0.1020 C.1     1  LIG1        0.1068
     11 C           0.6170    5.2207   -0.2883 C.ar    1  LIG1        0.1944
     12 C           1.3666    6.3641   -0.1643 C.ar    1  LIG1        0.0958
     13 C           0.4132    7.4336    0.0207 C.ar    1  LIG1        0.0942
     14 C          -0.8215    6.8603   -0.0181 C.ar    1  LIG1        0.1743
     15 O          -0.7190    5.5329   -0.1950 O.2     1  LIG1       -0.4464
     16 N           2.7041    6.6173   -0.2592 N.pl3   1  LIG1       -0.3535
     17 H           3.3710    5.9042   -0.0061 H       1  LIG1        0.1425
     18 H           2.9374    7.5627    0.0175 H       1  LIG1        0.1425
     19 N           0.8181    8.7795    0.2032 N.pl3   1  LIG1       -0.3535
     20 H           0.5489    9.3709   -0.5769 H       1  LIG1        0.1425
     21 H           0.4586    9.1728    1.0669 H       1  LIG1        0.1425
     22 C          -2.1624    7.4031    0.0958 C.ar    1  LIG1        0.0845
     23 C          -2.6259    8.6961    0.2559 C.ar    1  LIG1       -0.0327
     24 C          -4.0405    8.6258    0.2767 C.ar    1  LIG1       -0.0357
     25 C          -4.3956    7.2968    0.1320 C.ar    1  LIG1        0.0488
     26 N          -3.2442    6.5750    0.0273 N.ar    1  LIG1       -0.3517
     27 H          -3.1812    5.5801   -0.1335 H       1  LIG1        0.1660
     28 H          -2.0161    9.5786    0.3484 H       1  LIG1        0.0640
     29 H          -4.7337    9.4396    0.4106 H       1  LIG1        0.0639
     30 C          -6.0887    5.5457    0.8076 C.ar    1  LIG1        0.0474
     31 C          -5.7376    6.6800    0.0575 C.ar    1  LIG1        0.0210
     32 C          -6.6923    7.2646   -0.7717 C.ar    1  LIG1       -0.0287
     33 C          -7.9701    6.7162   -0.8524 C.ar    1  LIG1        0.0435
     34 C          -8.2151    5.5757   -0.0774 C.ar    1  LIG1        0.0485
     35 N          -7.3107    5.0220    0.7165 N.ar    1  LIG1       -0.2577
     36 H          -6.4267    8.1361   -1.3586 H       1  LIG1        0.0643
     37 H          -9.1931    5.1055   -0.1027 H       1  LIG1        0.0848
     38 C          -5.1385    4.8653    1.7752 C.3     1  LIG1       -0.0217
     39 H          -4.4859    5.5918    2.2595 H       1  LIG1        0.0293
     40 H          -4.5205    4.1212    1.2653 H       1  LIG1        0.0293
     41 H          -5.7398    4.3484    2.5200 H       1  LIG1        0.0293
     42 N          -8.9750    7.2891   -1.6286 N.pl3   1  LIG1       -0.3568
     43 H          -8.6524    7.8419   -2.4098 H       1  LIG1        0.1424
     44 H          -9.7252    6.6633   -1.8861 H       1  LIG1        0.1424
@<TRIPOS>BOND
     1    43    42    1
     2    44    42    1
     3    42    33    1
     4     6     1    1
     5    36    32    1
     6     1     5   ar
     7     1     2   ar
     8     5     4   ar
     9     7     2    1
    10     7     8    1
    11     2     3   ar
    12    33    32   ar
    13    33    34   ar
    14    32    31   ar
    15    20    19    1
    16     4     3   ar
    17     4    11    1
    18     3    10    1
    19    11    15   ar
    20    11    12   ar
    21    16    12    1
    22    16    17    1
    23    16    18    1
    24    15    14   ar
    25    12    13   ar
    26    27    26    1
    27    37    34    1
    28    34    35   ar
    29    14    13   ar
    30    14    22    1
    31    13    19    1
    32    26    22   ar
    33    26    25   ar
    34    31    25    1
    35    31    30   ar
    36    22    23   ar
    37    10     9    3
    38    25    24   ar
    39    19    21    1
    40    23    24   ar
    41    23    28    1
    42    24    29    1
    43    35    30   ar
    44    30    38    1
    45    40    38    1
    46    38    39    1
    47    38    41    1
