@<TRIPOS>MOLECULE
mol_data/opt/m06hf/geoms/mol2/12fd12eh-6ai4aa.out
 44 47 0 0 0
SMALL
GASTEIGER

@<TRIPOS>ATOM
      1 C           0.5571    1.6294   -0.4502 C.ar    1  LIG1        0.1354
      2 C           1.8074    1.7163    0.0625 C.ar    1  LIG1        0.1729
      3 C           2.0559    3.1205    0.2740 C.ar    1  LIG1        0.1418
      4 C           0.9231    3.7688   -0.1413 C.ar    1  LIG1        0.1920
      5 O           0.0319    2.8761   -0.5739 O.2     1  LIG1       -0.4547
      6 H          -0.0515    0.8005   -0.7576 H       1  LIG1        0.1068
      7 O           2.6482    0.6969    0.3327 O.3     1  LIG1       -0.5028
      8 H           3.4691    1.0316    0.7142 H       1  LIG1        0.2923
      9 N           4.2380    3.9106    1.3874 N.1     1  LIG1       -0.1906
     10 C           3.2473    3.6225    0.8828 C.1     1  LIG1        0.1068
     11 C           0.5476    5.1699   -0.1949 C.ar    1  LIG1        0.1891
     12 C           1.2819    6.3175   -0.3149 C.ar    1  LIG1        0.0947
     13 C           0.3250    7.3956   -0.3080 C.ar    1  LIG1        0.0874
     14 C          -0.9021    6.8094   -0.1838 C.ar    1  LIG1        0.1591
     15 O          -0.7581    5.4581   -0.1302 O.2     1  LIG1       -0.4485
     16 C           2.6913    6.4649   -0.4861 C.1     1  LIG1       -0.0639
     17 C           3.8736    6.6184   -0.6358 C.1     1  LIG1       -0.1137
     18 H           4.9282    6.7227   -0.7505 H       1  LIG1        0.1232
     19 N           0.6338    8.7552   -0.4065 N.pl3   1  LIG1       -0.3541
     20 H           1.6236    8.9000   -0.5719 H       1  LIG1        0.1425
     21 H           0.0786    9.2360   -1.1065 H       1  LIG1        0.1425
     22 C          -3.3690    6.5666   -0.4029 C.ar    1  LIG1        0.0390
     23 C          -2.2541    7.3593   -0.1150 C.ar    1  LIG1        0.0375
     24 C          -2.4814    8.6784    0.2747 C.ar    1  LIG1       -0.0446
     25 C          -3.7781    9.1834    0.3275 C.ar    1  LIG1       -0.0238
     26 C          -4.8224    8.3129   -0.0339 C.ar    1  LIG1        0.0739
     27 N          -4.6060    7.0336   -0.3590 N.ar    1  LIG1       -0.2540
     28 H          -1.6430    9.2994    0.5728 H       1  LIG1        0.0628
     29 H          -3.2448    5.5248   -0.6725 H       1  LIG1        0.0837
     30 C          -4.0008   10.6002    0.8283 C.3     1  LIG1       -0.0377
     31 H          -4.9757   10.6918    1.3048 H       1  LIG1        0.0278
     32 H          -3.9462   11.3197    0.0085 H       1  LIG1        0.0278
     33 H          -3.2246   10.8506    1.5514 H       1  LIG1        0.0278
     34 C          -6.6757    9.9491   -0.5740 C.ar    1  LIG1       -0.0526
     35 C          -8.0271   10.2859   -0.5895 C.ar    1  LIG1       -0.0611
     36 C          -6.2602    8.7258   -0.0451 C.ar    1  LIG1        0.0006
     37 C          -8.9720    9.4024   -0.0771 C.ar    1  LIG1       -0.0617
     38 H          -8.3398   11.2329   -1.0095 H       1  LIG1        0.0618
     39 C          -7.2164    7.8329    0.4458 C.ar    1  LIG1       -0.0526
     40 C          -8.5639    8.1728    0.4372 C.ar    1  LIG1       -0.0611
     41 H          -6.8851    6.8741    0.8219 H       1  LIG1        0.0624
     42 H         -10.0221    9.6648   -0.0869 H       1  LIG1        0.0618
     43 H          -5.9473   10.6265   -1.0009 H       1  LIG1        0.0624
     44 H          -9.2964    7.4785    0.8273 H       1  LIG1        0.0618
@<TRIPOS>BOND
     1    21    19    1
     2    38    35    1
     3    43    34    1
     4     6     1    1
     5    18    17    1
     6    29    22    1
     7    17    16    3
     8    35    34   ar
     9    35    37   ar
    10    34    36   ar
    11     5     1   ar
    12     5     4   ar
    13    20    19    1
    14    16    12    1
    15     1     2   ar
    16    19    13    1
    17    22    27   ar
    18    22    23   ar
    19    27    26   ar
    20    12    13   ar
    21    12    11   ar
    22    13    14   ar
    23    11     4    1
    24    11    15   ar
    25    14    15   ar
    26    14    23    1
    27     4     3   ar
    28    23    24   ar
    29    42    37    1
    30    37    40   ar
    31    36    26    1
    32    36    39   ar
    33    26    25   ar
    34    32    30    1
    35     2     3   ar
    36     2     7    1
    37     3    10    1
    38    24    25   ar
    39    24    28    1
    40    25    30    1
    41     7     8    1
    42    40    39   ar
    43    40    44    1
    44    39    41    1
    45    30    31    1
    46    30    33    1
    47    10     9    3
