@<TRIPOS>MOLECULE
mol_data/opt/m06hf/geoms/mol2/12fd4ll-12le6ef.out
 49 52 0 0 0
SMALL
GASTEIGER

@<TRIPOS>ATOM
      1 C           0.4125    1.6612   -0.6441 C.ar    1  LIG1        0.1338
      2 C           1.5765    1.6401    0.0482 C.ar    1  LIG1        0.1550
      3 C           1.8809    3.0002    0.3950 C.ar    1  LIG1        0.0259
      4 C           0.8627    3.7447   -0.1227 C.ar    1  LIG1        0.1419
      5 O          -0.0229    2.9406   -0.7482 O.2     1  LIG1       -0.4591
      6 H          -0.1848    0.8906   -1.0934 H       1  LIG1        0.1068
      7 O           2.2922    0.5205    0.3419 O.3     1  LIG1       -0.5036
      8 H           3.1014    0.7635    0.8012 H       1  LIG1        0.2923
      9 H           2.7263    3.3760    0.9430 H       1  LIG1        0.0692
     10 C           1.3852    6.1235    0.4720 C.ar    1  LIG1        0.1281
     11 C           1.0694    7.4772    0.4391 C.ar    1  LIG1       -0.0117
     12 C           0.5495    5.1791   -0.1390 C.ar    1  LIG1        0.0588
     13 C          -0.0885    7.9234   -0.2040 C.ar    1  LIG1       -0.0125
     14 H           1.7241    8.1986    0.9175 H       1  LIG1        0.0660
     15 C          -0.6052    5.6353   -0.7797 C.ar    1  LIG1       -0.0470
     16 C          -0.9242    6.9858   -0.8169 C.ar    1  LIG1       -0.0531
     17 H          -1.2476    4.9081   -1.2578 H       1  LIG1        0.0626
     18 O           2.5075    5.6728    1.0985 O.3     1  LIG1       -0.5060
     19 H           2.9776    6.4064    1.5095 H       1  LIG1        0.2922
     20 H          -1.8111    7.3207   -1.3388 H       1  LIG1        0.0624
     21 C           0.4987   10.3509   -0.5740 C.ar    1  LIG1        0.0332
     22 C           0.1053   11.6926   -0.5623 C.ar    1  LIG1       -0.0278
     23 C          -0.4365    9.3744   -0.2105 C.ar    1  LIG1        0.0064
     24 C          -1.1733   12.0960   -0.1881 C.ar    1  LIG1        0.0421
     25 H           0.8133   12.4474   -0.8796 H       1  LIG1        0.0644
     26 C          -1.7366    9.7650    0.1309 C.ar    1  LIG1       -0.0098
     27 C          -2.1128   11.0994    0.1433 C.ar    1  LIG1        0.1299
     28 H          -2.4377    8.9909    0.4123 H       1  LIG1        0.0661
     29 N           1.8135   10.0060   -0.9283 N.pl3   1  LIG1       -0.3575
     30 H           1.8861    9.0952   -1.3671 H       1  LIG1        0.1423
     31 H           2.2812   10.7184   -1.4735 H       1  LIG1        0.1423
     32 O          -3.3789   11.5146    0.4659 O.3     1  LIG1       -0.4944
     33 C          -4.2902   10.5476    0.9529 C.3     1  LIG1        0.0788
     34 H          -5.1919   11.0937    1.2179 H       1  LIG1        0.0660
     35 H          -4.5198    9.8079    0.1822 H       1  LIG1        0.0660
     36 H          -3.8840   10.0525    1.8375 H       1  LIG1        0.0660
     37 C          -1.5004   13.5342   -0.1608 C.ar    1  LIG1        0.0566
     38 C          -0.6707   14.6309    0.0322 C.ar    1  LIG1        0.0163
     39 C          -1.5046   15.7720   -0.0778 C.ar    1  LIG1        0.1375
     40 C          -2.7932   15.3583   -0.3243 C.ar    1  LIG1        0.0444
     41 N          -2.7672   13.9949   -0.3678 N.ar    1  LIG1       -0.3573
     42 H          -3.5600   13.3773   -0.4418 H       1  LIG1        0.1655
     43 H          -3.7021   15.9182   -0.4617 H       1  LIG1        0.0844
     44 C           0.7987   14.6997    0.3661 C.3     1  LIG1       -0.0342
     45 H           0.9849   15.6239    0.9130 H       1  LIG1        0.0279
     46 H           1.4193   14.7137   -0.5337 H       1  LIG1        0.0279
     47 H           1.0958   13.8527    0.9860 H       1  LIG1        0.0279
     48 O          -1.0214   17.0467    0.0592 O.3     1  LIG1       -0.5050
     49 H          -1.7513   17.6605    0.1843 H       1  LIG1        0.2922
@<TRIPOS>BOND
     1    31    29    1
     2    30    29    1
     3    20    16    1
     4    17    15    1
     5     6     1    1
     6    29    21    1
     7    25    22    1
     8    16    15   ar
     9    16    13   ar
    10    15    12   ar
    11     5     1   ar
    12     5     4   ar
    13     1     2   ar
    14    21    22   ar
    15    21    23   ar
    16    22    24   ar
    17    46    44    1
    18    43    40    1
    19    42    41    1
    20    41    40   ar
    21    41    37   ar
    22    40    39   ar
    23    23    13    1
    24    23    26   ar
    25    13    11   ar
    26    24    37    1
    27    24    27   ar
    28    37    38   ar
    29    12     4    1
    30    12    10   ar
    31     4     3   ar
    32    39    38   ar
    33    39    48    1
    34    38    44    1
    35     2     7    1
    36     2     3   ar
    37    48    49    1
    38    26    27   ar
    39    26    28    1
    40    27    32    1
    41    35    33    1
    42     7     8    1
    43    44    45    1
    44    44    47    1
    45     3     9    1
    46    11    10   ar
    47    11    14    1
    48    32    33    1
    49    10    18    1
    50    33    34    1
    51    33    36    1
    52    18    19    1
