@<TRIPOS>MOLECULE
mol_data/opt/m06hf/geoms/mol2/12fe4hh6il13df.out
 52 55 0 0 0
SMALL
GASTEIGER

@<TRIPOS>ATOM
      1 C           0.1252    1.5932   -0.2222 C.ar    1  LIG1        0.1351
      2 C           1.4713    1.5343   -0.1269 C.ar    1  LIG1        0.1708
      3 C           1.9300    2.8973    0.0036 C.ar    1  LIG1        0.1118
      4 C           0.8046    3.6800   -0.0117 C.ar    1  LIG1        0.1556
      5 O          -0.2720    2.8925   -0.1521 O.2     1  LIG1       -0.4579
      6 H          -0.6371    0.8450   -0.3284 H       1  LIG1        0.1068
      7 O           2.2534    0.4317   -0.1563 O.3     1  LIG1       -0.5028
      8 H           3.1776    0.6994   -0.0807 H       1  LIG1        0.2923
      9 C           3.3083    3.2683    0.0551 C.1     1  LIG1       -0.0622
     10 C           4.4833    3.5241    0.1135 C.1     1  LIG1       -0.1137
     11 H           5.5214    3.7638    0.1481 H       1  LIG1        0.1232
     12 C           1.2295    5.9860    0.9241 C.ar    1  LIG1        0.0361
     13 C           0.8931    7.3449    0.8790 C.ar    1  LIG1       -0.0308
     14 C           0.5627    5.1328    0.0282 C.ar    1  LIG1        0.0410
     15 C          -0.0702    7.8465    0.0129 C.ar    1  LIG1        0.0063
     16 H           1.3747    8.0306    1.5673 H       1  LIG1        0.0643
     17 C          -0.4026    5.6377   -0.8479 C.ar    1  LIG1       -0.0280
     18 C          -0.7334    6.9865   -0.8803 C.ar    1  LIG1        0.0332
     19 H          -0.8976    4.9466   -1.5197 H       1  LIG1        0.0644
     20 N           2.1118    5.5239    1.8958 N.pl3   1  LIG1       -0.3574
     21 H           2.6545    4.7045    1.6664 H       1  LIG1        0.1423
     22 H           2.6732    6.2454    2.3241 H       1  LIG1        0.1423
     23 N          -1.7274    7.4736   -1.7450 N.pl3   1  LIG1       -0.3575
     24 H          -1.5893    8.4387   -2.0197 H       1  LIG1        0.1423
     25 H          -1.8966    6.8815   -2.5469 H       1  LIG1        0.1423
     26 C          -1.6224    9.7789    0.4873 C.ar    1  LIG1        0.0469
     27 C          -0.3822    9.3083    0.0265 C.ar    1  LIG1        0.0085
     28 C           0.5746   10.2292   -0.4007 C.ar    1  LIG1       -0.0083
     29 C           0.2728   11.5868   -0.3739 C.ar    1  LIG1        0.1480
     30 C          -0.9961   11.9720    0.0763 C.ar    1  LIG1        0.1302
     31 N          -1.8932   11.0827    0.4957 N.ar    1  LIG1       -0.2461
     32 H           1.5361    9.8752   -0.7487 H       1  LIG1        0.0661
     33 C          -2.6875    8.8376    1.0075 C.3     1  LIG1       -0.0217
     34 H          -2.2785    8.2125    1.8028 H       1  LIG1        0.0293
     35 H          -3.0340    8.1885    0.2006 H       1  LIG1        0.0293
     36 H          -3.5128    9.4328    1.3920 H       1  LIG1        0.0293
     37 O           1.0936   12.5801   -0.7397 O.3     1  LIG1       -0.4929
     38 C           2.3769   12.2895   -1.2624 C.3     1  LIG1        0.0789
     39 H           2.7984   13.2580   -1.5188 H       1  LIG1        0.0660
     40 H           2.9916   11.7917   -0.5087 H       1  LIG1        0.0660
     41 H           2.2919   11.6652   -2.1551 H       1  LIG1        0.0660
     42 C          -1.4362   13.3843    0.1442 C.ar    1  LIG1        0.0898
     43 C          -0.9345   14.6393   -0.2128 C.ar    1  LIG1        0.1199
     44 C          -1.9252   15.5940    0.1557 C.ar    1  LIG1        0.1521
     45 C          -2.9813   14.9157    0.7125 C.ar    1  LIG1        0.0455
     46 N          -2.6542   13.5906    0.6894 N.ar    1  LIG1       -0.3553
     47 H          -3.2014   12.8021    1.0114 H       1  LIG1        0.1655
     48 H          -3.9146   15.2694    1.1134 H       1  LIG1        0.0845
     49 N           1.2236   15.4647   -1.3610 N.1     1  LIG1       -0.1907
     50 C           0.2840   15.0462   -0.8495 C.1     1  LIG1        0.1050
     51 O          -1.7617   16.9251   -0.0504 O.3     1  LIG1       -0.5040
     52 H          -2.5276   17.4114    0.2701 H       1  LIG1        0.2923
@<TRIPOS>BOND
     1    25    23    1
     2    41    38    1
     3    24    23    1
     4    23    18    1
     5    19    17    1
     6    39    38    1
     7    49    50    3
     8    38    37    1
     9    38    40    1
    10    18    17   ar
    11    18    15   ar
    12    50    43    1
    13    17    14   ar
    14    32    28    1
    15    37    29    1
    16    28    29   ar
    17    28    27   ar
    18    29    30   ar
    19     6     1    1
    20     1     5   ar
    21     1     2   ar
    22    43    42   ar
    23    43    44   ar
    24     7     2    1
    25     7     8    1
    26     5     4   ar
    27     2     3   ar
    28    51    44    1
    29    51    52    1
    30     4     3   ar
    31     4    14    1
    32     3     9    1
    33    15    27    1
    34    15    13   ar
    35    27    26   ar
    36    14    12   ar
    37     9    10    3
    38    30    42    1
    39    30    31   ar
    40    10    11    1
    41    42    46   ar
    42    44    45   ar
    43    35    33    1
    44    26    31   ar
    45    26    33    1
    46    46    45   ar
    47    46    47    1
    48    45    48    1
    49    13    12   ar
    50    13    16    1
    51    12    20    1
    52    33    36    1
    53    33    34    1
    54    21    20    1
    55    20    22    1
