@<TRIPOS>MOLECULE
mol_data/opt/m06hf/geoms/mol2/12fe12fe-12fe-12fe-.out
 42 45 0 0 0
SMALL
GASTEIGER

@<TRIPOS>ATOM
      1 C          -0.1299    1.7326   -0.0001 C.ar    1  LIG1        0.1353
      2 C           1.2151    1.6159   -0.0000 C.ar    1  LIG1        0.1709
      3 C           1.7597    2.9574   -0.0000 C.ar    1  LIG1        0.1149
      4 C           0.6755    3.7843   -0.0001 C.ar    1  LIG1        0.1924
      5 O          -0.4628    3.0633   -0.0001 O.2     1  LIG1       -0.4547
      6 H          -0.9325    1.0204   -0.0001 H       1  LIG1        0.1068
      7 O           1.9419    0.4792    0.0000 O.3     1  LIG1       -0.5028
      8 H           2.8795    0.7106    0.0001 H       1  LIG1        0.2923
      9 C           3.1504    3.2737    0.0001 C.1     1  LIG1       -0.0621
     10 C           4.3328    3.4909    0.0001 C.1     1  LIG1       -0.1137
     11 H           5.3726    3.7218    0.0002 H       1  LIG1        0.1232
     12 C           0.5098    5.2140   -0.0001 C.ar    1  LIG1        0.2144
     13 C          -0.6261    5.9652   -0.0002 C.ar    1  LIG1        0.1823
     14 C          -0.2006    7.3377   -0.0002 C.ar    1  LIG1        0.1157
     15 C           1.1751    7.2950   -0.0001 C.ar    1  LIG1        0.1934
     16 O           1.5989    6.0254   -0.0001 O.2     1  LIG1       -0.4434
     17 O          -1.9099    5.5748   -0.0002 O.3     1  LIG1       -0.5023
     18 H          -1.9523    4.6088   -0.0002 H       1  LIG1        0.2923
     19 C          -1.0605    8.4769   -0.0002 C.1     1  LIG1       -0.0621
     20 C          -1.8107    9.4191   -0.0003 C.1     1  LIG1       -0.1137
     21 H          -2.4920   10.2398   -0.0003 H       1  LIG1        0.1232
     22 C           2.1978    8.3156   -0.0001 C.ar    1  LIG1        0.2144
     23 C           2.1806    9.6838   -0.0001 C.ar    1  LIG1        0.1823
     24 C           3.5559   10.1020   -0.0000 C.ar    1  LIG1        0.1157
     25 C           4.2992    8.9462   -0.0001 C.ar    1  LIG1        0.1934
     26 O           3.4924    7.8829   -0.0001 O.2     1  LIG1       -0.4434
     27 O           1.1784   10.5671   -0.0000 O.3     1  LIG1       -0.5023
     28 H           0.3111   10.1323   -0.0000 H       1  LIG1        0.2923
     29 C           3.9990   11.4588    0.0000 C.1     1  LIG1       -0.0621
     30 C           4.3429   12.6128    0.0001 C.1     1  LIG1       -0.1137
     31 H           4.6323   13.6392    0.0001 H       1  LIG1        0.1232
     32 C           5.7225    8.6841   -0.0001 C.ar    1  LIG1        0.2134
     33 C           6.8359    9.4823   -0.0002 C.ar    1  LIG1        0.1815
     34 C           7.9668    8.5888   -0.0002 C.ar    1  LIG1        0.1045
     35 C           7.4390    7.3348   -0.0001 C.ar    1  LIG1        0.1118
     36 O           6.1055    7.3750   -0.0001 O.2     1  LIG1       -0.4547
     37 H           7.9042    6.3647   -0.0001 H       1  LIG1        0.1043
     38 O           6.9818   10.8106   -0.0002 O.3     1  LIG1       -0.5023
     39 H           6.1281   11.2704   -0.0002 H       1  LIG1        0.2923
     40 C           9.3475    8.9604   -0.0002 C.1     1  LIG1       -0.0628
     41 C          10.5066    9.2714   -0.0003 C.1     1  LIG1       -0.1137
     42 H          11.5332    9.5551   -0.0004 H       1  LIG1        0.1232
@<TRIPOS>BOND
     1    42    41    1
     2    21    20    1
     3    41    40    3
     4    20    19    3
     5    40    34    1
     6    38    33    1
     7    38    39    1
     8    19    14    1
     9    17    18    1
    10    17    13    1
    11    34    33   ar
    12    34    35   ar
    13    33    32   ar
    14    14    13   ar
    15    14    15   ar
    16    13    12   ar
    17    35    37    1
    18    35    36   ar
    19     5     4   ar
    20     5     1   ar
    21    26    22   ar
    22    26    25   ar
    23    32    36   ar
    24    32    25    1
    25    15    22    1
    26    15    16   ar
    27    12    16   ar
    28    12     4    1
    29     6     1    1
    30    22    23   ar
    31    25    24   ar
    32     4     3   ar
    33     1     2   ar
    34    23    24   ar
    35    23    27    1
    36    24    29    1
    37    28    27    1
    38     2     3   ar
    39     2     7    1
    40     3     9    1
    41    29    30    3
    42     7     8    1
    43     9    10    3
    44    30    31    1
    45    10    11    1
