@<TRIPOS>MOLECULE
mol_data/opt/m06hf/geoms/mol2/12fe12fe-12fe-12fe.out
 42 45 0 0 0
SMALL
GASTEIGER

@<TRIPOS>ATOM
      1 C          -0.0705    1.7127   -0.1388 C.ar    1  LIG1        0.1353
      2 C           1.2653    1.6511   -0.3275 C.ar    1  LIG1        0.1709
      3 C           1.7619    3.0095   -0.3018 C.ar    1  LIG1        0.1149
      4 C           0.6601    3.7862   -0.0971 C.ar    1  LIG1        0.1924
      5 O          -0.4448    3.0247    0.0015 O.2     1  LIG1       -0.4547
      6 H          -0.8404    0.9671   -0.0838 H       1  LIG1        0.1068
      7 O           2.0154    0.5426   -0.5076 O.3     1  LIG1       -0.5028
      8 H           2.9415    0.8017   -0.5938 H       1  LIG1        0.2923
      9 C           3.1167    3.4319   -0.4554 C.1     1  LIG1       -0.0621
     10 C           4.2494    3.8141   -0.5823 C.1     1  LIG1       -0.1137
     11 H           5.2296    4.2202   -0.6837 H       1  LIG1        0.1232
     12 C           0.4854    5.2089    0.0283 C.ar    1  LIG1        0.2144
     13 C          -0.6250    5.9623    0.2626 C.ar    1  LIG1        0.1823
     14 C          -0.1767    7.3279    0.3147 C.ar    1  LIG1        0.1157
     15 C           1.1793    7.2766    0.0907 C.ar    1  LIG1        0.1934
     16 O           1.5745    6.0113   -0.0795 O.2     1  LIG1       -0.4434
     17 O          -1.8994    5.5757    0.4369 O.3     1  LIG1       -0.5023
     18 H          -1.9551    4.6118    0.3888 H       1  LIG1        0.2923
     19 C          -0.9628    8.4848    0.5971 C.1     1  LIG1       -0.0621
     20 C          -1.6164    9.4665    0.8403 C.1     1  LIG1       -0.1137
     21 H          -2.2063   10.3213    1.0816 H       1  LIG1        0.1232
     22 C           2.1967    8.2947   -0.0220 C.ar    1  LIG1        0.2144
     23 C           2.1597    9.6371   -0.2829 C.ar    1  LIG1        0.1823
     24 C           3.5292   10.0783   -0.3280 C.ar    1  LIG1        0.1157
     25 C           4.2778    8.9531   -0.0980 C.ar    1  LIG1        0.1934
     26 O           3.4935    7.8883    0.0901 O.2     1  LIG1       -0.4434
     27 O           1.1324   10.4628   -0.5108 O.3     1  LIG1       -0.5023
     28 H           0.2863   10.0593   -0.2642 H       1  LIG1        0.2923
     29 C           3.9715   11.4146   -0.5667 C.1     1  LIG1       -0.0621
     30 C           4.3256   12.5444   -0.7652 C.1     1  LIG1       -0.1137
     31 H           4.6397   13.5465   -0.9422 H       1  LIG1        0.1232
     32 C           5.7053    8.7419   -0.0194 C.ar    1  LIG1        0.2134
     33 C           6.4690    7.6595    0.3009 C.ar    1  LIG1        0.1815
     34 C           7.8404    8.0944    0.2133 C.ar    1  LIG1        0.1045
     35 C           7.7853    9.4045   -0.1548 C.ar    1  LIG1        0.1118
     36 O           6.5184    9.7941   -0.2992 O.2     1  LIG1       -0.4547
     37 H           8.5512   10.1360   -0.3412 H       1  LIG1        0.1043
     38 O           6.0535    6.4213    0.6322 O.3     1  LIG1       -0.5023
     39 H           6.8017    5.9316    0.9984 H       1  LIG1        0.2923
     40 C           8.9662    7.2552    0.4856 C.1     1  LIG1       -0.0628
     41 C           9.8665    6.4980    0.7325 C.1     1  LIG1       -0.1137
     42 H          10.6787    5.8415    0.9466 H       1  LIG1        0.1232
@<TRIPOS>BOND
     1    31    30    1
     2    30    29    3
     3    11    10    1
     4     8     7    1
     5    10     9    3
     6    29    24    1
     7    27    23    1
     8    27    28    1
     9     7     2    1
    10     9     3    1
    11    37    35    1
    12    24    23   ar
    13    24    25   ar
    14     2     3   ar
    15     2     1   ar
    16     3     4   ar
    17    36    35   ar
    18    36    32   ar
    19    23    22   ar
    20    35    34   ar
    21     1     6    1
    22     1     5   ar
    23    25    32    1
    24    25    26   ar
    25     4     5   ar
    26     4    12    1
    27    16    12   ar
    28    16    15   ar
    29    22    26   ar
    30    22    15    1
    31    32    33   ar
    32    12    13   ar
    33    15    14   ar
    34    34    33   ar
    35    34    40    1
    36    13    14   ar
    37    13    17    1
    38    33    38    1
    39    14    19    1
    40    18    17    1
    41    40    41    3
    42    19    20    3
    43    38    39    1
    44    41    42    1
    45    20    21    1
