@<TRIPOS>MOLECULE
mol_data/opt/m06hf/geoms/mol2/12fe12fe-12fe12fe-.out
 42 45 0 0 0
SMALL
GASTEIGER

@<TRIPOS>ATOM
      1 C          -0.0510    1.8394   -0.0000 C.ar    1  LIG1        0.1353
      2 C           1.2913    1.6996    0.0000 C.ar    1  LIG1        0.1709
      3 C           1.8595    3.0316    0.0000 C.ar    1  LIG1        0.1149
      4 C           0.7906    3.8784   -0.0001 C.ar    1  LIG1        0.1924
      5 O          -0.3594    3.1753   -0.0001 O.2     1  LIG1       -0.4547
      6 H          -0.8659    1.1415   -0.0001 H       1  LIG1        0.1068
      7 O           1.9989    0.5506    0.0001 O.3     1  LIG1       -0.5028
      8 H           2.9407    0.7656    0.0002 H       1  LIG1        0.2923
      9 C           3.2594    3.3074    0.0001 C.1     1  LIG1       -0.0621
     10 C           4.4511    3.4660    0.0001 C.1     1  LIG1       -0.1137
     11 H           5.5028    3.6378    0.0002 H       1  LIG1        0.1232
     12 C           0.6413    5.3096   -0.0001 C.ar    1  LIG1        0.2144
     13 C          -0.4909    6.0704   -0.0001 C.ar    1  LIG1        0.1823
     14 C          -0.0586    7.4415   -0.0002 C.ar    1  LIG1        0.1157
     15 C           1.3138    7.3810   -0.0001 C.ar    1  LIG1        0.1934
     16 O           1.7378    6.1120   -0.0001 O.2     1  LIG1       -0.4434
     17 O          -1.7763    5.6870   -0.0001 O.3     1  LIG1       -0.5023
     18 H          -1.8257    4.7215   -0.0001 H       1  LIG1        0.2923
     19 C          -0.9085    8.5903   -0.0002 C.1     1  LIG1       -0.0621
     20 C          -1.6675    9.5232   -0.0002 C.1     1  LIG1       -0.1137
     21 H          -2.3401   10.3513   -0.0003 H       1  LIG1        0.1232
     22 C           2.3076    8.4219   -0.0002 C.ar    1  LIG1        0.2144
     23 C           3.6690    8.4416   -0.0002 C.ar    1  LIG1        0.1823
     24 C           4.0673    9.8289   -0.0002 C.ar    1  LIG1        0.1157
     25 C           2.9011   10.5441   -0.0002 C.ar    1  LIG1        0.1934
     26 O           1.8483    9.7104   -0.0002 O.2     1  LIG1       -0.4434
     27 O           4.5037    7.3916   -0.0002 O.3     1  LIG1       -0.5023
     28 H           5.4132    7.7182   -0.0002 H       1  LIG1        0.2923
     29 C           5.4247   10.2665   -0.0002 C.1     1  LIG1       -0.0621
     30 C           6.5905   10.5612   -0.0002 C.1     1  LIG1       -0.1137
     31 H           7.6164   10.8500   -0.0002 H       1  LIG1        0.1232
     32 C           2.5604   11.9394   -0.0002 C.ar    1  LIG1        0.2134
     33 C           1.3273   12.5286   -0.0002 C.ar    1  LIG1        0.1815
     34 C           1.5727   13.9490   -0.0002 C.ar    1  LIG1        0.1045
     35 C           2.9291   14.0810   -0.0002 C.ar    1  LIG1        0.1118
     36 O           3.5321   12.8872   -0.0002 O.2     1  LIG1       -0.4547
     37 H           3.5604   14.9517   -0.0002 H       1  LIG1        0.1043
     38 O           0.1095   11.9770   -0.0001 O.3     1  LIG1       -0.5023
     39 H           0.1545   11.0070   -0.0001 H       1  LIG1        0.2923
     40 C           0.5914   14.9894   -0.0002 C.1     1  LIG1       -0.0628
     41 C          -0.2338   15.8606   -0.0001 C.1     1  LIG1       -0.1137
     42 H          -0.9703   16.6304   -0.0001 H       1  LIG1        0.1232
@<TRIPOS>BOND
     1    21    20    1
     2    37    35    1
     3    36    35   ar
     4    36    32   ar
     5    20    19    3
     6    35    34   ar
     7    31    30    1
     8    32    25    1
     9    32    33   ar
    10    30    29    3
    11    29    24    1
    12    25    24   ar
    13    25    26   ar
    14    34    33   ar
    15    34    40    1
    16    24    23   ar
    17    19    14    1
    18    26    22   ar
    19    28    27    1
    20    33    38    1
    21    23    22   ar
    22    23    27    1
    23    40    41    3
    24    22    15    1
    25    14    15   ar
    26    14    13   ar
    27    41    42    1
    28    15    16   ar
    29    39    38    1
    30    17    13    1
    31    17    18    1
    32    13    12   ar
    33    16    12   ar
    34    12     4    1
    35     5     4   ar
    36     5     1   ar
    37     4     3   ar
    38     6     1    1
    39     1     2   ar
    40     3     2   ar
    41     3     9    1
    42     2     7    1
    43     9    10    3
    44     7     8    1
    45    10    11    1
