@<TRIPOS>MOLECULE
mol_data/opt/m06hf/geoms/mol2/12fe13di6id12ae.out
 46 49 0 0 0
SMALL
GASTEIGER

@<TRIPOS>ATOM
      1 C           0.3778    1.7132   -0.6274 C.ar    1  LIG1        0.1352
      2 C           1.7152    1.7705   -0.8155 C.ar    1  LIG1        0.1709
      3 C           2.1116    3.1408   -0.5855 C.ar    1  LIG1        0.1132
      4 C           0.9619    3.8001   -0.2587 C.ar    1  LIG1        0.1711
      5 O          -0.0812    2.9510   -0.2877 O.2     1  LIG1       -0.4564
      6 H          -0.3391    0.9166   -0.6905 H       1  LIG1        0.1068
      7 O           2.5380    0.7605   -1.1640 O.3     1  LIG1       -0.5028
      8 H           3.4431    1.0937   -1.2174 H       1  LIG1        0.2923
      9 C           3.4432    3.6236   -0.7549 C.1     1  LIG1       -0.0621
     10 C           4.5807    3.9780   -0.9125 C.1     1  LIG1       -0.1137
     11 H           5.5796    4.3321   -1.0261 H       1  LIG1        0.1232
     12 C           0.6437    5.1829    0.0584 C.ar    1  LIG1        0.1017
     13 C           1.3867    6.2373    0.5671 C.ar    1  LIG1        0.0835
     14 C           0.5335    7.3777    0.6598 C.ar    1  LIG1       -0.0071
     15 C          -0.7037    6.9679    0.2106 C.ar    1  LIG1        0.0529
     16 N          -0.6143    5.6462   -0.1413 N.ar    1  LIG1       -0.3504
     17 H          -1.3558    5.0910   -0.5434 H       1  LIG1        0.1660
     18 N           3.8179    6.2459    1.4310 N.1     1  LIG1       -0.1908
     19 C           2.7439    6.2097    1.0259 C.1     1  LIG1        0.1017
     20 C           0.9293    8.7315    1.1911 C.3     1  LIG1       -0.0365
     21 H           0.0430    9.2999    1.4715 H       1  LIG1        0.0279
     22 H           1.4890    9.2914    0.4398 H       1  LIG1        0.0279
     23 H           1.5647    8.6108    2.0686 H       1  LIG1        0.0279
     24 C          -3.1663    7.3059    0.6794 C.ar    1  LIG1        0.0482
     25 C          -1.9609    7.7325    0.0863 C.ar    1  LIG1        0.0209
     26 C          -1.9730    8.9328   -0.6125 C.ar    1  LIG1       -0.0313
     27 C          -3.1555    9.6614   -0.7110 C.ar    1  LIG1        0.0813
     28 C          -4.3154    9.1548   -0.1029 C.ar    1  LIG1        0.1236
     29 N          -4.2904    8.0046    0.5680 N.ar    1  LIG1       -0.2468
     30 H          -1.0724    9.2971   -1.0903 H       1  LIG1        0.0638
     31 C          -3.2565    6.0339    1.4969 C.3     1  LIG1       -0.0217
     32 H          -2.3242    5.8462    2.0289 H       1  LIG1        0.0293
     33 H          -3.4720    5.1816    0.8476 H       1  LIG1        0.0293
     34 H          -4.0813    6.1447    2.1967 H       1  LIG1        0.0293
     35 N          -3.0964   11.8797   -2.0489 N.1     1  LIG1       -0.1908
     36 C          -3.1412   10.8995   -1.4534 C.1     1  LIG1        0.1014
     37 C          -5.6148    9.8459   -0.1504 C.ar    1  LIG1        0.1554
     38 C          -6.0329   11.0643   -0.5979 C.ar    1  LIG1        0.0011
     39 C          -7.4429   11.1178   -0.3245 C.ar    1  LIG1        0.0630
     40 C          -7.7504    9.9267    0.2632 C.ar    1  LIG1        0.1080
     41 O          -6.6612    9.1636    0.3699 O.2     1  LIG1       -0.4601
     42 H          -8.6748    9.5204    0.6335 H       1  LIG1        0.1042
     43 H          -5.4479   11.8412   -1.0574 H       1  LIG1        0.0668
     44 C          -8.3485   12.1931   -0.6035 C.1     1  LIG1       -0.0665
     45 C          -9.1040   13.0962   -0.8388 C.1     1  LIG1       -0.1138
     46 H          -9.7721   13.8990   -1.0498 H       1  LIG1        0.1232
@<TRIPOS>BOND
     1    35    36    3
     2    36    27    1
     3     8     7    1
     4     7     2    1
     5    30    26    1
     6    43    38    1
     7    46    45    1
     8    11    10    1
     9    10     9    3
    10    45    44    3
    11     2     1   ar
    12     2     3   ar
    13     9     3    1
    14    27    26   ar
    15    27    28   ar
    16     6     1    1
    17     1     5   ar
    18    26    25   ar
    19    44    39    1
    20    38    39   ar
    21    38    37   ar
    22     3     4   ar
    23    17    16    1
    24    39    40   ar
    25     5     4   ar
    26     4    12    1
    27    37    28    1
    28    37    41   ar
    29    16    12   ar
    30    16    15   ar
    31    28    29   ar
    32    12    13   ar
    33    25    15    1
    34    25    24   ar
    35    15    14   ar
    36    40    41   ar
    37    40    42    1
    38    22    20    1
    39    13    14   ar
    40    13    19    1
    41    29    24   ar
    42    14    20    1
    43    24    31    1
    44    33    31    1
    45    19    18    3
    46    20    21    1
    47    20    23    1
    48    31    32    1
    49    31    34    1
