@<TRIPOS>MOLECULE
mol_data/opt/m06hf/geoms/mol2/12fe12fe12fe.out
 32 34 0 0 0
SMALL
GASTEIGER

@<TRIPOS>ATOM
      1 C           0.3105    1.7219   -0.0001 C.ar    1  LIG1        0.1353
      2 C           1.6604    1.7843   -0.0000 C.ar    1  LIG1        0.1709
      3 C           2.0156    3.1846   -0.0000 C.ar    1  LIG1        0.1149
      4 C           0.8225    3.8578   -0.0001 C.ar    1  LIG1        0.1924
      5 O          -0.1941    2.9865   -0.0002 O.2     1  LIG1       -0.4547
      6 H          -0.3880    0.9073   -0.0001 H       1  LIG1        0.1068
      7 O           2.5372    0.7565    0.0001 O.3     1  LIG1       -0.5028
      8 H           3.4336    1.1171    0.0001 H       1  LIG1        0.2923
      9 C           3.3738    3.6222    0.0000 C.1     1  LIG1       -0.0621
     10 C           4.5510    3.8700    0.0002 C.1     1  LIG1       -0.1137
     11 H           5.5836    4.1318    0.0006 H       1  LIG1        0.1232
     12 C           0.4655    5.2613   -0.0002 C.ar    1  LIG1        0.2144
     13 C           1.1766    6.4212   -0.0002 C.ar    1  LIG1        0.1823
     14 C           0.2198    7.4974   -0.0002 C.ar    1  LIG1        0.1157
     15 C          -1.0096    6.8905   -0.0002 C.ar    1  LIG1        0.1934
     16 O          -0.8641    5.5612   -0.0002 O.2     1  LIG1       -0.4434
     17 O           2.5111    6.5705   -0.0002 O.3     1  LIG1       -0.5023
     18 H           2.7177    7.5154   -0.0003 H       1  LIG1        0.2923
     19 C           0.6297    8.8643   -0.0002 C.1     1  LIG1       -0.0621
     20 C           1.1002    9.9708   -0.0004 C.1     1  LIG1       -0.1137
     21 H           1.4799   10.9660   -0.0001 H       1  LIG1        0.1232
     22 C          -2.3705    7.3849   -0.0002 C.ar    1  LIG1        0.2134
     23 C          -2.9239    8.6301   -0.0003 C.ar    1  LIG1        0.1815
     24 C          -4.3522    8.4384   -0.0003 C.ar    1  LIG1        0.1045
     25 C          -4.5387    7.0895   -0.0002 C.ar    1  LIG1        0.1118
     26 O          -3.3667    6.4565   -0.0002 O.2     1  LIG1       -0.4547
     27 H          -5.4282    6.4848   -0.0001 H       1  LIG1        0.1043
     28 O          -2.2836    9.8110   -0.0003 O.3     1  LIG1       -0.5023
     29 H          -2.9355   10.5242   -0.0003 H       1  LIG1        0.2923
     30 C          -5.3028    9.5063   -0.0003 C.1     1  LIG1       -0.0628
     31 C          -6.0452   10.4518   -0.0000 C.1     1  LIG1       -0.1137
     32 H          -6.7179   11.2788    0.0003 H       1  LIG1        0.1232
@<TRIPOS>BOND
     1    20    19    3
     2    20    21    1
     3    29    28    1
     4    30    24    1
     5    30    31    3
     6    28    23    1
     7    24    23   ar
     8    24    25   ar
     9    23    22   ar
    10    18    17    1
    11    22    15    1
    12    22    26   ar
    13    19    14    1
    14    15    14   ar
    15    15    16   ar
    16    17    13    1
    17    14    13   ar
    18    26    25   ar
    19    13    12   ar
    20    25    27    1
    21    16    12   ar
    22     5     4   ar
    23     5     1   ar
    24    12     4    1
    25     6     1    1
    26     4     3   ar
    27     1     2   ar
    28     3     2   ar
    29     3     9    1
    30    31    32    1
    31     2     7    1
    32     9    10    3
    33     7     8    1
    34    10    11    1
