@<TRIPOS>MOLECULE
mol_data/opt/m06hf/geoms/mol2/12fe12fe-12fe12fe.out
 42 45 0 0 0
SMALL
GASTEIGER

@<TRIPOS>ATOM
      1 C           0.1122    1.7267   -0.0000 C.ar    1  LIG1        0.1353
      2 C           1.4605    1.6716   -0.0000 C.ar    1  LIG1        0.1709
      3 C           1.9444    3.0359   -0.0001 C.ar    1  LIG1        0.1149
      4 C           0.8239    3.8145   -0.0001 C.ar    1  LIG1        0.1924
      5 O          -0.2799    3.0414   -0.0000 O.2     1  LIG1       -0.4547
      6 H          -0.6569    0.9785   -0.0000 H       1  LIG1        0.1068
      7 O           2.2388    0.5684   -0.0000 O.3     1  LIG1       -0.5028
      8 H           3.1648    0.8426   -0.0000 H       1  LIG1        0.2923
      9 C           3.3213    3.4065   -0.0001 C.1     1  LIG1       -0.0621
     10 C           4.4971    3.6563   -0.0001 C.1     1  LIG1       -0.1137
     11 H           5.5307    3.9125   -0.0001 H       1  LIG1        0.1232
     12 C           0.5937    5.2342   -0.0001 C.ar    1  LIG1        0.2144
     13 C          -0.5767    5.9351   -0.0001 C.ar    1  LIG1        0.1823
     14 C          -0.2181    7.3271   -0.0001 C.ar    1  LIG1        0.1157
     15 C           1.1551    7.3388   -0.0001 C.ar    1  LIG1        0.1934
     16 O           1.6465    6.0921   -0.0001 O.2     1  LIG1       -0.4434
     17 O          -1.8399    5.4812   -0.0001 O.3     1  LIG1       -0.5023
     18 H          -1.8352    4.5145   -0.0001 H       1  LIG1        0.2923
     19 C          -1.1197    8.4333   -0.0001 C.1     1  LIG1       -0.0621
     20 C          -1.8897    9.3541   -0.0001 C.1     1  LIG1       -0.1137
     21 H          -2.5730   10.1707   -0.0001 H       1  LIG1        0.1232
     22 C           2.1121    8.4156   -0.0001 C.ar    1  LIG1        0.2144
     23 C           3.4741    8.4397   -0.0001 C.ar    1  LIG1        0.1823
     24 C           3.8613    9.8262   -0.0001 C.ar    1  LIG1        0.1157
     25 C           2.6849   10.5332   -0.0001 C.ar    1  LIG1        0.1934
     26 O           1.6444    9.6929   -0.0001 O.2     1  LIG1       -0.4434
     27 O           4.3148    7.3931   -0.0000 O.3     1  LIG1       -0.5023
     28 H           5.2218    7.7283    0.0000 H       1  LIG1        0.2923
     29 C           5.2309   10.2264   -0.0001 C.1     1  LIG1       -0.0621
     30 C           6.4138   10.4428   -0.0000 C.1     1  LIG1       -0.1137
     31 H           7.4537   10.6741    0.0000 H       1  LIG1        0.1232
     32 C           2.3632   11.9445   -0.0002 C.ar    1  LIG1        0.2134
     33 C           3.1075   13.0865   -0.0002 C.ar    1  LIG1        0.1815
     34 C           2.1695   14.1803   -0.0003 C.ar    1  LIG1        0.1045
     35 C           0.9363   13.6033   -0.0003 C.ar    1  LIG1        0.1118
     36 O           1.0425   12.2757   -0.0002 O.2     1  LIG1       -0.4547
     37 H          -0.0551   14.0211   -0.0003 H       1  LIG1        0.1043
     38 O           4.4464   13.1937   -0.0002 O.3     1  LIG1       -0.5023
     39 H           4.6882   14.1293   -0.0002 H       1  LIG1        0.2923
     40 C           2.5476   15.5591   -0.0003 C.1     1  LIG1       -0.0628
     41 C           2.9331   16.6976   -0.0003 C.1     1  LIG1       -0.1137
     42 H           3.2578   17.7129   -0.0003 H       1  LIG1        0.1232
@<TRIPOS>BOND
     1    42    41    1
     2    37    35    1
     3    41    40    3
     4    40    34    1
     5    35    34   ar
     6    35    36   ar
     7    34    33   ar
     8    36    32   ar
     9    33    32   ar
    10    33    38    1
    11    32    25    1
    12    39    38    1
    13    26    25   ar
    14    26    22   ar
    15    25    24   ar
    16    21    20    1
    17    20    19    3
    18    19    14    1
    19    14    15   ar
    20    14    13   ar
    21    22    15    1
    22    22    23   ar
    23    11    10    1
    24    15    16   ar
    25    24    29    1
    26    24    23   ar
    27    17    13    1
    28    17    18    1
    29    13    12   ar
    30    16    12   ar
    31    12     4    1
    32    29    30    3
    33    10     9    3
    34     9     3    1
    35    23    27    1
    36     4     3   ar
    37     4     5   ar
    38     3     2   ar
    39     5     1   ar
    40     2     1   ar
    41     2     7    1
    42     1     6    1
    43     8     7    1
    44    30    31    1
    45    27    28    1
