@<TRIPOS>MOLECULE
mol_data/opt/m06hf/geoms/mol2/12fe12fe-12fe.out
 32 34 0 0 0
SMALL
GASTEIGER

@<TRIPOS>ATOM
      1 C          -4.7772    0.1433   -0.1330 C.ar    1  LIG1        0.1353
      2 C          -4.4203   -1.1539   -0.0270 C.ar    1  LIG1        0.1709
      3 C          -2.9743   -1.1956    0.0381 C.ar    1  LIG1        0.1149
      4 C          -2.5735    0.1061   -0.0378 C.ar    1  LIG1        0.1924
      5 O          -3.6451    0.9169   -0.1424 O.2     1  LIG1       -0.4547
      6 H          -5.7227    0.6445   -0.2083 H       1  LIG1        0.1068
      7 O          -5.2338   -2.2301    0.0161 O.3     1  LIG1       -0.5028
      8 H          -4.6932   -3.0236    0.1195 H       1  LIG1        0.2923
      9 C          -2.2092   -2.3918    0.1711 C.1     1  LIG1       -0.0621
     10 C          -1.6263   -3.4366    0.2888 C.1     1  LIG1       -0.1137
     11 H          -1.0878   -4.3493    0.3959 H       1  LIG1        0.1232
     12 C          -1.2947    0.7652   -0.0207 C.ar    1  LIG1        0.2144
     13 C          -0.9955    2.0955   -0.0167 C.ar    1  LIG1        0.1823
     14 C           0.4391    2.1902    0.0184 C.ar    1  LIG1        0.1157
     15 C           0.8792    0.8906    0.0312 C.ar    1  LIG1        0.1934
     16 O          -0.1513    0.0344    0.0103 O.2     1  LIG1       -0.4434
     17 O          -1.8219    3.1529   -0.0410 O.3     1  LIG1       -0.5023
     18 H          -2.7369    2.8445   -0.0856 H       1  LIG1        0.2923
     19 C           1.2018    3.3976    0.0244 C.1     1  LIG1       -0.0621
     20 C           1.8164    4.4289    0.0282 C.1     1  LIG1       -0.1137
     21 H           2.3561    5.3471    0.0319 H       1  LIG1        0.1232
     22 C           2.2010    0.3098    0.0446 C.ar    1  LIG1        0.2134
     23 C           2.6392   -0.9752   -0.0741 C.ar    1  LIG1        0.1815
     24 C           4.0778   -0.9156   -0.0048 C.ar    1  LIG1        0.1045
     25 C           4.3823    0.4033    0.1498 C.ar    1  LIG1        0.1118
     26 O           3.2703    1.1380    0.1824 O.2     1  LIG1       -0.4547
     27 H           5.3206    0.9199    0.2464 H       1  LIG1        0.1043
     28 O           1.8966   -2.0845   -0.2302 O.3     1  LIG1       -0.5023
     29 H           2.4860   -2.8419   -0.3382 H       1  LIG1        0.2923
     30 C           4.9323   -2.0585   -0.0976 C.1     1  LIG1       -0.0628
     31 C           5.5890   -3.0614   -0.1878 C.1     1  LIG1       -0.1137
     32 H           6.1863   -3.9406   -0.2672 H       1  LIG1        0.1232
@<TRIPOS>BOND
     1    29    28    1
     2    32    31    1
     3    28    23    1
     4     6     1    1
     5    31    30    3
     6     5     1   ar
     7     5     4   ar
     8     1     2   ar
     9    30    24    1
    10    18    17    1
    11    23    24   ar
    12    23    22   ar
    13    17    13    1
    14     4    12    1
    15     4     3   ar
    16     2     7    1
    17     2     3   ar
    18    12    13   ar
    19    12    16   ar
    20    13    14   ar
    21    24    25   ar
    22    16    15   ar
    23     7     8    1
    24    14    19    1
    25    14    15   ar
    26    19    20    3
    27    20    21    1
    28    15    22    1
    29     3     9    1
    30    22    26   ar
    31    25    26   ar
    32    25    27    1
    33     9    10    3
    34    10    11    1
