@<TRIPOS>MOLECULE
mol_data/opt/m06hf/geoms/mol2/12fe12fe.out
 22 23 0 0 0
SMALL
GASTEIGER

@<TRIPOS>ATOM
      1 C           0.1933    1.7898   -0.0001 C.ar    1  LIG1        0.1353
      2 C           1.5437    1.8245   -0.0000 C.ar    1  LIG1        0.1709
      3 C           1.9271    3.2179   -0.0000 C.ar    1  LIG1        0.1149
      4 C           0.7484    3.9151   -0.0001 C.ar    1  LIG1        0.1923
      5 O          -0.2855    3.0642   -0.0001 O.2     1  LIG1       -0.4547
      6 H          -0.5237    0.9911   -0.0001 H       1  LIG1        0.1068
      7 O           2.4001    0.7798    0.0000 O.3     1  LIG1       -0.5028
      8 H           3.3034    1.1233    0.0001 H       1  LIG1        0.2923
      9 C           3.2947    3.6267    0.0000 C.1     1  LIG1       -0.0621
     10 C           4.4772    3.8458    0.0001 C.1     1  LIG1       -0.1137
     11 H           5.5172    4.0772    0.0001 H       1  LIG1        0.1232
     12 C           0.4148    5.3272   -0.0001 C.ar    1  LIG1        0.2134
     13 C           1.1449    6.4770   -0.0001 C.ar    1  LIG1        0.1815
     14 C           0.1944    7.5613   -0.0001 C.ar    1  LIG1        0.1045
     15 C          -1.0323    6.9718   -0.0002 C.ar    1  LIG1        0.1118
     16 O          -0.9102    5.6446   -0.0002 O.2     1  LIG1       -0.4547
     17 H          -2.0288    7.3769   -0.0002 H       1  LIG1        0.1043
     18 O           2.4835    6.6025   -0.0000 O.3     1  LIG1       -0.5023
     19 H           2.7105    7.5413   -0.0000 H       1  LIG1        0.2923
     20 C           0.5551    8.9446   -0.0001 C.1     1  LIG1       -0.0628
     21 C           0.9235   10.0888   -0.0001 C.1     1  LIG1       -0.1137
     22 H           1.2287   11.1099   -0.0002 H       1  LIG1        0.1232
@<TRIPOS>BOND
     1    17    15    1
     2    15    16   ar
     3    15    14   ar
     4    16    12   ar
     5    22    21    1
     6    21    20    3
     7    14    20    1
     8    14    13   ar
     9    12    13   ar
    10    12     4    1
    11     5     4   ar
    12     5     1   ar
    13    13    18    1
    14     6     1    1
    15     4     3   ar
    16     1     2   ar
    17    18    19    1
    18     3     2   ar
    19     3     9    1
    20     2     7    1
    21     9    10    3
    22     7     8    1
    23    10    11    1
