@<TRIPOS>MOLECULE
mol_data/opt/m06hf/geoms/mol2/12fe12fe12fe12fe.out
 42 45 0 0 0
SMALL
GASTEIGER

@<TRIPOS>ATOM
      1 C           0.5120    1.7099   -0.0009 C.ar    1  LIG1        0.1353
      2 C           1.8594    1.8077   -0.0004 C.ar    1  LIG1        0.1709
      3 C           2.1771    3.2171    0.0000 C.ar    1  LIG1        0.1149
      4 C           0.9665    3.8591   -0.0004 C.ar    1  LIG1        0.1924
      5 O          -0.0261    2.9606   -0.0009 O.2     1  LIG1       -0.4547
      6 H          -0.1670    0.8793   -0.0013 H       1  LIG1        0.1068
      7 O           2.7669    0.8063   -0.0002 O.3     1  LIG1       -0.5028
      8 H           3.6503    1.1985    0.0004 H       1  LIG1        0.2923
      9 C           3.5255    3.6862    0.0006 C.1     1  LIG1       -0.0621
     10 C           4.6988    3.9514    0.0011 C.1     1  LIG1       -0.1137
     11 H           5.7293    4.2212    0.0015 H       1  LIG1        0.1232
     12 C           0.5765    5.2534   -0.0003 C.ar    1  LIG1        0.2144
     13 C           1.2631    6.4280   -0.0002 C.ar    1  LIG1        0.1823
     14 C           0.2847    7.4837   -0.0002 C.ar    1  LIG1        0.1157
     15 C          -0.9333    6.8515   -0.0003 C.ar    1  LIG1        0.1934
     16 O          -0.7595    5.5250   -0.0004 O.2     1  LIG1       -0.4434
     17 O           2.5944    6.6079   -0.0001 O.3     1  LIG1       -0.5023
     18 H           2.7761    7.5580   -0.0000 H       1  LIG1        0.2923
     19 C           0.6679    8.8579   -0.0001 C.1     1  LIG1       -0.0621
     20 C           1.1201    9.9724    0.0000 C.1     1  LIG1       -0.1137
     21 H           1.4851   10.9736    0.0000 H       1  LIG1        0.1232
     22 C          -2.2991    7.3242   -0.0004 C.ar    1  LIG1        0.2144
     23 C          -2.8744    8.5591   -0.0004 C.ar    1  LIG1        0.1823
     24 C          -4.2986    8.3544   -0.0004 C.ar    1  LIG1        0.1157
     25 C          -4.4709    6.9932   -0.0003 C.ar    1  LIG1        0.1934
     26 O          -3.2827    6.3807   -0.0003 O.2     1  LIG1       -0.4434
     27 O          -2.2650    9.7545   -0.0005 O.3     1  LIG1       -0.5023
     28 H          -2.9429   10.4444   -0.0005 H       1  LIG1        0.2923
     29 C          -5.2118    9.4518   -0.0004 C.1     1  LIG1       -0.0621
     30 C          -5.8719   10.4569   -0.0004 C.1     1  LIG1       -0.1137
     31 H          -6.4885   11.3260   -0.0004 H       1  LIG1        0.1232
     32 C          -5.6365    6.1358   -0.0002 C.ar    1  LIG1        0.2134
     33 C          -6.9798    6.3669   -0.0002 C.ar    1  LIG1        0.1815
     34 C          -7.6129    5.0730   -0.0001 C.ar    1  LIG1        0.1045
     35 C          -6.5940    4.1684   -0.0001 C.ar    1  LIG1        0.1118
     36 O          -5.4173    4.7919   -0.0002 O.2     1  LIG1       -0.4547
     37 H          -6.5836    3.0926   -0.0001 H       1  LIG1        0.1043
     38 O          -7.6079    7.5540   -0.0001 O.3     1  LIG1       -0.5023
     39 H          -8.5625    7.4059   -0.0001 H       1  LIG1        0.2923
     40 C          -9.0285    4.8743    0.0000 C.1     1  LIG1       -0.0628
     41 C         -10.2265    4.7775    0.0001 C.1     1  LIG1       -0.1137
     42 H         -11.2867    4.6692    0.0002 H       1  LIG1        0.1232
@<TRIPOS>BOND
     1     6     1    1
     2     1     5   ar
     3     1     2   ar
     4     5     4   ar
     5    28    27    1
     6    27    23    1
     7    30    31    1
     8    30    29    3
     9    16    15   ar
    10    16    12   ar
    11    23    24   ar
    12    23    22   ar
    13    29    24    1
    14    24    25   ar
    15     4    12    1
    16     4     3   ar
    17    22    15    1
    18    22    26   ar
    19     2     7    1
    20     2     3   ar
    21    15    14   ar
    22    12    13   ar
    23    26    25   ar
    24    25    32    1
    25    32    36   ar
    26    32    33   ar
    27    36    35   ar
    28    14    13   ar
    29    14    19    1
    30    13    17    1
    31     7     8    1
    32    33    38    1
    33    33    34   ar
    34    38    39    1
    35    35    37    1
    36    35    34   ar
    37    34    40    1
    38    17    18    1
    39    19    20    3
    40     3     9    1
    41    40    41    3
    42    21    20    1
    43    41    42    1
    44     9    10    3
    45    10    11    1
