@<TRIPOS>MOLECULE
mol_data/opt/m06hf/geoms/mol2/12fe12fe-.out
 22 23 0 0 0
SMALL
GASTEIGER

@<TRIPOS>ATOM
      1 C           0.1665    1.8796    0.0000 C.ar    1  LIG1        0.1353
      2 C           1.5148    1.8301    0.0000 C.ar    1  LIG1        0.1709
      3 C           1.9926    3.1978   -0.0000 C.ar    1  LIG1        0.1149
      4 C           0.8692    3.9717   -0.0000 C.ar    1  LIG1        0.1923
      5 O          -0.2296    3.1920   -0.0000 O.2     1  LIG1       -0.4547
      6 H          -0.6000    1.1283    0.0000 H       1  LIG1        0.1068
      7 O           2.2960    0.7305    0.0000 O.3     1  LIG1       -0.5028
      8 H           3.2223    1.0047    0.0000 H       1  LIG1        0.2923
      9 C           3.3740    3.5566   -0.0000 C.1     1  LIG1       -0.0621
     10 C           4.5584    3.7650   -0.0000 C.1     1  LIG1       -0.1137
     11 H           5.6038    3.9729    0.0000 H       1  LIG1        0.1232
     12 C           0.6145    5.3908   -0.0001 C.ar    1  LIG1        0.2134
     13 C          -0.5738    6.0602   -0.0001 C.ar    1  LIG1        0.1815
     14 C          -0.2412    7.4619   -0.0001 C.ar    1  LIG1        0.1045
     15 C           1.1207    7.5059   -0.0001 C.ar    1  LIG1        0.1118
     16 O           1.6442    6.2745   -0.0001 O.2     1  LIG1       -0.4547
     17 H           1.8081    8.3328   -0.0002 H       1  LIG1        0.1043
     18 O          -1.8259    5.5766   -0.0001 O.3     1  LIG1       -0.5023
     19 H          -1.7968    4.6106   -0.0001 H       1  LIG1        0.2923
     20 C          -1.1521    8.5648   -0.0002 C.1     1  LIG1       -0.0628
     21 C          -1.9161    9.4906   -0.0002 C.1     1  LIG1       -0.1137
     22 H          -2.5999   10.3077   -0.0002 H       1  LIG1        0.1232
@<TRIPOS>BOND
     1    21    22    1
     2    21    20    3
     3    20    14    1
     4    17    15    1
     5    15    14   ar
     6    15    16   ar
     7    14    13   ar
     8    13    18    1
     9    13    12   ar
    10    18    19    1
    11    16    12   ar
    12    12     4    1
    13     4     5   ar
    14     4     3   ar
    15     5     1   ar
    16     9     3    1
    17     9    10    3
    18     3     2   ar
    19    10    11    1
    20     1     2   ar
    21     1     6    1
    22     2     7    1
    23     8     7    1
