@<TRIPOS>MOLECULE
mol_data/opt/m06hf/geoms/mol2/12fe12fe12fe12fe-.out
 42 45 0 0 0
SMALL
GASTEIGER

@<TRIPOS>ATOM
      1 C           0.3975    1.7072   -0.3913 C.ar    1  LIG1        0.1353
      2 C           1.6850    1.7902    0.0123 C.ar    1  LIG1        0.1709
      3 C           1.9777    3.1941    0.1830 C.ar    1  LIG1        0.1149
      4 C           0.8226    3.8454   -0.1510 C.ar    1  LIG1        0.1924
      5 O          -0.1227    2.9609   -0.4954 O.2     1  LIG1       -0.4547
      6 H          -0.2470    0.8822   -0.6266 H       1  LIG1        0.1068
      7 O           2.5471    0.7727    0.2313 O.3     1  LIG1       -0.5028
      8 H           3.3890    1.1382    0.5320 H       1  LIG1        0.2923
      9 C           3.2252    3.6924    0.6642 C.1     1  LIG1       -0.0621
     10 C           4.3007    4.0280    1.0839 C.1     1  LIG1       -0.1137
     11 H           5.2455    4.3522    1.4538 H       1  LIG1        0.1232
     12 C           0.4773    5.2497   -0.2078 C.ar    1  LIG1        0.2144
     13 C           1.2055    6.3802   -0.4110 C.ar    1  LIG1        0.1823
     14 C           0.2793    7.4840   -0.3809 C.ar    1  LIG1        0.1157
     15 C          -0.9502    6.9195   -0.1652 C.ar    1  LIG1        0.1934
     16 O          -0.8364    5.5886   -0.0588 O.2     1  LIG1       -0.4434
     17 O           2.5265    6.4719   -0.6345 O.3     1  LIG1       -0.5023
     18 H           2.7514    7.3968   -0.8031 H       1  LIG1        0.2923
     19 C           0.6776    8.8339   -0.6133 C.1     1  LIG1       -0.0621
     20 C           1.1119    9.9339   -0.8306 C.1     1  LIG1       -0.1137
     21 H           1.4681   10.9198   -1.0218 H       1  LIG1        0.1232
     22 C          -2.2857    7.4509   -0.0310 C.ar    1  LIG1        0.2144
     23 C          -2.8178    8.6875    0.1643 C.ar    1  LIG1        0.1823
     24 C          -4.2507    8.5254    0.2295 C.ar    1  LIG1        0.1157
     25 C          -4.4733    7.1848    0.0761 C.ar    1  LIG1        0.1934
     26 O          -3.3065    6.5389   -0.0844 O.2     1  LIG1       -0.4434
     27 O          -2.1562    9.8464    0.2931 O.3     1  LIG1       -0.5023
     28 H          -2.7913   10.5598    0.4407 H       1  LIG1        0.2923
     29 C          -5.1611    9.6032    0.4376 C.1     1  LIG1       -0.0621
     30 C          -5.8614   10.5639    0.6161 C.1     1  LIG1       -0.1137
     31 H          -6.5046   11.3986    0.7745 H       1  LIG1        0.1232
     32 C          -5.6315    6.3346    0.0588 C.ar    1  LIG1        0.2134
     33 C          -5.7020    4.9749   -0.0605 C.ar    1  LIG1        0.1815
     34 C          -7.1046    4.6484   -0.0035 C.ar    1  LIG1        0.1045
     35 C          -7.7462    5.8409    0.1453 C.ar    1  LIG1        0.1118
     36 O          -6.8775    6.8578    0.1839 O.2     1  LIG1       -0.4547
     37 H          -8.7910    6.0823    0.2338 H       1  LIG1        0.1043
     38 O          -4.7264    4.0697   -0.2004 O.3     1  LIG1       -0.5023
     39 H          -3.8589    4.4984   -0.2050 H       1  LIG1        0.2923
     40 C          -7.6896    3.3457   -0.0842 C.1     1  LIG1       -0.0628
     41 C          -8.1839    2.2540   -0.1500 C.1     1  LIG1       -0.1137
     42 H          -8.6188    1.2831   -0.2110 H       1  LIG1        0.1232
@<TRIPOS>BOND
     1    21    20    1
     2    20    19    3
     3    18    17    1
     4    17    13    1
     5     6     1    1
     6    19    14    1
     7     5     1   ar
     8     5     4   ar
     9    13    14   ar
    10    13    12   ar
    11     1     2   ar
    12    14    15   ar
    13    42    41    1
    14    12     4    1
    15    12    16   ar
    16    39    38    1
    17    38    33    1
    18    15    16   ar
    19    15    22    1
    20     4     3   ar
    21    41    40    3
    22    26    22   ar
    23    26    25   ar
    24    40    34    1
    25    33    34   ar
    26    33    32   ar
    27    22    23   ar
    28    34    35   ar
    29     2     3   ar
    30     2     7    1
    31    32    25    1
    32    32    36   ar
    33    25    24   ar
    34    35    36   ar
    35    35    37    1
    36    23    24   ar
    37    23    27    1
    38     3     9    1
    39    24    29    1
    40     7     8    1
    41    27    28    1
    42    29    30    3
    43    30    31    1
    44     9    10    3
    45    10    11    1
