@<TRIPOS>MOLECULE
mol_data/opt/m06hf/geoms/mol2/12fe12fe12fe-12fe.out
 42 45 0 0 0
SMALL
GASTEIGER

@<TRIPOS>ATOM
      1 C           0.1108    1.7921   -0.0000 C.ar    1  LIG1        0.1353
      2 C           1.4599    1.7308    0.0000 C.ar    1  LIG1        0.1709
      3 C           1.9439    3.0930   -0.0000 C.ar    1  LIG1        0.1149
      4 C           0.8194    3.8732   -0.0000 C.ar    1  LIG1        0.1924
      5 O          -0.2765    3.0995   -0.0000 O.2     1  LIG1       -0.4547
      6 H          -0.6597    1.0454   -0.0000 H       1  LIG1        0.1068
      7 O           2.2380    0.6273    0.0000 O.3     1  LIG1       -0.5028
      8 H           3.1643    0.9020    0.0000 H       1  LIG1        0.2923
      9 C           3.3341    3.4132    0.0000 C.1     1  LIG1       -0.0621
     10 C           4.5271    3.5642   -0.0000 C.1     1  LIG1       -0.1137
     11 H           5.5785    3.7343   -0.0002 H       1  LIG1        0.1232
     12 C           0.5837    5.2999   -0.0001 C.ar    1  LIG1        0.2144
     13 C           1.3651    6.4130   -0.0000 C.ar    1  LIG1        0.1823
     14 C           0.4799    7.5534   -0.0001 C.ar    1  LIG1        0.1157
     15 C          -0.7843    7.0339   -0.0001 C.ar    1  LIG1        0.1934
     16 O          -0.7300    5.6901   -0.0001 O.2     1  LIG1       -0.4434
     17 O           2.7059    6.4709    0.0000 O.3     1  LIG1       -0.5023
     18 H           2.9792    7.3982    0.0000 H       1  LIG1        0.2923
     19 C           0.9279    8.9076   -0.0001 C.1     1  LIG1       -0.0621
     20 C           1.3754   10.0235   -0.0001 C.1     1  LIG1       -0.1137
     21 H           1.7444   11.0234   -0.0001 H       1  LIG1        0.1232
     22 C          -2.1121    7.5775   -0.0002 C.ar    1  LIG1        0.2144
     23 C          -3.3117    6.9229   -0.0002 C.ar    1  LIG1        0.1823
     24 C          -4.3262    7.9411   -0.0002 C.ar    1  LIG1        0.1157
     25 C          -3.6384    9.1293   -0.0002 C.ar    1  LIG1        0.1934
     26 O          -2.3151    8.9205   -0.0002 O.2     1  LIG1       -0.4434
     27 O          -3.5685    5.6087   -0.0002 O.3     1  LIG1       -0.5023
     28 H          -2.7421    5.1054   -0.0002 H       1  LIG1        0.2923
     29 C          -5.7369    7.7232   -0.0003 C.1     1  LIG1       -0.0621
     30 C          -6.9191    7.5162   -0.0003 C.1     1  LIG1       -0.1137
     31 H          -7.9675    7.3295   -0.0003 H       1  LIG1        0.1232
     32 C          -4.0811   10.5026   -0.0002 C.ar    1  LIG1        0.2134
     33 C          -3.4081   11.6881   -0.0002 C.ar    1  LIG1        0.1815
     34 C          -4.4146   12.7196   -0.0003 C.ar    1  LIG1        0.1045
     35 C          -5.6094   12.0650   -0.0003 C.ar    1  LIG1        0.1118
     36 O          -5.4189   10.7457   -0.0003 O.2     1  LIG1       -0.4547
     37 H          -6.6251   12.4191   -0.0003 H       1  LIG1        0.1043
     38 O          -2.0778   11.8776   -0.0002 O.3     1  LIG1       -0.5023
     39 H          -1.9003   12.8270   -0.0002 H       1  LIG1        0.2923
     40 C          -4.1288   14.1203   -0.0002 C.1     1  LIG1       -0.0628
     41 C          -3.8227   15.2826   -0.0002 C.1     1  LIG1       -0.1137
     42 H          -3.5715   16.3184   -0.0003 H       1  LIG1        0.1232
@<TRIPOS>BOND
     1    31    30    1
     2    37    35    1
     3    35    36   ar
     4    35    34   ar
     5    36    32   ar
     6    29    30    3
     7    29    24    1
     8    42    41    1
     9    34    40    1
    10    34    33   ar
    11    40    41    3
    12    32    25    1
    13    32    33   ar
    14    24    25   ar
    15    24    23   ar
    16    25    26   ar
    17    33    38    1
    18    11    10    1
    19    23    27    1
    20    23    22   ar
    21    27    28    1
    22    26    22   ar
    23    39    38    1
    24    22    15    1
    25    15    16   ar
    26    15    14   ar
    27    16    12   ar
    28    14    19    1
    29    14    13   ar
    30    19    20    3
    31    20    21    1
    32    12     4    1
    33    12    13   ar
    34     5     4   ar
    35     5     1   ar
    36     4     3   ar
    37    13    17    1
    38     6     1    1
    39     1     2   ar
    40    10     9    3
    41     3     9    1
    42     3     2   ar
    43     2     7    1
    44     7     8    1
    45    18    17    1
