@<TRIPOS>MOLECULE
mol_data/opt/m06hf/geoms/mol2/12fe12fe12fe-12fe-.out
 42 45 0 0 0
SMALL
GASTEIGER

@<TRIPOS>ATOM
      1 C           0.0722    1.8085   -0.0001 C.ar    1  LIG1        0.1353
      2 C           1.4206    1.7224   -0.0000 C.ar    1  LIG1        0.1709
      3 C           1.9291    3.0755   -0.0000 C.ar    1  LIG1        0.1149
      4 C           0.8198    3.8761   -0.0001 C.ar    1  LIG1        0.1924
      5 O          -0.2911    3.1232   -0.0001 O.2     1  LIG1       -0.4547
      6 H          -0.7118    1.0757   -0.0002 H       1  LIG1        0.1068
      7 O           2.1777    0.6049    0.0000 O.3     1  LIG1       -0.5028
      8 H           3.1088    0.8625    0.0001 H       1  LIG1        0.2923
      9 C           3.3246    3.3719    0.0001 C.1     1  LIG1       -0.0621
     10 C           4.5197    3.5098    0.0002 C.1     1  LIG1       -0.1137
     11 H           5.5729    3.6716    0.0002 H       1  LIG1        0.1232
     12 C           0.6097    5.3069   -0.0001 C.ar    1  LIG1        0.2144
     13 C           1.4096    6.4064   -0.0001 C.ar    1  LIG1        0.1823
     14 C           0.5439    7.5626   -0.0002 C.ar    1  LIG1        0.1157
     15 C          -0.7284    7.0642   -0.0002 C.ar    1  LIG1        0.1934
     16 O          -0.6967    5.7196   -0.0001 O.2     1  LIG1       -0.4434
     17 O           2.7507    6.4389   -0.0001 O.3     1  LIG1       -0.5023
     18 H           3.0455    7.3596   -0.0002 H       1  LIG1        0.2923
     19 C           1.0145    8.9088   -0.0002 C.1     1  LIG1       -0.0621
     20 C           1.4835   10.0154   -0.0002 C.1     1  LIG1       -0.1137
     21 H           1.8760   11.0060   -0.0002 H       1  LIG1        0.1232
     22 C          -2.0515    7.6199   -0.0002 C.ar    1  LIG1        0.2144
     23 C          -3.2516    6.9699   -0.0002 C.ar    1  LIG1        0.1823
     24 C          -4.2587    7.9943   -0.0002 C.ar    1  LIG1        0.1157
     25 C          -3.5720    9.1868   -0.0002 C.ar    1  LIG1        0.1934
     26 O          -2.2517    8.9633   -0.0002 O.2     1  LIG1       -0.4434
     27 O          -3.5196    5.6585   -0.0002 O.3     1  LIG1       -0.5023
     28 H          -2.6967    5.1478   -0.0001 H       1  LIG1        0.2923
     29 C          -5.6685    7.7697   -0.0002 C.1     1  LIG1       -0.0621
     30 C          -6.8512    7.5444   -0.0002 C.1     1  LIG1       -0.1137
     31 H          -7.8942    7.3228   -0.0002 H       1  LIG1        0.1232
     32 C          -3.9895   10.5715   -0.0002 C.ar    1  LIG1        0.2134
     33 C          -5.2059   11.2017   -0.0002 C.ar    1  LIG1        0.1815
     34 C          -4.9204   12.6150   -0.0002 C.ar    1  LIG1        0.1045
     35 C          -3.5635   12.7122   -0.0002 C.ar    1  LIG1        0.1118
     36 O          -2.9965   11.5051   -0.0002 O.2     1  LIG1       -0.4547
     37 H          -2.9075   13.5649   -0.0002 H       1  LIG1        0.1043
     38 O          -6.4561   10.7295   -0.0002 O.3     1  LIG1       -0.5023
     39 H          -6.4799    9.7604   -0.0002 H       1  LIG1        0.2923
     40 C          -5.8775   13.6776   -0.0002 C.1     1  LIG1       -0.0628
     41 C          -6.6798   14.5702   -0.0003 C.1     1  LIG1       -0.1137
     42 H          -7.3975   15.3577   -0.0003 H       1  LIG1        0.1232
@<TRIPOS>BOND
     1    42    41    1
     2    41    40    3
     3    40    34    1
     4    34    35   ar
     5    34    33   ar
     6    38    33    1
     7    38    39    1
     8    37    35    1
     9    35    36   ar
    10    33    32   ar
    11    21    20    1
    12    36    32   ar
    13    32    25    1
    14    25    26   ar
    15    25    24   ar
    16    30    29    3
    17    30    31    1
    18    29    24    1
    19    20    19    3
    20    26    22   ar
    21    24    23   ar
    22    19    14    1
    23    22    23   ar
    24    22    15    1
    25    23    27    1
    26    27    28    1
    27    18    17    1
    28    15    14   ar
    29    15    16   ar
    30    14    13   ar
    31     6     1    1
    32     5     1   ar
    33     5     4   ar
    34    16    12   ar
    35    13    17    1
    36    13    12   ar
    37    12     4    1
    38     1     2   ar
    39     4     3   ar
    40     2     3   ar
    41     2     7    1
    42     3     9    1
    43     7     8    1
    44     9    10    3
    45    10    11    1
