@<TRIPOS>MOLECULE
mol_data/opt/m06hf/geoms/mol2/12ff12ff-12ff12ff.out
 38 41 0 0 0
SMALL
GASTEIGER

@<TRIPOS>ATOM
      1 C           0.6403    1.6341    0.0000 C.ar    1  LIG1        0.1379
      2 C           1.9592    1.9385    0.0001 C.ar    1  LIG1        0.1977
      3 C           2.0516    3.3748    0.0000 C.ar    1  LIG1        0.2084
      4 C           0.7701    3.8232   -0.0000 C.ar    1  LIG1        0.2184
      5 O          -0.0980    2.7833   -0.0001 O.2     1  LIG1       -0.4521
      6 H           0.1065    0.7029    0.0000 H       1  LIG1        0.1069
      7 O           3.0200    1.0975    0.0001 O.3     1  LIG1       -0.5012
      8 H           3.8242    1.6320    0.0001 H       1  LIG1        0.2924
      9 O           3.2397    4.0187    0.0001 O.3     1  LIG1       -0.5007
     10 H           3.1291    4.9849   -0.0000 H       1  LIG1        0.2924
     11 C           0.2987    5.1827   -0.0001 C.ar    1  LIG1        0.2194
     12 C          -0.9013    5.8146   -0.0002 C.ar    1  LIG1        0.2092
     13 C          -0.6190    7.2269   -0.0002 C.ar    1  LIG1        0.2092
     14 C           0.7362    7.3441   -0.0002 C.ar    1  LIG1        0.2195
     15 O           1.2916    6.1022   -0.0001 O.2     1  LIG1       -0.4407
     16 O          -2.1726    5.3403   -0.0002 O.3     1  LIG1       -0.5007
     17 H          -2.1680    4.3748   -0.0001 H       1  LIG1        0.2924
     18 O          -1.5430    8.2105   -0.0003 O.3     1  LIG1       -0.5007
     19 H          -2.4209    7.8082   -0.0003 H       1  LIG1        0.2924
     20 C           1.7100    8.4060   -0.0002 C.ar    1  LIG1        0.2195
     21 C           3.0690    8.3151   -0.0002 C.ar    1  LIG1        0.2092
     22 C           3.5598    9.6580   -0.0002 C.ar    1  LIG1        0.2092
     23 C           2.4568   10.4618   -0.0002 C.ar    1  LIG1        0.2194
     24 O           1.3328    9.7031   -0.0002 O.2     1  LIG1       -0.4407
     25 O           3.8376    7.1939   -0.0001 O.3     1  LIG1       -0.5007
     26 H           4.7648    7.4656   -0.0001 H       1  LIG1        0.2924
     27 O           4.8867    9.9150   -0.0001 O.3     1  LIG1       -0.5007
     28 H           5.0579   10.8713   -0.0002 H       1  LIG1        0.2924
     29 C           2.3334   11.9039   -0.0002 C.ar    1  LIG1        0.2184
     30 C           3.2856   12.8713   -0.0002 C.ar    1  LIG1        0.2084
     31 C           2.5942   14.1234   -0.0002 C.ar    1  LIG1        0.1977
     32 C           1.2717   13.8248   -0.0002 C.ar    1  LIG1        0.1379
     33 O           1.1130   12.4789   -0.0002 O.2     1  LIG1       -0.4521
     34 H           0.3801   14.4243   -0.0002 H       1  LIG1        0.1069
     35 O           4.6388   12.6912   -0.0002 O.3     1  LIG1       -0.5007
     36 H           5.0807   13.5496   -0.0002 H       1  LIG1        0.2924
     37 O           3.2895   15.2928   -0.0002 O.3     1  LIG1       -0.5012
     38 H           2.7003   16.0542   -0.0002 H       1  LIG1        0.2924
@<TRIPOS>BOND
     1    18    19    1
     2    18    13    1
     3    36    35    1
     4    13    12   ar
     5    13    14   ar
     6    16    12    1
     7    16    17    1
     8    37    38    1
     9    37    31    1
    10    35    30    1
    11    30    31   ar
    12    30    29   ar
    13    31    32   ar
    14    24    23   ar
    15    24    20   ar
    16    29    23    1
    17    29    33   ar
    18    32    34    1
    19    32    33   ar
    20    23    22   ar
    21    20    14    1
    22    20    21   ar
    23    28    27    1
    24    12    11   ar
    25    14    15   ar
    26    22    21   ar
    27    22    27    1
    28    21    25    1
    29    26    25    1
    30    11    15   ar
    31    11     4    1
    32     5     4   ar
    33     5     1   ar
    34     4     3   ar
    35    10     9    1
    36     6     1    1
    37     1     2   ar
    38     3     2   ar
    39     3     9    1
    40     2     7    1
    41     7     8    1
