@<TRIPOS>MOLECULE
mol_data/opt/m06hf/geoms/mol2/12ff12ff12ff12ff-.out
 38 41 0 0 0
SMALL
GASTEIGER

@<TRIPOS>ATOM
      1 C           0.7933    1.5594   -0.0002 C.ar    1  LIG1        0.1379
      2 C           2.1238    1.8086   -0.0003 C.ar    1  LIG1        0.1977
      3 C           2.2698    3.2371   -0.0002 C.ar    1  LIG1        0.2084
      4 C           1.0043    3.7422   -0.0000 C.ar    1  LIG1        0.2184
      5 O           0.1061    2.7297   -0.0001 O.2     1  LIG1       -0.4521
      6 H           0.2232    0.6493   -0.0003 H       1  LIG1        0.1069
      7 O           3.1514    0.9262   -0.0004 O.3     1  LIG1       -0.5012
      8 H           3.9783    1.4255   -0.0004 H       1  LIG1        0.2924
      9 O           3.4920    3.8151   -0.0002 O.3     1  LIG1       -0.5007
     10 H           3.4193    4.7834   -0.0001 H       1  LIG1        0.2924
     11 C           0.5269    5.1076    0.0001 C.ar    1  LIG1        0.2194
     12 C           1.2053    6.2857    0.0002 C.ar    1  LIG1        0.2092
     13 C           0.2320    7.3297    0.0002 C.ar    1  LIG1        0.2092
     14 C          -0.9797    6.7021    0.0001 C.ar    1  LIG1        0.2195
     15 O          -0.8026    5.3562    0.0001 O.2     1  LIG1       -0.4407
     16 O           2.5595    6.4499    0.0002 O.3     1  LIG1       -0.5007
     17 H           2.7684    7.3930    0.0003 H       1  LIG1        0.2924
     18 O           0.5933    8.6306    0.0002 O.3     1  LIG1       -0.5007
     19 H          -0.1878    9.2084    0.0002 H       1  LIG1        0.2924
     20 C          -2.3241    7.2263   -0.0000 C.ar    1  LIG1        0.2195
     21 C          -2.7867    8.5039   -0.0002 C.ar    1  LIG1        0.2092
     22 C          -4.2154    8.4305   -0.0004 C.ar    1  LIG1        0.2092
     23 C          -4.5173    7.1069   -0.0003 C.ar    1  LIG1        0.2194
     24 O          -3.3765    6.3681   -0.0000 O.2     1  LIG1       -0.4407
     25 O          -2.0251    9.6348   -0.0002 O.3     1  LIG1       -0.5007
     26 H          -2.5954   10.4144   -0.0005 H       1  LIG1        0.2924
     27 O          -5.0085    9.5275   -0.0006 O.3     1  LIG1       -0.5007
     28 H          -5.9379    9.2597   -0.0008 H       1  LIG1        0.2924
     29 C          -5.7709    6.4015   -0.0004 C.ar    1  LIG1        0.2184
     30 C          -6.0596    5.0777   -0.0001 C.ar    1  LIG1        0.2084
     31 C          -7.4965    4.9858   -0.0004 C.ar    1  LIG1        0.1977
     32 C          -7.9643    6.2548   -0.0009 C.ar    1  LIG1        0.1379
     33 O          -6.9157    7.1316   -0.0009 O.2     1  LIG1       -0.4521
     34 H          -8.9555    6.6670   -0.0012 H       1  LIG1        0.1069
     35 O          -5.2679    3.9816    0.0005 O.3     1  LIG1       -0.5007
     36 H          -4.3334    4.2318    0.0007 H       1  LIG1        0.2924
     37 O          -8.1994    3.8309   -0.0002 O.3     1  LIG1       -0.5012
     38 H          -7.5758    3.0936    0.0004 H       1  LIG1        0.2924
@<TRIPOS>BOND
     1    34    32    1
     2    32    33   ar
     3    32    31   ar
     4    33    29   ar
     5    28    27    1
     6    27    22    1
     7    26    25    1
     8     8     7    1
     9     7     2    1
    10    31    37    1
    11    31    30   ar
    12    22    23   ar
    13    22    21   ar
    14    29    23    1
    15    29    30   ar
    16     6     1    1
    17     2     1   ar
    18     2     3   ar
    19    23    24   ar
    20     1     5   ar
    21    25    21    1
    22    37    38    1
    23    21    20   ar
    24     9     3    1
    25     9    10    1
    26     3     4   ar
    27     5     4   ar
    28    30    35    1
    29    24    20   ar
    30     4    11    1
    31    20    14    1
    32    15    11   ar
    33    15    14   ar
    34    11    12   ar
    35    14    13   ar
    36    12    13   ar
    37    12    16    1
    38    13    18    1
    39    19    18    1
    40    16    17    1
    41    35    36    1
