@<TRIPOS>MOLECULE
mol_data/opt/m06hf/geoms/mol2/12ff12ff-12ff-12ff.out
 38 41 0 0 0
SMALL
GASTEIGER

@<TRIPOS>ATOM
      1 C           0.1097    1.6908   -0.0000 C.ar    1  LIG1        0.1379
      2 C           1.4624    1.7219    0.0000 C.ar    1  LIG1        0.1977
      3 C           1.8430    3.1107    0.0000 C.ar    1  LIG1        0.2084
      4 C           0.6819    3.8106   -0.0000 C.ar    1  LIG1        0.2184
      5 O          -0.3795    2.9667   -0.0001 O.2     1  LIG1       -0.4521
      6 H          -0.5996    0.8852   -0.0000 H       1  LIG1        0.1069
      7 O           2.3245    0.6798    0.0001 O.3     1  LIG1       -0.5012
      8 H           3.2253    1.0270    0.0001 H       1  LIG1        0.2924
      9 O           3.1371    3.5034    0.0001 O.3     1  LIG1       -0.5007
     10 H           3.2138    4.4691    0.0001 H       1  LIG1        0.2924
     11 C           0.4518    5.2306   -0.0000 C.ar    1  LIG1        0.2194
     12 C          -0.6607    6.0100   -0.0001 C.ar    1  LIG1        0.2092
     13 C          -0.1891    7.3638   -0.0001 C.ar    1  LIG1        0.2092
     14 C           1.1677    7.3070   -0.0000 C.ar    1  LIG1        0.2195
     15 O           1.5628    6.0101    0.0000 O.2     1  LIG1       -0.4407
     16 O          -1.9770    5.6876   -0.0002 O.3     1  LIG1       -0.5007
     17 H          -2.0783    4.7267   -0.0003 H       1  LIG1        0.2924
     18 O          -0.9389    8.5024   -0.0002 O.3     1  LIG1       -0.5007
     19 H          -1.8768    8.2741   -0.0005 H       1  LIG1        0.2924
     20 C           2.1867    8.3252   -0.0000 C.ar    1  LIG1        0.2195
     21 C           2.1325    9.6856   -0.0000 C.ar    1  LIG1        0.2092
     22 C           3.4941   10.1378   -0.0001 C.ar    1  LIG1        0.2092
     23 C           4.2673    9.0155   -0.0001 C.ar    1  LIG1        0.2194
     24 O           3.4751    7.9152   -0.0000 O.2     1  LIG1       -0.4407
     25 O           1.0948   10.5526   -0.0000 O.3     1  LIG1       -0.5007
     26 H           0.2484   10.0779   -0.0001 H       1  LIG1        0.2924
     27 O           3.8870   11.4304   -0.0001 O.3     1  LIG1       -0.5007
     28 H           3.0972   11.9863   -0.0001 H       1  LIG1        0.2924
     29 C           5.6906    8.7677   -0.0001 C.ar    1  LIG1        0.2184
     30 C           6.3970    7.6049   -0.0001 C.ar    1  LIG1        0.2084
     31 C           7.7794    7.9898   -0.0002 C.ar    1  LIG1        0.1977
     32 C           7.8075    9.3441   -0.0003 C.ar    1  LIG1        0.1379
     33 O           6.5404    9.8204   -0.0003 O.2     1  LIG1       -0.4521
     34 H           8.6041   10.0658   -0.0004 H       1  LIG1        0.1069
     35 O           5.9357    6.3306    0.0000 O.3     1  LIG1       -0.5007
     36 H           6.6968    5.7361    0.0000 H       1  LIG1        0.2924
     37 O           8.7532    7.0381   -0.0002 O.3     1  LIG1       -0.5012
     38 H           9.6310    7.4328   -0.0003 H       1  LIG1        0.2924
@<TRIPOS>BOND
     1    19    18    1
     2    34    32    1
     3    32    33   ar
     4    32    31   ar
     5    38    37    1
     6    33    29   ar
     7    17    16    1
     8    16    12    1
     9    31    37    1
    10    31    30   ar
    11    18    13    1
    12    12    13   ar
    13    12    11   ar
    14    29    30   ar
    15    29    23    1
    16    13    14   ar
    17    27    28    1
    18    27    22    1
    19    30    35    1
    20    23    22   ar
    21    23    24   ar
    22     5     1   ar
    23     5     4   ar
    24    22    21   ar
    25    26    25    1
    26    24    20   ar
    27    11     4    1
    28    11    15   ar
    29     6     1    1
    30    21    25    1
    31    21    20   ar
    32    14    20    1
    33    14    15   ar
    34     1     2   ar
    35     4     3   ar
    36     2     3   ar
    37     2     7    1
    38     3     9    1
    39    35    36    1
    40    10     9    1
    41     8     7    1
