@<TRIPOS>MOLECULE
mol_data/opt/m06hf/geoms/mol2/12ff12ff-.out
 20 21 0 0 0
SMALL
GASTEIGER

@<TRIPOS>ATOM
      1 C           0.1792    1.8028    0.0002 C.ar    1  LIG1        0.1379
      2 C           1.5319    1.8052    0.0000 C.ar    1  LIG1        0.1977
      3 C           1.9378    3.1866   -0.0000 C.ar    1  LIG1        0.2084
      4 C           0.7963    3.9135   -0.0000 C.ar    1  LIG1        0.2184
      5 O          -0.2815    3.0887   -0.0001 O.2     1  LIG1       -0.4521
      6 H          -0.5478    1.0134    0.0004 H       1  LIG1        0.1069
      7 O           2.3697    0.7427   -0.0001 O.3     1  LIG1       -0.5012
      8 H           3.2791    1.0667   -0.0002 H       1  LIG1        0.2924
      9 O           3.2380    3.5685   -0.0001 O.3     1  LIG1       -0.5007
     10 H           3.2944    4.5332   -0.0001 H       1  LIG1        0.2924
     11 C           0.5620    5.3364   -0.0001 C.ar    1  LIG1        0.2184
     12 C          -0.5796    6.0634   -0.0001 C.ar    1  LIG1        0.2084
     13 C          -0.1737    7.4448   -0.0001 C.ar    1  LIG1        0.1977
     14 C           1.1790    7.4472    0.0000 C.ar    1  LIG1        0.1379
     15 O           1.6397    6.1612   -0.0001 O.2     1  LIG1       -0.4521
     16 H           1.9060    8.2365    0.0001 H       1  LIG1        0.1069
     17 O          -1.8798    5.6815   -0.0002 O.3     1  LIG1       -0.5007
     18 H          -1.9362    4.7167   -0.0002 H       1  LIG1        0.2924
     19 O          -1.0115    8.5072   -0.0002 O.3     1  LIG1       -0.5012
     20 H          -1.9209    8.1833   -0.0004 H       1  LIG1        0.2924
@<TRIPOS>BOND
     1    20    19    1
     2    19    13    1
     3    18    17    1
     4     8     7    1
     5    17    12    1
     6    12    13   ar
     7    12    11   ar
     8    13    14   ar
     9    10     9    1
    10    15    11   ar
    11    15    14   ar
    12     9     3    1
    13     7     2    1
    14    11     4    1
    15     5     4   ar
    16     5     1   ar
    17     3     4   ar
    18     3     2   ar
    19     2     1   ar
    20    14    16    1
    21     1     6    1
