@<TRIPOS>MOLECULE
mol_data/opt/m06hf/geoms/mol2/12ff12ff12ff12ff.out
 38 41 0 0 0
SMALL
GASTEIGER

@<TRIPOS>ATOM
      1 C           1.0192    1.5287   -0.0000 C.ar    1  LIG1        0.1379
      2 C           2.3362    1.8397   -0.0000 C.ar    1  LIG1        0.1977
      3 C           2.4154    3.2733   -0.0000 C.ar    1  LIG1        0.2084
      4 C           1.1277    3.7193   -0.0000 C.ar    1  LIG1        0.2184
      5 O           0.2792    2.6657   -0.0000 O.2     1  LIG1       -0.4521
      6 H           0.4908    0.5942    0.0000 H       1  LIG1        0.1069
      7 O           3.4068    1.0083   -0.0000 O.3     1  LIG1       -0.5012
      8 H           4.2059    1.5513   -0.0001 H       1  LIG1        0.2924
      9 O           3.6117    3.9050   -0.0001 O.3     1  LIG1       -0.5007
     10 H           3.4954    4.8689   -0.0001 H       1  LIG1        0.2924
     11 C           0.5876    5.0620   -0.0000 C.ar    1  LIG1        0.2194
     12 C           1.2147    6.2683   -0.0000 C.ar    1  LIG1        0.2092
     13 C           0.1976    7.2682   -0.0001 C.ar    1  LIG1        0.2092
     14 C          -0.9865    6.5884   -0.0001 C.ar    1  LIG1        0.2195
     15 O          -0.7500    5.2529   -0.0001 O.2     1  LIG1       -0.4407
     16 O           2.5608    6.4931   -0.0000 O.3     1  LIG1       -0.5007
     17 H           2.7245    7.4451   -0.0000 H       1  LIG1        0.2924
     18 O           0.5059    8.5835   -0.0001 O.3     1  LIG1       -0.5007
     19 H          -0.2990    9.1284   -0.0001 H       1  LIG1        0.2924
     20 C          -2.3508    7.0647   -0.0001 C.ar    1  LIG1        0.2195
     21 C          -2.8448    8.3315   -0.0001 C.ar    1  LIG1        0.2092
     22 C          -4.2672    8.2241   -0.0002 C.ar    1  LIG1        0.2092
     23 C          -4.5348    6.8858   -0.0002 C.ar    1  LIG1        0.2194
     24 O          -3.3747    6.1839   -0.0002 O.2     1  LIG1       -0.4407
     25 O          -2.1277    9.4926   -0.0001 O.3     1  LIG1       -0.5007
     26 H          -2.7382   10.2413   -0.0002 H       1  LIG1        0.2924
     27 O          -5.0532    9.3230   -0.0002 O.3     1  LIG1       -0.5007
     28 H          -5.9940    9.0780   -0.0003 H       1  LIG1        0.2924
     29 C          -5.7924    6.1700   -0.0003 C.ar    1  LIG1        0.2184
     30 C          -7.0701    6.6297   -0.0003 C.ar    1  LIG1        0.2084
     31 C          -7.9166    5.4761   -0.0004 C.ar    1  LIG1        0.1977
     32 C          -7.0911    4.4012   -0.0003 C.ar    1  LIG1        0.1379
     33 O          -5.8028    4.8215   -0.0003 O.2     1  LIG1       -0.4521
     34 H          -7.2602    3.3399   -0.0004 H       1  LIG1        0.1069
     35 O          -7.4724    7.9344   -0.0004 O.3     1  LIG1       -0.5007
     36 H          -8.4372    7.9760   -0.0004 H       1  LIG1        0.2924
     37 O          -9.2696    5.6166   -0.0005 O.3     1  LIG1       -0.5012
     38 H          -9.7126    4.7616   -0.0004 H       1  LIG1        0.2924
@<TRIPOS>BOND
     1    37    38    1
     2    37    31    1
     3    36    35    1
     4    31    32   ar
     5    31    30   ar
     6    35    30    1
     7    34    32    1
     8    32    33   ar
     9    30    29   ar
    10    28    27    1
    11    29    33   ar
    12    29    23    1
    13    27    22    1
    14    23    22   ar
    15    23    24   ar
    16    22    21   ar
    17    26    25    1
    18    24    20   ar
    19    21    20   ar
    20    21    25    1
    21    20    14    1
    22     9    10    1
    23     9     3    1
    24    19    18    1
    25    14    15   ar
    26    14    13   ar
    27     8     7    1
    28    18    13    1
    29    15    11   ar
    30    13    12   ar
    31     7     2    1
    32     3     2   ar
    33     3     4   ar
    34     2     1   ar
    35    11     4    1
    36    11    12   ar
    37     4     5   ar
    38    12    16    1
    39    17    16    1
    40     1     5   ar
    41     1     6    1
