@<TRIPOS>MOLECULE
mol_data/opt/m06hf/geoms/mol2/12ff12ff-12ff12ff-.out
 38 41 0 0 0
SMALL
GASTEIGER

@<TRIPOS>ATOM
      1 C           0.1880    1.7101   -0.0001 C.ar    1  LIG1        0.1379
      2 C           1.5400    1.7622    0.0000 C.ar    1  LIG1        0.1977
      3 C           1.8979    3.1565   -0.0000 C.ar    1  LIG1        0.2084
      4 C           0.7255    3.8383   -0.0001 C.ar    1  LIG1        0.2184
      5 O          -0.3220    2.9774   -0.0000 O.2     1  LIG1       -0.4521
      6 H          -0.5083    0.8930   -0.0001 H       1  LIG1        0.1069
      7 O           2.4160    0.7314    0.0001 O.3     1  LIG1       -0.5012
      8 H           3.3128    1.0887    0.0001 H       1  LIG1        0.2924
      9 O           3.1831    3.5781    0.0000 O.3     1  LIG1       -0.5007
     10 H           3.2297    4.5461    0.0000 H       1  LIG1        0.2924
     11 C           0.4732    5.2542   -0.0001 C.ar    1  LIG1        0.2194
     12 C          -0.6530    6.0117   -0.0001 C.ar    1  LIG1        0.2092
     13 C          -0.2167    7.3803   -0.0001 C.ar    1  LIG1        0.2092
     14 C           1.1430    7.3457   -0.0001 C.ar    1  LIG1        0.2195
     15 O           1.5688    6.0550   -0.0001 O.2     1  LIG1       -0.4407
     16 O          -1.9632    5.6651   -0.0001 O.3     1  LIG1       -0.5007
     17 H          -2.0505    4.7027   -0.0001 H       1  LIG1        0.2924
     18 O          -1.0138    8.4753   -0.0002 O.3     1  LIG1       -0.5007
     19 H          -1.9352    8.1866   -0.0002 H       1  LIG1        0.2924
     20 C           2.1474    8.3736   -0.0001 C.ar    1  LIG1        0.2195
     21 C           3.5072    8.3390   -0.0001 C.ar    1  LIG1        0.2092
     22 C           3.9435    9.7076   -0.0001 C.ar    1  LIG1        0.2092
     23 C           2.8172   10.4651   -0.0002 C.ar    1  LIG1        0.2194
     24 O           1.7217    9.6642   -0.0002 O.2     1  LIG1       -0.4407
     25 O           4.3043    7.2440   -0.0001 O.3     1  LIG1       -0.5007
     26 H           5.2257    7.5327   -0.0001 H       1  LIG1        0.2924
     27 O           5.2536   10.0542   -0.0001 O.3     1  LIG1       -0.5007
     28 H           5.3410   11.0165   -0.0002 H       1  LIG1        0.2924
     29 C           2.5650   11.8810   -0.0002 C.ar    1  LIG1        0.2184
     30 C           1.3926   12.5628   -0.0002 C.ar    1  LIG1        0.2084
     31 C           1.7504   13.9571   -0.0002 C.ar    1  LIG1        0.1977
     32 C           3.1025   14.0091   -0.0003 C.ar    1  LIG1        0.1379
     33 O           3.6124   12.7419   -0.0002 O.2     1  LIG1       -0.4521
     34 H           3.7987   14.8263   -0.0003 H       1  LIG1        0.1069
     35 O           0.1074   12.1411   -0.0001 O.3     1  LIG1       -0.5007
     36 H           0.0607   11.1732   -0.0001 H       1  LIG1        0.2924
     37 O           0.8745   14.9879   -0.0002 O.3     1  LIG1       -0.5012
     38 H          -0.0224   14.6306   -0.0002 H       1  LIG1        0.2924
@<TRIPOS>BOND
     1    34    32    1
     2    32    31   ar
     3    32    33   ar
     4    31    37    1
     5    31    30   ar
     6    37    38    1
     7    33    29   ar
     8    29    30   ar
     9    29    23    1
    10    30    35    1
    11    23    24   ar
    12    23    22   ar
    13    19    18    1
    14    24    20   ar
    15    18    13    1
    16    28    27    1
    17    22    27    1
    18    22    21   ar
    19    35    36    1
    20    20    14    1
    21    20    21   ar
    22    13    14   ar
    23    13    12   ar
    24    14    15   ar
    25    21    25    1
    26    16    12    1
    27    16    17    1
    28    12    11   ar
    29     6     1    1
    30    15    11   ar
    31    26    25    1
    32    11     4    1
    33     1     5   ar
    34     1     2   ar
    35     4     5   ar
    36     4     3   ar
    37     3     2   ar
    38     3     9    1
    39     2     7    1
    40    10     9    1
    41     7     8    1
