@<TRIPOS>MOLECULE
mol_data/opt/m06hf/geoms/mol2/12ff12ff-12ff.out
 29 31 0 0 0
SMALL
GASTEIGER

@<TRIPOS>ATOM
      1 C           0.3937    1.7661    0.0000 C.ar    1  LIG1        0.1379
      2 C           1.7344    1.9523    0.0000 C.ar    1  LIG1        0.1977
      3 C           1.9536    3.3748   -0.0000 C.ar    1  LIG1        0.2084
      4 C           0.7173    3.9353   -0.0001 C.ar    1  LIG1        0.2184
      5 O          -0.2396    2.9764   -0.0001 O.2     1  LIG1       -0.4521
      6 H          -0.2204    0.8856    0.0000 H       1  LIG1        0.1069
      7 O           2.7149    1.0190    0.0001 O.3     1  LIG1       -0.5012
      8 H           3.5647    1.4775    0.0001 H       1  LIG1        0.2924
      9 O           3.1933    3.9136   -0.0000 O.3     1  LIG1       -0.5007
     10 H           3.1634    4.8851   -0.0001 H       1  LIG1        0.2924
     11 C           0.3625    5.3298   -0.0001 C.ar    1  LIG1        0.2194
     12 C          -0.7844    6.0526   -0.0001 C.ar    1  LIG1        0.2092
     13 C          -0.3930    7.4386   -0.0002 C.ar    1  LIG1        0.2092
     14 C           0.9668    7.4494   -0.0002 C.ar    1  LIG1        0.2194
     15 O           1.4250    6.1685   -0.0002 O.2     1  LIG1       -0.4407
     16 O          -2.0880    5.6767   -0.0001 O.3     1  LIG1       -0.5007
     17 H          -2.1562    4.7134   -0.0001 H       1  LIG1        0.2924
     18 O          -1.2376    8.4918   -0.0002 O.3     1  LIG1       -0.5007
     19 H          -2.1443    8.1593   -0.0001 H       1  LIG1        0.2924
     20 C           2.0165    8.4393   -0.0002 C.ar    1  LIG1        0.2184
     21 C           3.3645    8.2567   -0.0001 C.ar    1  LIG1        0.2084
     22 C           3.9363    9.5713   -0.0001 C.ar    1  LIG1        0.1977
     23 C           2.8992   10.4442   -0.0002 C.ar    1  LIG1        0.1379
     24 O           1.7304    9.7580   -0.0002 O.2     1  LIG1       -0.4521
     25 H           2.8370   11.5170   -0.0002 H       1  LIG1        0.1069
     26 O           4.0525    7.0836   -0.0001 O.3     1  LIG1       -0.5007
     27 H           4.9975    7.2818    0.0000 H       1  LIG1        0.2924
     28 O           5.2878    9.7343   -0.0001 O.3     1  LIG1       -0.5012
     29 H           5.5288   10.6665   -0.0001 H       1  LIG1        0.2924
@<TRIPOS>BOND
     1    25    23    1
     2    24    23   ar
     3    24    20   ar
     4    23    22   ar
     5    18    13    1
     6    18    19    1
     7    14    20    1
     8    14    13   ar
     9    14    15   ar
    10    20    21   ar
    11    13    12   ar
    12    15    11   ar
    13    22    21   ar
    14    22    28    1
    15    12    11   ar
    16    12    16    1
    17    11     4    1
    18    21    26    1
    19    16    17    1
    20    28    29    1
    21    10     9    1
    22     4     5   ar
    23     4     3   ar
    24     5     1   ar
    25    26    27    1
    26     3     9    1
    27     3     2   ar
    28     1     2   ar
    29     1     6    1
    30     2     7    1
    31     8     7    1
