@<TRIPOS>MOLECULE
mol_data/opt/m06hf/geoms/mol2/12ff12ff12ff-12ff.out
 38 41 0 0 0
SMALL
GASTEIGER

@<TRIPOS>ATOM
      1 C           0.6654    1.6333   -0.0001 C.ar    1  LIG1        0.1379
      2 C           1.9900    1.9120   -0.0001 C.ar    1  LIG1        0.1977
      3 C           2.1048    3.3435   -0.0001 C.ar    1  LIG1        0.2084
      4 C           0.8297    3.8210   -0.0000 C.ar    1  LIG1        0.2184
      5 O          -0.0475    2.7894   -0.0000 O.2     1  LIG1       -0.4521
      6 H           0.1158    0.7113   -0.0000 H       1  LIG1        0.1069
      7 O           3.0373    1.0534   -0.0001 O.3     1  LIG1       -0.5012
      8 H           3.8508    1.5741   -0.0001 H       1  LIG1        0.2924
      9 O           3.3143    3.9477   -0.0001 O.3     1  LIG1       -0.5007
     10 H           3.2201    4.9141   -0.0000 H       1  LIG1        0.2924
     11 C           0.3214    5.1748   -0.0000 C.ar    1  LIG1        0.2194
     12 C           0.9686    6.3704    0.0000 C.ar    1  LIG1        0.2092
     13 C          -0.0314    7.3933   -0.0000 C.ar    1  LIG1        0.2092
     14 C          -1.2204    6.7323   -0.0001 C.ar    1  LIG1        0.2195
     15 O          -1.0202    5.3901   -0.0001 O.2     1  LIG1       -0.4407
     16 O           2.3188    6.5633    0.0001 O.3     1  LIG1       -0.5007
     17 H           2.5061    7.5107    0.0001 H       1  LIG1        0.2924
     18 O           0.2730    8.7089   -0.0000 O.3     1  LIG1       -0.5007
     19 H          -0.5267    9.2622   -0.0001 H       1  LIG1        0.2924
     20 C          -2.5500    7.2751   -0.0002 C.ar    1  LIG1        0.2195
     21 C          -3.8139    6.7836   -0.0002 C.ar    1  LIG1        0.2092
     22 C          -4.6931    7.9246   -0.0002 C.ar    1  LIG1        0.2092
     23 C          -3.8917    9.0237   -0.0003 C.ar    1  LIG1        0.2194
     24 O          -2.5896    8.6284   -0.0003 O.2     1  LIG1       -0.4407
     25 O          -4.2913    5.5153   -0.0001 O.3     1  LIG1       -0.5007
     26 H          -3.5647    4.8787   -0.0000 H       1  LIG1        0.2924
     27 O          -6.0415    7.8723   -0.0003 O.3     1  LIG1       -0.5007
     28 H          -6.3137    6.9456   -0.0001 H       1  LIG1        0.2924
     29 C          -4.0569   10.4569   -0.0003 C.ar    1  LIG1        0.2184
     30 C          -3.1023   11.4261   -0.0002 C.ar    1  LIG1        0.2084
     31 C          -3.8112   12.6720   -0.0003 C.ar    1  LIG1        0.1977
     32 C          -5.1316   12.3653   -0.0004 C.ar    1  LIG1        0.1379
     33 O          -5.2834   11.0186   -0.0004 O.2     1  LIG1       -0.4521
     34 H          -6.0276   12.9586   -0.0005 H       1  LIG1        0.1069
     35 O          -1.7505   11.2746   -0.0001 O.3     1  LIG1       -0.5007
     36 H          -1.3438   12.1505   -0.0000 H       1  LIG1        0.2924
     37 O          -3.1300   13.8505   -0.0003 O.3     1  LIG1       -0.5012
     38 H          -3.7303   14.6033   -0.0003 H       1  LIG1        0.2924
@<TRIPOS>BOND
     1    34    32    1
     2    33    32   ar
     3    33    29   ar
     4    32    31   ar
     5    29    23    1
     6    29    30   ar
     7    31    37    1
     8    31    30   ar
     9    23    24   ar
    10    23    22   ar
    11    27    22    1
    12    27    28    1
    13    37    38    1
    14    24    20   ar
    15    22    21   ar
    16    30    35    1
    17    20    21   ar
    18    20    14    1
    19    21    25    1
    20    35    36    1
    21     8     7    1
    22     7     2    1
    23     9     3    1
    24     9    10    1
    25    14    15   ar
    26    14    13   ar
    27    15    11   ar
    28    19    18    1
    29    25    26    1
    30     2     3   ar
    31     2     1   ar
    32     3     4   ar
    33     1     6    1
    34     1     5   ar
    35     4    11    1
    36     4     5   ar
    37    13    18    1
    38    13    12   ar
    39    11    12   ar
    40    12    16    1
    41    17    16    1
