@<TRIPOS>MOLECULE
mol_data/opt/m06hf/geoms/mol2/12ff12ff.out
 20 21 0 0 0
SMALL
GASTEIGER

@<TRIPOS>ATOM
      1 C           0.2124    1.7340   -0.0000 C.ar    1  LIG1        0.1379
      2 C           1.5617    1.8393   -0.0000 C.ar    1  LIG1        0.1977
      3 C           1.8594    3.2440   -0.0000 C.ar    1  LIG1        0.2084
      4 C           0.6561    3.8815   -0.0001 C.ar    1  LIG1        0.2184
      5 O          -0.3449    2.9714   -0.0001 O.2     1  LIG1       -0.4521
      6 H          -0.4520    0.8906    0.0000 H       1  LIG1        0.1069
      7 O           2.4902    0.8526    0.0000 O.3     1  LIG1       -0.5012
      8 H           3.3637    1.2648    0.0000 H       1  LIG1        0.2924
      9 O           3.1376    3.6868    0.0000 O.3     1  LIG1       -0.5007
     10 H           3.1682    4.6572    0.0001 H       1  LIG1        0.2924
     11 C           0.3260    5.2931   -0.0001 C.ar    1  LIG1        0.2184
     12 C           1.1265    6.3893   -0.0000 C.ar    1  LIG1        0.2084
     13 C           0.2596    7.5274   -0.0001 C.ar    1  LIG1        0.1977
     14 C          -1.0051    7.0399   -0.0002 C.ar    1  LIG1        0.1379
     15 O          -0.9657    5.6845   -0.0002 O.2     1  LIG1       -0.4521
     16 H          -1.9748    7.5033   -0.0002 H       1  LIG1        0.1069
     17 O           2.4920    6.4095    0.0001 O.3     1  LIG1       -0.5007
     18 H           2.8001    7.3245    0.0001 H       1  LIG1        0.2924
     19 O           0.7772    8.7857   -0.0001 O.3     1  LIG1       -0.5012
     20 H           0.0824    9.4525   -0.0002 H       1  LIG1        0.2924
@<TRIPOS>BOND
     1    16    14    1
     2    15    14   ar
     3    15    11   ar
     4    20    19    1
     5    14    13   ar
     6    19    13    1
     7    13    12   ar
     8     5     4   ar
     9     5     1   ar
    10    11     4    1
    11    11    12   ar
    12     4     3   ar
    13    12    17    1
    14     3     2   ar
    15     3     9    1
    16     1     2   ar
    17     1     6    1
    18     2     7    1
    19     8     7    1
    20     9    10    1
    21    17    18    1
