@<TRIPOS>MOLECULE
mol_data/opt/m06hf/geoms/mol2/12ff13fi12dh6ie6aa-6ad-6fa-13ll.out
 92 99 0 0 0
SMALL
GASTEIGER

@<TRIPOS>ATOM
      1 C           1.3064    1.9817   -1.1449 C.ar    1  LIG1        0.1378
      2 C           2.5219    1.9954   -0.5512 C.ar    1  LIG1        0.1977
      3 C           2.7038    3.3200   -0.0210 C.ar    1  LIG1        0.2067
      4 C           1.5792    4.0112   -0.3437 C.ar    1  LIG1        0.1994
      5 O           0.7242    3.2066   -1.0270 O.2     1  LIG1       -0.4538
      6 H           0.7564    1.2181   -1.6623 H       1  LIG1        0.1069
      7 O           3.4207    0.9901   -0.4419 O.3     1  LIG1       -0.5012
      8 H           4.1924    1.3254    0.0321 H       1  LIG1        0.2924
      9 O           3.8151    3.6624    0.6633 O.3     1  LIG1       -0.5008
     10 H           3.7916    4.6128    0.8754 H       1  LIG1        0.2924
     11 C           1.1708    5.3744   -0.0765 C.ar    1  LIG1        0.1286
     12 C           1.8962    6.4397    0.4225 C.ar    1  LIG1        0.1488
     13 C           1.0512    7.5657    0.5451 C.ar    1  LIG1        0.0200
     14 C          -0.1850    7.1406    0.0810 C.ar    1  LIG1        0.0905
     15 N          -0.0948    5.8196   -0.2720 N.ar    1  LIG1       -0.3461
     16 H          -0.8493    5.2555   -0.6349 H       1  LIG1        0.1662
     17 O           3.2261    6.3646    0.7923 O.3     1  LIG1       -0.5043
     18 H           3.7529    6.9567    0.2417 H       1  LIG1        0.2922
     19 C           1.4511    8.8956    1.1323 C.3     1  LIG1       -0.0341
     20 H           0.6183    9.3323    1.6840 H       1  LIG1        0.0279
     21 H           1.7555    9.6029    0.3598 H       1  LIG1        0.0279
     22 H           2.2811    8.7356    1.8212 H       1  LIG1        0.0279
     23 C          -1.4483    7.8338   -0.0439 C.ar    1  LIG1        0.1713
     24 C          -1.7916    9.1440   -0.2538 C.ar    1  LIG1        0.1201
     25 C          -3.2316    9.1927   -0.3153 C.ar    1  LIG1        0.0893
     26 C          -3.6517    7.9058   -0.1459 C.ar    1  LIG1        0.1593
     27 O          -2.5601    7.0921    0.0166 O.2     1  LIG1       -0.4501
     28 N          -0.2832   11.1712   -0.7556 N.1     1  LIG1       -0.1907
     29 C          -0.9277   10.2506   -0.5160 C.1     1  LIG1        0.1049
     30 N          -3.9874   10.3441   -0.4927 N.pl3   1  LIG1       -0.3540
     31 H          -3.4469   11.1328   -0.8265 H       1  LIG1        0.1425
     32 H          -4.8294   10.2058   -1.0385 H       1  LIG1        0.1425
     33 C          -5.3127    6.0370   -0.5230 C.ar    1  LIG1        0.0497
     34 C          -4.9986    7.3383   -0.0781 C.ar    1  LIG1        0.0413
     35 C          -6.0271    8.1138    0.4471 C.ar    1  LIG1       -0.0318
     36 C          -7.3313    7.6171    0.4893 C.ar    1  LIG1        0.0513
     37 C          -7.5581    6.3244   -0.0079 C.ar    1  LIG1        0.0881
     38 N          -6.5559    5.5764   -0.4739 N.ar    1  LIG1       -0.2499
     39 H          -5.8189    9.0988    0.8489 H       1  LIG1        0.0638
     40 C          -4.2722    5.0932   -1.0887 C.3     1  LIG1       -0.0216
     41 H          -3.6147    4.7405   -0.2922 H       1  LIG1        0.0293
     42 H          -3.6663    5.6014   -1.8410 H       1  LIG1        0.0293
     43 H          -4.7952    4.2507   -1.5336 H       1  LIG1        0.0293
     44 C          -8.3579    8.4324    1.0916 C.1     1  LIG1       -0.0675
     45 C          -9.1664    9.1526    1.6133 C.1     1  LIG1       -0.1138
     46 H          -9.8847    9.7848    2.0828 H       1  LIG1        0.1232
     47 C          -8.9719    4.2867    0.1326 C.ar    1  LIG1        0.0375
     48 C          -8.8981    5.6745   -0.0429 C.ar    1  LIG1        0.0197
     49 C         -10.0869    6.3597   -0.2801 C.ar    1  LIG1       -0.0491
     50 C         -11.2798    5.6477   -0.3282 C.ar    1  LIG1       -0.0350
     51 C         -11.2435    4.2659   -0.1467 C.ar    1  LIG1        0.0725
     52 N         -10.1069    3.6056    0.0895 N.ar    1  LIG1       -0.2543
     53 H         -10.0846    7.4303   -0.4303 H       1  LIG1        0.0625
     54 H          -8.0636    3.7243    0.3087 H       1  LIG1        0.0836
     55 H         -12.2154    6.1643   -0.4897 H       1  LIG1        0.0639
     56 C         -12.4688    2.1586    0.3869 C.ar    1  LIG1        0.0375
     57 C         -12.4740    3.4280   -0.1946 C.ar    1  LIG1        0.0197
     58 C         -13.6439    3.8111   -0.8369 C.ar    1  LIG1       -0.0316
     59 C         -14.7531    2.9661   -0.8359 C.ar    1  LIG1        0.0785
     60 C         -14.6970    1.7272   -0.1630 C.ar    1  LIG1        0.0934
     61 N         -13.5313    1.3682    0.4009 N.ar    1  LIG1       -0.2529
     62 H         -13.7091    4.7457   -1.3786 H       1  LIG1        0.0638
     63 H         -11.5634    1.7863    0.8481 H       1  LIG1        0.0836
     64 N         -16.7501    3.8178   -2.2530 N.1     1  LIG1       -0.1908
     65 C         -15.8911    3.4078   -1.6113 C.1     1  LIG1        0.1013
     66 C         -15.5476   -0.6003    0.2912 C.ar    1  LIG1        0.2224
     67 C         -15.8091    0.7619   -0.0461 C.ar    1  LIG1        0.0630
     68 C         -17.1513    1.1143   -0.2346 C.ar    1  LIG1       -0.0453
     69 C         -18.1524    0.1647   -0.1651 C.ar    1  LIG1       -0.0333
     70 C         -17.7675   -1.1550    0.0955 C.ar    1  LIG1        0.0946
     71 N         -16.5049   -1.5136    0.3270 N.ar    1  LIG1       -0.2109
     72 H         -17.4229    2.1425   -0.4254 H       1  LIG1        0.0626
     73 O         -14.3320   -1.0331    0.5894 O.3     1  LIG1       -0.4919
     74 H         -13.7411   -0.2334    0.6559 H       1  LIG1        0.2937
     75 H         -19.1966    0.4077   -0.2956 H       1  LIG1        0.0640
     76 C         -18.7381   -2.2455    0.1480 C.ar    1  LIG1        0.1110
     77 C         -20.1036   -2.2972   -0.0642 C.ar    1  LIG1        0.1884
     78 C         -20.5048   -3.6481    0.1079 C.ar    1  LIG1        0.1795
     79 C         -19.3751   -4.3734    0.4280 C.ar    1  LIG1        0.0482
     80 N         -18.3269   -3.5114    0.4445 N.ar    1  LIG1       -0.3534
     81 H         -17.3531   -3.7073    0.6324 H       1  LIG1        0.1656
     82 H         -19.2683   -5.4243    0.6292 H       1  LIG1        0.0845
     83 O         -20.9188   -1.2489   -0.3858 O.3     1  LIG1       -0.4895
     84 C         -21.4489   -1.3616   -1.7099 C.3     1  LIG1        0.0791
     85 H         -22.1094   -0.5091   -1.8506 H       1  LIG1        0.0660
     86 H         -20.6322   -1.3336   -2.4343 H       1  LIG1        0.0660
     87 H         -22.0039   -2.2964   -1.8083 H       1  LIG1        0.0660
     88 O         -21.7739   -4.1322   -0.0376 O.3     1  LIG1       -0.4900
     89 C         -22.6783   -3.6073    0.9339 C.3     1  LIG1        0.0790
     90 H         -23.6543   -4.0296    0.7047 H       1  LIG1        0.0660
     91 H         -22.3619   -3.9080    1.9347 H       1  LIG1        0.0660
     92 H         -22.7094   -2.5182    0.8683 H       1  LIG1        0.0660
@<TRIPOS>BOND
     1    86    84    1
     2    64    65    3
     3    85    84    1
     4    42    40    1
     5    87    84    1
     6    84    83    1
     7     6     1    1
     8    65    59    1
     9    43    40    1
    10    62    58    1
    11     1     5   ar
    12     1     2   ar
    13    40    33    1
    14    40    41    1
    15    32    30    1
    16     5     4   ar
    17    58    59   ar
    18    58    57   ar
    19    59    60   ar
    20    31    30    1
    21    28    29    3
    22    16    15    1
    23     2     7    1
    24     2     3   ar
    25    33    38   ar
    26    33    34   ar
    27    29    24    1
    28    30    25    1
    29    55    50    1
    30    38    37   ar
    31     7     8    1
    32    53    49    1
    33    72    68    1
    34    83    77    1
    35     4    11    1
    36     4     3   ar
    37    50    49   ar
    38    50    51   ar
    39    25    24   ar
    40    25    26   ar
    41    75    69    1
    42    49    48   ar
    43    15    11   ar
    44    15    14   ar
    45    24    23   ar
    46    68    69   ar
    47    68    67   ar
    48    57    51    1
    49    57    56   ar
    50    69    70   ar
    51    60    67    1
    52    60    61   ar
    53    51    52   ar
    54    26    34    1
    55    26    27   ar
    56    34    35   ar
    57    11    12   ar
    58    77    78   ar
    59    77    76   ar
    60    67    66   ar
    61    23    27   ar
    62    23    14    1
    63    48    37    1
    64    48    47   ar
    65    88    78    1
    66    88    89    1
    67     3     9    1
    68    37    36   ar
    69    14    13   ar
    70    52    47   ar
    71    70    76    1
    72    70    71   ar
    73    78    79   ar
    74    47    54    1
    75    76    80   ar
    76    18    17    1
    77    66    71   ar
    78    66    73    1
    79    21    19    1
    80    56    61   ar
    81    56    63    1
    82    12    13   ar
    83    12    17    1
    84    79    80   ar
    85    79    82    1
    86    80    81    1
    87    35    36   ar
    88    35    39    1
    89    36    44    1
    90    13    19    1
    91    73    74    1
    92     9    10    1
    93    90    89    1
    94    92    89    1
    95    89    91    1
    96    44    45    3
    97    19    20    1
    98    19    22    1
    99    45    46    1
