@<TRIPOS>MOLECULE
mol_data/opt/m06hf/geoms/mol2/12ff12ff12ff.out
 29 31 0 0 0
SMALL
GASTEIGER

@<TRIPOS>ATOM
      1 C           0.4886    1.5643    0.0000 C.ar    1  LIG1        0.1379
      2 C           1.8262    1.7699   -0.0000 C.ar    1  LIG1        0.1977
      3 C           2.0190    3.1924   -0.0000 C.ar    1  LIG1        0.2084
      4 C           0.7706    3.7389   -0.0000 C.ar    1  LIG1        0.2184
      5 O          -0.1590    2.7563    0.0000 O.2     1  LIG1       -0.4521
      6 H          -0.1117    0.6738    0.0001 H       1  LIG1        0.1069
      7 O           2.8265    0.8557   -0.0000 O.3     1  LIG1       -0.5012
      8 H           3.6661    1.3332   -0.0001 H       1  LIG1        0.2924
      9 O           3.2612    3.7274   -0.0001 O.3     1  LIG1       -0.5007
     10 H           3.2235    4.6977   -0.0001 H       1  LIG1        0.2924
     11 C           0.3380    5.1202   -0.0001 C.ar    1  LIG1        0.2194
     12 C           1.0565    6.2732   -0.0000 C.ar    1  LIG1        0.2092
     13 C           0.1190    7.3495   -0.0001 C.ar    1  LIG1        0.2092
     14 C          -1.1128    6.7640   -0.0001 C.ar    1  LIG1        0.2194
     15 O          -0.9810    5.4140   -0.0001 O.2     1  LIG1       -0.4407
     16 O           2.4158    6.3925    0.0001 O.3     1  LIG1       -0.5007
     17 H           2.6541    7.3287    0.0001 H       1  LIG1        0.2924
     18 O           0.5294    8.6369   -0.0001 O.3     1  LIG1       -0.5007
     19 H          -0.2293    9.2440   -0.0001 H       1  LIG1        0.2924
     20 C          -2.4399    7.3413   -0.0002 C.ar    1  LIG1        0.2184
     21 C          -2.8397    8.6392   -0.0002 C.ar    1  LIG1        0.2084
     22 C          -4.2702    8.6234   -0.0003 C.ar    1  LIG1        0.1977
     23 C          -4.6343    7.3178   -0.0003 C.ar    1  LIG1        0.1379
     24 O          -3.5245    6.5398   -0.0003 O.2     1  LIG1       -0.4521
     25 H          -5.5852    6.8164   -0.0004 H       1  LIG1        0.1069
     26 O          -2.0370    9.7438   -0.0001 O.3     1  LIG1       -0.5007
     27 H          -2.5815   10.5410   -0.0001 H       1  LIG1        0.2924
     28 O          -4.9729    9.7884   -0.0003 O.3     1  LIG1       -0.5012
     29 H          -5.9218    9.6241   -0.0004 H       1  LIG1        0.2924
@<TRIPOS>BOND
     1    25    23    1
     2    29    28    1
     3    23    24   ar
     4    23    22   ar
     5    24    20   ar
     6    28    22    1
     7    22    21   ar
     8    20    21   ar
     9    20    14    1
    10    21    26    1
    11    14    15   ar
    12    14    13   ar
    13    15    11   ar
    14    27    26    1
    15     9    10    1
    16     9     3    1
    17    19    18    1
    18    13    18    1
    19    13    12   ar
    20     8     7    1
    21    11     4    1
    22    11    12   ar
    23     3     4   ar
    24     3     2   ar
    25     4     5   ar
    26     7     2    1
    27    12    16    1
    28     2     1   ar
    29     5     1   ar
    30     1     6    1
    31    17    16    1
