@<TRIPOS>MOLECULE
mol_data/opt/m06hf/geoms/mol2/12ff12ff-12ff-12ff-.out
 38 41 0 0 0
SMALL
GASTEIGER

@<TRIPOS>ATOM
      1 C          -0.2787    1.6599   -0.0001 C.ar    1  LIG1        0.1379
      2 C           1.0684    1.5392   -0.0000 C.ar    1  LIG1        0.1977
      3 C           1.6006    2.8771    0.0000 C.ar    1  LIG1        0.2084
      4 C           0.5280    3.7049   -0.0001 C.ar    1  LIG1        0.2184
      5 O          -0.6220    2.9829   -0.0002 O.2     1  LIG1       -0.4521
      6 H          -1.0756    0.9406   -0.0002 H       1  LIG1        0.1069
      7 O           1.8110    0.4095    0.0001 O.3     1  LIG1       -0.5012
      8 H           2.7444    0.6573    0.0002 H       1  LIG1        0.2924
      9 O           2.9302    3.1232    0.0002 O.3     1  LIG1       -0.5007
     10 H           3.1042    4.0748    0.0002 H       1  LIG1        0.2924
     11 C           0.4273    5.1398   -0.0001 C.ar    1  LIG1        0.2194
     12 C          -0.6395    5.9793   -0.0001 C.ar    1  LIG1        0.2092
     13 C          -0.0940    7.3019   -0.0001 C.ar    1  LIG1        0.2092
     14 C           1.2586    7.1728   -0.0001 C.ar    1  LIG1        0.2195
     15 O           1.5834    5.8543   -0.0001 O.2     1  LIG1       -0.4407
     16 O          -1.9705    5.7324   -0.0002 O.3     1  LIG1       -0.5007
     17 H          -2.1264    4.7778   -0.0002 H       1  LIG1        0.2924
     18 O          -0.7899    8.4744   -0.0002 O.3     1  LIG1       -0.5007
     19 H          -1.7386    8.2928   -0.0002 H       1  LIG1        0.2924
     20 C           2.3080    8.1633   -0.0001 C.ar    1  LIG1        0.2195
     21 C           2.2597    9.5270   -0.0001 C.ar    1  LIG1        0.2092
     22 C           3.6199    9.9594   -0.0001 C.ar    1  LIG1        0.2092
     23 C           4.3940    8.8420   -0.0001 C.ar    1  LIG1        0.2194
     24 O           3.6001    7.7470   -0.0001 O.2     1  LIG1       -0.4407
     25 O           1.2388   10.4105   -0.0000 O.3     1  LIG1       -0.5007
     26 H           0.3822    9.9521   -0.0000 H       1  LIG1        0.2924
     27 O           4.0514   11.2535   -0.0001 O.3     1  LIG1       -0.5007
     28 H           3.2886   11.8461   -0.0001 H       1  LIG1        0.2924
     29 C           5.8323    8.6887   -0.0001 C.ar    1  LIG1        0.2184
     30 C           6.8307    9.6159   -0.0002 C.ar    1  LIG1        0.2084
     31 C           8.0591    8.8724   -0.0002 C.ar    1  LIG1        0.1977
     32 C           7.7146    7.5633   -0.0002 C.ar    1  LIG1        0.1379
     33 O           6.3627    7.4434   -0.0002 O.2     1  LIG1       -0.4521
     34 H           8.2928    6.6584   -0.0002 H       1  LIG1        0.1069
     35 O           6.8317   10.9679   -0.0002 O.3     1  LIG1       -0.5007
     36 H           5.9256   11.3169   -0.0001 H       1  LIG1        0.2924
     37 O           9.2965    9.4231   -0.0003 O.3     1  LIG1       -0.5012
     38 H           9.1994   10.3841   -0.0003 H       1  LIG1        0.2924
@<TRIPOS>BOND
     1    37    38    1
     2    37    31    1
     3    34    32    1
     4     6     1    1
     5    31    32   ar
     6    31    30   ar
     7    32    33   ar
     8    17    16    1
     9     5     1   ar
    10     5     4   ar
    11    19    18    1
    12    16    12    1
    13    30    35    1
    14    30    29   ar
    15    35    36    1
    16    33    29   ar
    17    18    13    1
    18    29    23    1
    19     1     2   ar
    20    12    13   ar
    21    12    11   ar
    22    13    14   ar
    23    23    24   ar
    24    23    22   ar
    25    11     4    1
    26    11    15   ar
    27    24    20   ar
    28    14    20    1
    29    14    15   ar
    30     4     3   ar
    31    22    27    1
    32    22    21   ar
    33    20    21   ar
    34    27    28    1
    35    21    25    1
    36    26    25    1
    37     2     3   ar
    38     2     7    1
    39     3     9    1
    40     7     8    1
    41    10     9    1
