@<TRIPOS>MOLECULE
mol_data/opt/m06hf/geoms/mol2/12ff6dh6lf-4hd-.out
 50 53 0 0 0
SMALL
GASTEIGER

@<TRIPOS>ATOM
      1 C           0.2813    1.5191    0.2075 C.ar    1  LIG1        0.1377
      2 C           1.6326    1.6255    0.1633 C.ar    1  LIG1        0.1976
      3 C           1.9139    3.0289    0.1197 C.ar    1  LIG1        0.2052
      4 C           0.7121    3.6710    0.1326 C.ar    1  LIG1        0.1826
      5 O          -0.2710    2.7551    0.1943 O.2     1  LIG1       -0.4553
      6 H          -0.3880    0.6808    0.2527 H       1  LIG1        0.1069
      7 O           2.5607    0.6396    0.1666 O.3     1  LIG1       -0.5012
      8 H           3.4307    1.0459    0.0642 H       1  LIG1        0.2924
      9 O           3.1859    3.5362    0.0555 O.3     1  LIG1       -0.5008
     10 H           3.3658    4.0624    0.8452 H       1  LIG1        0.2924
     11 C          -0.7691    5.6580    0.6313 C.ar    1  LIG1        0.1516
     12 C           0.3959    5.1002    0.0859 C.ar    1  LIG1        0.0586
     13 C           1.2993    5.9666   -0.5248 C.ar    1  LIG1       -0.0254
     14 C           1.0323    7.3345   -0.5777 C.ar    1  LIG1        0.0518
     15 C          -0.1741    7.7843    0.0080 C.ar    1  LIG1        0.0982
     16 N          -1.0317    6.9591    0.5826 N.ar    1  LIG1       -0.2336
     17 H           2.2001    5.5649   -0.9741 H       1  LIG1        0.0644
     18 N          -2.5410    4.2235    1.8859 N.1     1  LIG1       -0.1893
     19 C          -1.7589    4.8441    1.3223 C.1     1  LIG1        0.1198
     20 N           1.9182    8.2176   -1.1552 N.pl3   1  LIG1       -0.3563
     21 H           2.5839    7.8256   -1.8046 H       1  LIG1        0.1424
     22 H           1.5373    9.1118   -1.4314 H       1  LIG1        0.1424
     23 C          -1.7314    9.6942   -0.5733 C.ar    1  LIG1        0.2247
     24 C          -0.5233    9.2356    0.0084 C.ar    1  LIG1        0.0671
     25 C           0.2836   10.1814    0.6028 C.ar    1  LIG1       -0.0037
     26 C          -0.1044   11.5330    0.6527 C.ar    1  LIG1        0.1436
     27 C          -1.3227   11.8730    0.0653 C.ar    1  LIG1        0.1179
     28 N          -2.1003   10.9496   -0.5342 N.ar    1  LIG1       -0.2086
     29 H           1.2175    9.9024    1.0762 H       1  LIG1        0.0663
     30 O          -2.5019    8.7935   -1.1950 O.3     1  LIG1       -0.4792
     31 C          -3.7545    9.2520   -1.6944 C.3     1  LIG1        0.0804
     32 H          -4.2169    8.3795   -2.1464 H       1  LIG1        0.0660
     33 H          -4.3671    9.6329   -0.8771 H       1  LIG1        0.0660
     34 H          -3.6033   10.0415   -2.4301 H       1  LIG1        0.0660
     35 O           0.6990   12.3931    1.3150 O.3     1  LIG1       -0.5046
     36 H           0.6723   13.2772    0.8665 H       1  LIG1        0.2922
     37 C          -1.1992   14.4236   -0.0393 C.ar    1  LIG1        0.0340
     38 C          -1.8176   15.6668    0.1197 C.ar    1  LIG1       -0.0392
     39 C          -1.9244   13.2395    0.1495 C.ar    1  LIG1        0.0259
     40 C          -3.1637   15.7446    0.4317 C.ar    1  LIG1       -0.0426
     41 H          -1.2405   16.5726   -0.0197 H       1  LIG1        0.0636
     42 C          -3.2903   13.3269    0.4195 C.ar    1  LIG1       -0.0333
     43 C          -3.9035   14.5662    0.5649 C.ar    1  LIG1        0.0525
     44 H          -3.8590   12.4128    0.5257 H       1  LIG1        0.0637
     45 H          -3.6493   16.7027    0.5557 H       1  LIG1        0.0631
     46 N           0.1776   14.3432   -0.3709 N.pl3   1  LIG1       -0.3575
     47 H           0.3440   13.7326   -1.1686 H       1  LIG1        0.1423
     48 H           0.6058   15.2490   -0.5273 H       1  LIG1        0.1423
     49 N          -6.4407   14.7126    1.0956 N.1     1  LIG1       -0.1909
     50 C          -5.3193   14.6415    0.8628 C.1     1  LIG1        0.0992
@<TRIPOS>BOND
     1    34    31    1
     2    32    31    1
     3    21    20    1
     4    31    30    1
     5    31    33    1
     6    22    20    1
     7    30    23    1
     8    47    46    1
     9    20    14    1
    10    17    13    1
    11    14    13   ar
    12    14    15   ar
    13    23    28   ar
    14    23    24   ar
    15    28    27   ar
    16    48    46    1
    17    13    12   ar
    18    46    37    1
    19    37    38   ar
    20    37    39   ar
    21    41    38    1
    22    15    24    1
    23    15    16   ar
    24    24    25   ar
    25     9     3    1
    26     9    10    1
    27     8     7    1
    28    27    39    1
    29    27    26   ar
    30    12     4    1
    31    12    11   ar
    32    38    40   ar
    33     3     4   ar
    34     3     2   ar
    35     4     5   ar
    36    39    42   ar
    37     2     7    1
    38     2     1   ar
    39     5     1   ar
    40     1     6    1
    41    42    44    1
    42    42    43   ar
    43    40    45    1
    44    40    43   ar
    45    43    50    1
    46    16    11   ar
    47    25    26   ar
    48    25    29    1
    49    11    19    1
    50    26    35    1
    51    50    49    3
    52    36    35    1
    53    19    18    3
