@<TRIPOS>MOLECULE
mol_data/opt/m06hf/geoms/mol2/12ff12ff12ff-12ff-.out
 38 41 0 0 0
SMALL
GASTEIGER

@<TRIPOS>ATOM
      1 C           0.3658    1.5749   -0.0000 C.ar    1  LIG1        0.1379
      2 C           1.7143    1.6851   -0.0001 C.ar    1  LIG1        0.1977
      3 C           2.0086    3.0911   -0.0001 C.ar    1  LIG1        0.2084
      4 C           0.8030    3.7245   -0.0000 C.ar    1  LIG1        0.2184
      5 O          -0.1971    2.8114   -0.0000 O.2     1  LIG1       -0.4521
      6 H          -0.2954    0.7286   -0.0000 H       1  LIG1        0.1069
      7 O           2.6441    0.7016   -0.0001 O.3     1  LIG1       -0.5012
      8 H           3.5181    1.1127   -0.0001 H       1  LIG1        0.2924
      9 O           3.2836    3.5383   -0.0001 O.3     1  LIG1       -0.5007
     10 H           3.3154    4.5086   -0.0000 H       1  LIG1        0.2924
     11 C           0.4637    5.1295   -0.0001 C.ar    1  LIG1        0.2194
     12 C           1.2443    6.2409   -0.0000 C.ar    1  LIG1        0.2092
     13 C           0.3659    7.3712   -0.0001 C.ar    1  LIG1        0.2092
     14 C          -0.8912    6.8589   -0.0001 C.ar    1  LIG1        0.2195
     15 O          -0.8438    5.5001   -0.0001 O.2     1  LIG1       -0.4407
     16 O           2.6067    6.2682    0.0001 O.3     1  LIG1       -0.5007
     17 H           2.9177    7.1826    0.0001 H       1  LIG1        0.2924
     18 O           0.8146    8.6468   -0.0000 O.3     1  LIG1       -0.5007
     19 H           0.0709    9.2657   -0.0001 H       1  LIG1        0.2924
     20 C          -2.1844    7.4830   -0.0002 C.ar    1  LIG1        0.2195
     21 C          -3.4414    6.9707   -0.0002 C.ar    1  LIG1        0.2092
     22 C          -4.3198    8.1010   -0.0002 C.ar    1  LIG1        0.2092
     23 C          -3.5393    9.2125   -0.0002 C.ar    1  LIG1        0.2194
     24 O          -2.2317    8.8418   -0.0002 O.2     1  LIG1       -0.4407
     25 O          -3.8902    5.6952   -0.0001 O.3     1  LIG1       -0.5007
     26 H          -3.1465    5.0762   -0.0001 H       1  LIG1        0.2924
     27 O          -5.6823    8.0737   -0.0002 O.3     1  LIG1       -0.5007
     28 H          -5.9932    7.1593   -0.0001 H       1  LIG1        0.2924
     29 C          -3.8785   10.6174   -0.0003 C.ar    1  LIG1        0.2184
     30 C          -5.0841   11.2508   -0.0003 C.ar    1  LIG1        0.2084
     31 C          -4.7898   12.6568   -0.0003 C.ar    1  LIG1        0.1977
     32 C          -3.4413   12.7671   -0.0003 C.ar    1  LIG1        0.1379
     33 O          -2.8784   11.5305   -0.0003 O.2     1  LIG1       -0.4521
     34 H          -2.7801   13.6134   -0.0004 H       1  LIG1        0.1069
     35 O          -6.3591   10.8037   -0.0003 O.3     1  LIG1       -0.5007
     36 H          -6.3909    9.8334   -0.0002 H       1  LIG1        0.2924
     37 O          -5.7196   13.6404   -0.0003 O.3     1  LIG1       -0.5012
     38 H          -6.5936   13.2293   -0.0003 H       1  LIG1        0.2924
@<TRIPOS>BOND
     1    34    32    1
     2    32    31   ar
     3    32    33   ar
     4    37    31    1
     5    37    38    1
     6    31    30   ar
     7    33    29   ar
     8    30    29   ar
     9    30    35    1
    10    29    23    1
    11    35    36    1
    12    23    24   ar
    13    23    22   ar
    14    27    22    1
    15    27    28    1
    16    24    20   ar
    17    22    21   ar
    18    20    21   ar
    19    20    14    1
    20    21    25    1
    21    14    15   ar
    22    14    13   ar
    23    15    11   ar
    24    25    26    1
    25    19    18    1
    26     9     3    1
    27     9    10    1
    28    13    18    1
    29    13    12   ar
    30     8     7    1
    31     7     2    1
    32     3     2   ar
    33     3     4   ar
    34    11     4    1
    35    11    12   ar
    36     2     1   ar
    37     4     5   ar
    38     1     6    1
    39     1     5   ar
    40    12    16    1
    41    16    17    1
