@<TRIPOS>MOLECULE
mol_data/opt/m06hf/geoms/mol2/12fg12fg12fg-12fg-.out
 38 41 0 0 0
SMALL
GASTEIGER

@<TRIPOS>ATOM
      1 C           1.3637    1.9824    1.7554 C.ar    1  LIG1        0.1352
      2 C           2.3055    1.9176    0.7836 C.ar    1  LIG1        0.1686
      3 C           2.1395    3.0951   -0.0264 C.ar    1  LIG1        0.0954
      4 C           1.1113    3.7846    0.5430 C.ar    1  LIG1        0.1901
      5 O           0.6440    3.1256    1.6161 O.2     1  LIG1       -0.4548
      6 H           1.1028    1.3258    2.5636 H       1  LIG1        0.1068
      7 O           3.2138    0.9354    0.5841 O.3     1  LIG1       -0.5029
      8 H           3.8416    1.2324   -0.0886 H       1  LIG1        0.2923
      9 S           3.0538    3.4249   -1.4969 S.3     1  LIG1       -0.1354
     10 H           3.5590    4.6039   -1.1115 H       1  LIG1        0.1073
     11 C           0.5645    5.0864    0.2111 C.ar    1  LIG1        0.2141
     12 C           1.1828    6.2325   -0.1842 C.ar    1  LIG1        0.1800
     13 C           0.1495    7.1983   -0.4248 C.ar    1  LIG1        0.0962
     14 C          -1.0174    6.5589   -0.1226 C.ar    1  LIG1        0.1912
     15 O          -0.7782    5.2958    0.2625 O.2     1  LIG1       -0.4435
     16 O           2.5129    6.4357   -0.3139 O.3     1  LIG1       -0.5024
     17 H           2.6637    7.3753   -0.4912 H       1  LIG1        0.2923
     18 S           0.4356    8.8117   -1.0713 S.3     1  LIG1       -0.1353
     19 H          -0.0411    9.4888   -0.0190 H       1  LIG1        0.1073
     20 C          -2.3773    7.0592   -0.0989 C.ar    1  LIG1        0.2142
     21 C          -2.8780    8.2660    0.2826 C.ar    1  LIG1        0.1800
     22 C          -4.2913    8.2209    0.0395 C.ar    1  LIG1        0.0962
     23 C          -4.5334    6.9683   -0.4433 C.ar    1  LIG1        0.1912
     24 O          -3.3941    6.2646   -0.5259 O.2     1  LIG1       -0.4435
     25 O          -2.1887    9.3042    0.8039 O.3     1  LIG1       -0.5024
     26 H          -2.8192    9.9740    1.1039 H       1  LIG1        0.2923
     27 S          -5.3718    9.5945    0.2587 S.3     1  LIG1       -0.1353
     28 H          -6.1951    9.0149    1.1408 H       1  LIG1        0.1073
     29 C          -5.7837    6.3179   -0.7852 C.ar    1  LIG1        0.2131
     30 C          -7.0129    6.3693   -0.2056 C.ar    1  LIG1        0.1792
     31 C          -7.8659    5.5122   -0.9833 C.ar    1  LIG1        0.0849
     32 C          -7.0761    5.0166   -1.9724 C.ar    1  LIG1        0.1096
     33 O          -5.8318    5.4863   -1.8612 O.2     1  LIG1       -0.4549
     34 H          -7.2806    4.3423   -2.7860 H       1  LIG1        0.1042
     35 O          -7.3646    7.0532    0.9041 O.3     1  LIG1       -0.5024
     36 H          -8.3145    6.9369    1.0491 H       1  LIG1        0.2923
     37 S          -9.5834    5.2504   -0.6807 S.3     1  LIG1       -0.1361
     38 H          -9.4512    4.1819    0.1147 H       1  LIG1        0.1073
@<TRIPOS>BOND
     1    34    32    1
     2    32    33   ar
     3    32    31   ar
     4    33    29   ar
     5     9    10    1
     6     9     3    1
     7    18    13    1
     8    18    19    1
     9    31    37    1
    10    31    30   ar
    11    29    23    1
    12    29    30   ar
    13    37    38    1
    14    24    23   ar
    15    24    20   ar
    16    17    16    1
    17    23    22   ar
    18    13    12   ar
    19    13    14   ar
    20    16    12    1
    21    30    35    1
    22    12    11   ar
    23    14    20    1
    24    14    15   ar
    25    20    21   ar
    26     8     7    1
    27     3     4   ar
    28     3     2   ar
    29    22    27    1
    30    22    21   ar
    31    11    15   ar
    32    11     4    1
    33    27    28    1
    34    21    25    1
    35     4     5   ar
    36     7     2    1
    37     2     1   ar
    38    25    26    1
    39    35    36    1
    40     5     1   ar
    41     1     6    1
