@<TRIPOS>MOLECULE
mol_data/opt/m06hf/geoms/mol2/12fg12fg-12fg12fg.out
 38 41 0 0 0
SMALL
GASTEIGER

@<TRIPOS>ATOM
      1 C           1.2410    1.5258   -0.0575 C.ar    1  LIG1        0.1352
      2 C           2.4741    1.9489   -0.4238 C.ar    1  LIG1        0.1686
      3 C           2.4284    3.3880   -0.4315 C.ar    1  LIG1        0.0954
      4 C           1.1625    3.7121   -0.0473 C.ar    1  LIG1        0.1901
      5 O           0.4450    2.6007    0.1822 O.2     1  LIG1       -0.4548
      6 H           0.8089    0.5514    0.0695 H       1  LIG1        0.1068
      7 O           3.5451    1.1862   -0.7411 O.3     1  LIG1       -0.5029
      8 H           4.3083    1.7681   -0.8554 H       1  LIG1        0.2923
      9 S           3.7608    4.4206   -0.9479 S.3     1  LIG1       -0.1354
     10 H           3.9162    5.0681    0.2147 H       1  LIG1        0.1073
     11 C           0.5538    5.0050    0.2017 C.ar    1  LIG1        0.2141
     12 C           1.0540    6.1448    0.7517 C.ar    1  LIG1        0.1800
     13 C          -0.0125    7.1053    0.7533 C.ar    1  LIG1        0.0962
     14 C          -1.0786    6.4614    0.1971 C.ar    1  LIG1        0.1912
     15 O          -0.7460    5.2081   -0.1439 O.2     1  LIG1       -0.4435
     16 O           2.2933    6.3327    1.2556 O.3     1  LIG1       -0.5024
     17 H           2.3628    7.2487    1.5606 H       1  LIG1        0.2923
     18 S           0.0943    8.7063    1.4802 S.3     1  LIG1       -0.1353
     19 H          -0.0317    9.4047    0.3452 H       1  LIG1        0.1073
     20 C          -2.4093    6.9421   -0.1172 C.ar    1  LIG1        0.2142
     21 C          -2.8406    8.1394   -0.6010 C.ar    1  LIG1        0.1800
     22 C          -4.2637    8.0315   -0.7533 C.ar    1  LIG1        0.0962
     23 C          -4.5765    6.7696   -0.3379 C.ar    1  LIG1        0.1912
     24 O          -3.4743    6.1139    0.0516 O.2     1  LIG1       -0.4435
     25 O          -2.0805    9.2042   -0.9304 O.3     1  LIG1       -0.5024
     26 H          -2.6617    9.9081   -1.2521 H       1  LIG1        0.2923
     27 S          -5.2747    9.2642   -1.5021 S.3     1  LIG1       -0.1353
     28 H          -6.0031    9.5618   -0.4202 H       1  LIG1        0.1073
     29 C          -5.8616    6.1139   -0.2010 C.ar    1  LIG1        0.2131
     30 C          -7.0769    6.5858    0.1874 C.ar    1  LIG1        0.1792
     31 C          -7.9792    5.4673    0.1423 C.ar    1  LIG1        0.0849
     32 C          -7.2292    4.4118   -0.2719 C.ar    1  LIG1        0.1096
     33 O          -5.9638    4.7854   -0.4733 O.2     1  LIG1       -0.4549
     34 H          -7.4756    3.3801   -0.4552 H       1  LIG1        0.1042
     35 O          -7.3776    7.8398    0.5839 O.3     1  LIG1       -0.5024
     36 H          -8.3350    7.8996    0.7121 H       1  LIG1        0.2923
     37 S          -9.7043    5.5446    0.5048 S.3     1  LIG1       -0.1361
     38 H          -9.6125    5.2909    1.8160 H       1  LIG1        0.1073
@<TRIPOS>BOND
     1    27    22    1
     2    27    28    1
     3    26    25    1
     4     9     3    1
     5     9    10    1
     6    25    21    1
     7     8     7    1
     8    22    21   ar
     9    22    23   ar
    10     7     2    1
    11    21    20   ar
    12    33    32   ar
    13    33    29   ar
    14    34    32    1
    15     3     2   ar
    16     3     4   ar
    17     2     1   ar
    18    23    29    1
    19    23    24   ar
    20    32    31   ar
    21    29    30   ar
    22    15    14   ar
    23    15    11   ar
    24    20    24   ar
    25    20    14    1
    26     1     6    1
    27     1     5   ar
    28     4     5   ar
    29     4    11    1
    30    31    30   ar
    31    31    37    1
    32    30    35    1
    33    14    13   ar
    34    11    12   ar
    35    19    18    1
    36    37    38    1
    37    35    36    1
    38    12    13   ar
    39    12    16    1
    40    13    18    1
    41    16    17    1
