@<TRIPOS>MOLECULE
mol_data/opt/m06hf/geoms/mol2/12fg12fg12fg-12fg.out
 38 41 0 0 0
SMALL
GASTEIGER

@<TRIPOS>ATOM
      1 C           1.3662    1.9772    1.7414 C.ar    1  LIG1        0.1352
      2 C           2.3060    1.9145    0.7675 C.ar    1  LIG1        0.1686
      3 C           2.1387    3.0940   -0.0394 C.ar    1  LIG1        0.0954
      4 C           1.1119    3.7824    0.5337 C.ar    1  LIG1        0.1901
      5 O           0.6465    3.1209    1.6062 O.2     1  LIG1       -0.4548
      6 H           1.1067    1.3188    2.5485 H       1  LIG1        0.1068
      7 O           3.2137    0.9326    0.5639 O.3     1  LIG1       -0.5029
      8 H           3.8401    1.2308   -0.1095 H       1  LIG1        0.2923
      9 S           3.0502    3.4270   -1.5109 S.3     1  LIG1       -0.1354
     10 H           3.5564    4.6050   -1.1237 H       1  LIG1        0.1073
     11 C           0.5648    5.0851    0.2059 C.ar    1  LIG1        0.2141
     12 C           1.1826    6.2320   -0.1879 C.ar    1  LIG1        0.1800
     13 C           0.1491    7.1986   -0.4242 C.ar    1  LIG1        0.0962
     14 C          -1.0173    6.5588   -0.1213 C.ar    1  LIG1        0.1912
     15 O          -0.7777    5.2947    0.2604 O.2     1  LIG1       -0.4435
     16 O           2.5125    6.4350   -0.3196 O.3     1  LIG1       -0.5024
     17 H           2.6633    7.3750   -0.4949 H       1  LIG1        0.2923
     18 S           0.4345    8.8134   -1.0674 S.3     1  LIG1       -0.1353
     19 H          -0.0401    9.4882   -0.0126 H       1  LIG1        0.1073
     20 C          -2.3770    7.0594   -0.0938 C.ar    1  LIG1        0.2142
     21 C          -2.8767    8.2654    0.2914 C.ar    1  LIG1        0.1800
     22 C          -4.2906    8.2212    0.0507 C.ar    1  LIG1        0.0962
     23 C          -4.5338    6.9698   -0.4346 C.ar    1  LIG1        0.1912
     24 O          -3.3948    6.2660   -0.5208 O.2     1  LIG1       -0.4435
     25 O          -2.1863    9.3022    0.8138 O.3     1  LIG1       -0.5024
     26 H          -2.8161    9.9715    1.1166 H       1  LIG1        0.2923
     27 S          -5.3703    9.5946    0.2750 S.3     1  LIG1       -0.1353
     28 H          -6.1921    9.0130    1.1573 H       1  LIG1        0.1073
     29 C          -5.7849    6.3205   -0.7758 C.ar    1  LIG1        0.2131
     30 C          -7.0130    6.3708   -0.1939 C.ar    1  LIG1        0.1792
     31 C          -7.8677    5.5158   -0.9720 C.ar    1  LIG1        0.0849
     32 C          -7.0797    5.0223   -1.9637 C.ar    1  LIG1        0.1096
     33 O          -5.8351    5.4915   -1.8536 O.2     1  LIG1       -0.4549
     34 H          -7.2859    4.3500   -2.7786 H       1  LIG1        0.1042
     35 O          -7.3625    7.0522    0.9180 O.3     1  LIG1       -0.5024
     36 H          -8.3122    6.9357    1.0647 H       1  LIG1        0.2923
     37 S          -9.5847    5.2539   -0.6670 S.3     1  LIG1       -0.1361
     38 H          -9.4513    4.1833    0.1256 H       1  LIG1        0.1073
@<TRIPOS>BOND
     1    34    32    1
     2    32    33   ar
     3    32    31   ar
     4    33    29   ar
     5     9    10    1
     6     9     3    1
     7    18    13    1
     8    18    19    1
     9    31    37    1
    10    31    30   ar
    11    29    23    1
    12    29    30   ar
    13    37    38    1
    14    24    23   ar
    15    24    20   ar
    16    17    16    1
    17    23    22   ar
    18    13    12   ar
    19    13    14   ar
    20    16    12    1
    21    30    35    1
    22    12    11   ar
    23    14    20    1
    24    14    15   ar
    25     8     7    1
    26    20    21   ar
    27     3     4   ar
    28     3     2   ar
    29    22    27    1
    30    22    21   ar
    31    11    15   ar
    32    11     4    1
    33    27    28    1
    34    21    25    1
    35     4     5   ar
    36     7     2    1
    37     2     1   ar
    38    25    26    1
    39    35    36    1
    40     5     1   ar
    41     1     6    1
