@<TRIPOS>MOLECULE
mol_data/opt/m06hf/geoms/mol2/12fg12fg.out
 20 21 0 0 0
SMALL
GASTEIGER

@<TRIPOS>ATOM
      1 C           0.2482    1.7880    0.4953 C.ar    1  LIG1        0.1352
      2 C           1.5411    1.8506    0.0961 C.ar    1  LIG1        0.1686
      3 C           1.7876    3.2176   -0.2828 C.ar    1  LIG1        0.0954
      4 C           0.6138    3.8717   -0.0614 C.ar    1  LIG1        0.1901
      5 O          -0.3126    3.0227    0.4113 O.2     1  LIG1       -0.4548
      6 H          -0.3716    0.9832    0.8429 H       1  LIG1        0.1068
      7 O           2.4316    0.8348    0.0382 O.3     1  LIG1       -0.5029
      8 H           3.3022    1.2017   -0.1663 H       1  LIG1        0.2923
      9 S           3.2993    3.7953   -0.9791 S.3     1  LIG1       -0.1354
     10 H           3.5660    4.7100   -0.0378 H       1  LIG1        0.1073
     11 C           0.2813    5.2796   -0.1819 C.ar    1  LIG1        0.2131
     12 C           0.9958    6.4006    0.1036 C.ar    1  LIG1        0.1792
     13 C           0.1501    7.5179   -0.2206 C.ar    1  LIG1        0.0849
     14 C          -1.0090    6.9747   -0.6757 C.ar    1  LIG1        0.1096
     15 O          -0.9436    5.6413   -0.6532 O.2     1  LIG1       -0.4549
     16 H          -1.9207    7.4208   -1.0337 H       1  LIG1        0.1042
     17 O           2.2392    6.4647    0.6298 O.3     1  LIG1       -0.5024
     18 H           2.5236    7.3895    0.6357 H       1  LIG1        0.2923
     19 S           0.6116    9.2147   -0.0927 S.3     1  LIG1       -0.1361
     20 H           0.2448    9.3920    1.1829 H       1  LIG1        0.1073
@<TRIPOS>BOND
     1    16    14    1
     2     9     3    1
     3     9    10    1
     4    14    15   ar
     5    14    13   ar
     6    15    11   ar
     7     3     4   ar
     8     3     2   ar
     9    13    19    1
    10    13    12   ar
    11    11     4    1
    12    11    12   ar
    13     8     7    1
    14    19    20    1
    15     4     5   ar
    16     7     2    1
    17     2     1   ar
    18    12    17    1
    19     5     1   ar
    20     1     6    1
    21    17    18    1
