@<TRIPOS>MOLECULE
mol_data/opt/m06hf/geoms/mol2/12fg12fg12fg12fg-.out
 38 41 0 0 0
SMALL
GASTEIGER

@<TRIPOS>ATOM
      1 C           1.3805    1.9948    1.7611 C.ar    1  LIG1        0.1352
      2 C           2.3128    1.9230    0.7807 C.ar    1  LIG1        0.1686
      3 C           2.1390    3.0947   -0.0361 C.ar    1  LIG1        0.0954
      4 C           1.1164    3.7884    0.5383 C.ar    1  LIG1        0.1901
      5 O           0.6595    3.1370    1.6205 O.2     1  LIG1       -0.4548
      6 H           1.1274    1.3440    2.5764 H       1  LIG1        0.1068
      7 O           3.2192    0.9393    0.5794 O.3     1  LIG1       -0.5029
      8 H           3.8405    1.2315   -0.1012 H       1  LIG1        0.2923
      9 S           3.0392    3.4139   -1.5176 S.3     1  LIG1       -0.1354
     10 H           3.5480    4.5956   -1.1454 H       1  LIG1        0.1073
     11 C           0.5666    5.0878    0.2024 C.ar    1  LIG1        0.2141
     12 C           1.1811    6.2310   -0.2069 C.ar    1  LIG1        0.1800
     13 C           0.1456    7.1952   -0.4444 C.ar    1  LIG1        0.0962
     14 C          -1.0183    6.5582   -0.1266 C.ar    1  LIG1        0.1912
     15 O          -0.7755    5.2977    0.2652 O.2     1  LIG1       -0.4435
     16 O           2.5099    6.4330   -0.3507 O.3     1  LIG1       -0.5024
     17 H           2.6591    7.3713   -0.5361 H       1  LIG1        0.2923
     18 S           0.4257    8.8039   -1.1050 S.3     1  LIG1       -0.1353
     19 H          -0.0409    9.4886   -0.0530 H       1  LIG1        0.1073
     20 C          -2.3779    7.0588   -0.0934 C.ar    1  LIG1        0.2142
     21 C          -2.8748    8.2683    0.2844 C.ar    1  LIG1        0.1800
     22 C          -4.2905    8.2217    0.0550 C.ar    1  LIG1        0.0962
     23 C          -4.5373    6.9657   -0.4165 C.ar    1  LIG1        0.1912
     24 O          -3.3988    6.2613   -0.5050 O.2     1  LIG1       -0.4435
     25 O          -2.1806    9.3100    0.7916 O.3     1  LIG1       -0.5024
     26 H          -2.8082    9.9820    1.0930 H       1  LIG1        0.2923
     27 S          -5.3686    9.5970    0.2747 S.3     1  LIG1       -0.1353
     28 H          -6.1836    9.0237    1.1688 H       1  LIG1        0.1073
     29 C          -5.7908    6.3131   -0.7420 C.ar    1  LIG1        0.2131
     30 C          -7.0144    6.3687   -0.1511 C.ar    1  LIG1        0.1792
     31 C          -7.8748    5.5063   -0.9146 C.ar    1  LIG1        0.0849
     32 C          -7.0945    5.0036   -1.9076 C.ar    1  LIG1        0.1096
     33 O          -5.8491    5.4740   -1.8115 O.2     1  LIG1       -0.4549
     34 H          -7.3068    4.3236   -2.7145 H       1  LIG1        0.1042
     35 O          -7.3555    7.0605    0.9570 O.3     1  LIG1       -0.5024
     36 H          -8.3040    6.9452    1.1120 H       1  LIG1        0.2923
     37 S          -9.5894    5.2470   -0.5939 S.3     1  LIG1       -0.1361
     38 H          -9.4498    4.1839    0.2076 H       1  LIG1        0.1073
@<TRIPOS>BOND
     1    34    32    1
     2    32    33   ar
     3    32    31   ar
     4    33    29   ar
     5     9    10    1
     6     9     3    1
     7    18    13    1
     8    18    19    1
     9    31    37    1
    10    31    30   ar
    11    29    23    1
    12    29    30   ar
    13    37    38    1
    14    17    16    1
    15    24    23   ar
    16    24    20   ar
    17    13    12   ar
    18    13    14   ar
    19    23    22   ar
    20    16    12    1
    21    12    11   ar
    22    30    35    1
    23    14    20    1
    24    14    15   ar
    25     8     7    1
    26    20    21   ar
    27     3     4   ar
    28     3     2   ar
    29    22    27    1
    30    22    21   ar
    31    11    15   ar
    32    11     4    1
    33    27    28    1
    34    21    25    1
    35     4     5   ar
    36     7     2    1
    37     2     1   ar
    38    25    26    1
    39    35    36    1
    40     5     1   ar
    41     1     6    1
