@<TRIPOS>MOLECULE
mol_data/opt/m06hf/geoms/mol2/12fg12fg-12fg-12fg-.out
 38 41 0 0 0
SMALL
GASTEIGER

@<TRIPOS>ATOM
      1 C           1.1073    1.5230    0.0104 C.ar    1  LIG1        0.1352
      2 C           2.2543    1.8921    0.6289 C.ar    1  LIG1        0.1686
      3 C           2.2251    3.3280    0.7239 C.ar    1  LIG1        0.0954
      4 C           1.0580    3.7062    0.1316 C.ar    1  LIG1        0.1901
      5 O           0.3844    2.6296   -0.3035 O.2     1  LIG1       -0.4548
      6 H           0.6954    0.5689   -0.2580 H       1  LIG1        0.1068
      7 O           3.2330    1.0825    1.0933 O.3     1  LIG1       -0.5029
      8 H           3.9773    1.6327    1.3721 H       1  LIG1        0.2923
      9 S           3.4453    4.2954    1.5483 S.3     1  LIG1       -0.1354
     10 H           3.8150    5.0196    0.4836 H       1  LIG1        0.1073
     11 C           0.5339    5.0301   -0.1461 C.ar    1  LIG1        0.2141
     12 C           1.1542    6.1684   -0.5591 C.ar    1  LIG1        0.1800
     13 C           0.1356    7.1704   -0.6905 C.ar    1  LIG1        0.0962
     14 C          -1.0281    6.5494   -0.3385 C.ar    1  LIG1        0.1912
     15 O          -0.7971    5.2718   -0.0038 O.2     1  LIG1       -0.4435
     16 O           2.4651    6.3224   -0.8476 O.3     1  LIG1       -0.5024
     17 H           2.6103    7.2367   -1.1305 H       1  LIG1        0.2923
     18 S           0.4135    8.7827   -1.3411 S.3     1  LIG1       -0.1353
     19 H           0.1979    9.4573   -0.2072 H       1  LIG1        0.1073
     20 C          -2.3752    7.0688   -0.2195 C.ar    1  LIG1        0.2142
     21 C          -2.8377    8.2833    0.1878 C.ar    1  LIG1        0.1800
     22 C          -4.2679    8.2352    0.0766 C.ar    1  LIG1        0.0962
     23 C          -4.5544    6.9747   -0.3600 C.ar    1  LIG1        0.1912
     24 O          -3.4279    6.2685   -0.5359 O.2     1  LIG1       -0.4435
     25 O          -2.1081    9.3274    0.6323 O.3     1  LIG1       -0.5024
     26 H          -2.7155   10.0159    0.9385 H       1  LIG1        0.2923
     27 S          -5.3267    9.6136    0.3661 S.3     1  LIG1       -0.1353
     28 H          -6.0153    9.0771    1.3804 H       1  LIG1        0.1073
     29 C          -5.8298    6.3173   -0.5660 C.ar    1  LIG1        0.2131
     30 C          -6.9973    6.3849    0.1273 C.ar    1  LIG1        0.1792
     31 C          -7.9173    5.5026   -0.5385 C.ar    1  LIG1        0.0849
     32 C          -7.2234    4.9755   -1.5815 C.ar    1  LIG1        0.1096
     33 O          -5.9761    5.4506   -1.6044 O.2     1  LIG1       -0.4549
     34 H          -7.5009    4.2763   -2.3513 H       1  LIG1        0.1042
     35 O          -7.2426    7.1006    1.2452 O.3     1  LIG1       -0.5024
     36 H          -8.1792    7.0071    1.4699 H       1  LIG1        0.2923
     37 S          -9.6014    5.2625   -0.0728 S.3     1  LIG1       -0.1361
     38 H          -9.4030    4.2354    0.7625 H       1  LIG1        0.1073
@<TRIPOS>BOND
     1    34    32    1
     2    33    32   ar
     3    33    29   ar
     4    32    31   ar
     5    18    13    1
     6    18    19    1
     7    17    16    1
     8    16    12    1
     9    13    12   ar
    10    13    14   ar
    11    29    23    1
    12    29    30   ar
    13    12    11   ar
    14    31    37    1
    15    31    30   ar
    16    24    23   ar
    17    24    20   ar
    18    23    22   ar
    19    14    20    1
    20    14    15   ar
    21     5     1   ar
    22     5     4   ar
    23     6     1    1
    24    20    21   ar
    25    11    15   ar
    26    11     4    1
    27    37    38    1
    28     1     2   ar
    29    22    21   ar
    30    22    27    1
    31    30    35    1
    32     4     3   ar
    33    21    25    1
    34    27    28    1
    35    10     9    1
    36     2     3   ar
    37     2     7    1
    38    25    26    1
    39     3     9    1
    40     7     8    1
    41    35    36    1
