@<TRIPOS>MOLECULE
mol_data/opt/m06hf/geoms/mol2/12fg12fg-12fg12fg-.out
 38 41 0 0 0
SMALL
GASTEIGER

@<TRIPOS>ATOM
      1 C           1.3929    1.9809    1.7448 C.ar    1  LIG1        0.1352
      2 C           2.3114    1.9131    0.7510 C.ar    1  LIG1        0.1686
      3 C           2.1314    3.0921   -0.0537 C.ar    1  LIG1        0.0954
      4 C           1.1198    3.7852    0.5404 C.ar    1  LIG1        0.1901
      5 O           0.6750    3.1273    1.6237 O.2     1  LIG1       -0.4548
      6 H           1.1485    1.3246    2.5584 H       1  LIG1        0.1068
      7 O           3.2103    0.9270    0.5288 O.3     1  LIG1       -0.5029
      8 H           3.8248    1.2229   -0.1564 H       1  LIG1        0.2923
      9 S           3.0111    3.4186   -1.5460 S.3     1  LIG1       -0.1354
     10 H           3.5254    4.5985   -1.1754 H       1  LIG1        0.1073
     11 C           0.5697    5.0881    0.2186 C.ar    1  LIG1        0.2141
     12 C           1.1845    6.2306   -0.1919 C.ar    1  LIG1        0.1800
     13 C           0.1502    7.1971   -0.4247 C.ar    1  LIG1        0.0962
     14 C          -1.0132    6.5623   -0.1010 C.ar    1  LIG1        0.1912
     15 O          -0.7710    5.3002    0.2892 O.2     1  LIG1       -0.4435
     16 O           2.5139    6.4279   -0.3428 O.3     1  LIG1       -0.5024
     17 H           2.6706    7.3722   -0.4861 H       1  LIG1        0.2923
     18 S           0.4397    8.8016   -1.0913 S.3     1  LIG1       -0.1353
     19 H          -0.1461    9.4917   -0.1047 H       1  LIG1        0.1073
     20 C          -2.3721    7.0641   -0.0585 C.ar    1  LIG1        0.2142
     21 C          -2.8673    8.2739    0.3208 C.ar    1  LIG1        0.1800
     22 C          -4.2847    8.2262    0.1045 C.ar    1  LIG1        0.0962
     23 C          -4.5348    6.9690   -0.3617 C.ar    1  LIG1        0.1912
     24 O          -3.3964    6.2654   -0.4592 O.2     1  LIG1       -0.4435
     25 O          -2.1694    9.3181    0.8198 O.3     1  LIG1       -0.5024
     26 H          -2.7946    9.9897    1.1274 H       1  LIG1        0.2923
     27 S          -5.3620    9.6007    0.3330 S.3     1  LIG1       -0.1353
     28 H          -6.1665    9.0280    1.2369 H       1  LIG1        0.1073
     29 C          -5.7913    6.3152   -0.6724 C.ar    1  LIG1        0.2131
     30 C          -7.0076    6.3705   -0.0668 C.ar    1  LIG1        0.1792
     31 C          -7.8772    5.5082   -0.8199 C.ar    1  LIG1        0.0849
     32 C          -7.1088    5.0058   -1.8224 C.ar    1  LIG1        0.1096
     33 O          -5.8625    5.4763   -1.7414 O.2     1  LIG1       -0.4549
     34 H          -7.3307    4.3260   -2.6268 H       1  LIG1        0.1042
     35 O          -7.3354    7.0624    1.0453 O.3     1  LIG1       -0.5024
     36 H          -8.2815    6.9453    1.2129 H       1  LIG1        0.2923
     37 S          -9.5878    5.2492   -0.4787 S.3     1  LIG1       -0.1361
     38 H          -9.4391    4.1851    0.3200 H       1  LIG1        0.1073
@<TRIPOS>BOND
     1    34    32    1
     2    32    33   ar
     3    32    31   ar
     4    33    29   ar
     5     9    10    1
     6     9     3    1
     7    18    13    1
     8    18    19    1
     9    31    37    1
    10    31    30   ar
    11    29    23    1
    12    29    30   ar
    13    17    16    1
    14    37    38    1
    15    24    23   ar
    16    24    20   ar
    17    13    12   ar
    18    13    14   ar
    19    23    22   ar
    20    16    12    1
    21    12    11   ar
    22     8     7    1
    23    14    20    1
    24    14    15   ar
    25    30    35    1
    26    20    21   ar
    27     3     4   ar
    28     3     2   ar
    29    22    21   ar
    30    22    27    1
    31    11    15   ar
    32    11     4    1
    33    21    25    1
    34    27    28    1
    35     7     2    1
    36     4     5   ar
    37     2     1   ar
    38    25    26    1
    39    35    36    1
    40     5     1   ar
    41     1     6    1
