@<TRIPOS>MOLECULE
mol_data/opt/m06hf/geoms/mol2/12fg12fg-.out
 20 21 0 0 0
SMALL
GASTEIGER

@<TRIPOS>ATOM
      1 C           0.2560    1.7899    0.5163 C.ar    1  LIG1        0.1352
      2 C           1.5433    1.8513    0.0992 C.ar    1  LIG1        0.1686
      3 C           1.7837    3.2167   -0.2892 C.ar    1  LIG1        0.0954
      4 C           0.6128    3.8712   -0.0546 C.ar    1  LIG1        0.1901
      5 O          -0.3067    3.0239    0.4345 O.2     1  LIG1       -0.4548
      6 H          -0.3585    0.9863    0.8758 H       1  LIG1        0.1068
      7 O           2.4334    0.8357    0.0337 O.3     1  LIG1       -0.5029
      8 H           3.3010    1.2022   -0.1839 H       1  LIG1        0.2923
      9 S           3.2856    3.7917   -1.0087 S.3     1  LIG1       -0.1354
     10 H           3.5641    4.7112   -0.0756 H       1  LIG1        0.1073
     11 C           0.2783    5.2785   -0.1769 C.ar    1  LIG1        0.2131
     12 C           0.9967    6.4007    0.0936 C.ar    1  LIG1        0.1792
     13 C           0.1467    7.5165   -0.2243 C.ar    1  LIG1        0.0849
     14 C          -1.0183    6.9714   -0.6613 C.ar    1  LIG1        0.1096
     15 O          -0.9527    5.6381   -0.6335 O.2     1  LIG1       -0.4549
     16 H          -1.9347    7.4159   -1.0093 H       1  LIG1        0.1042
     17 O           2.2472    6.4672    0.6026 O.3     1  LIG1       -0.5024
     18 H           2.5312    7.3921    0.6018 H       1  LIG1        0.2923
     19 S           0.6102    9.2138   -0.1104 S.3     1  LIG1       -0.1361
     20 H           0.2598    9.3973    1.1690 H       1  LIG1        0.1073
@<TRIPOS>BOND
     1    16    14    1
     2     9     3    1
     3     9    10    1
     4    14    15   ar
     5    14    13   ar
     6    15    11   ar
     7     3     4   ar
     8     3     2   ar
     9    13    19    1
    10    13    12   ar
    11     8     7    1
    12    11     4    1
    13    11    12   ar
    14    19    20    1
    15     4     5   ar
    16     7     2    1
    17    12    17    1
    18     2     1   ar
    19     5     1   ar
    20     1     6    1
    21    18    17    1
