@<TRIPOS>MOLECULE
mol_data/opt/m06hf/geoms/mol2/12fg12fg12fg12fg.out
 38 41 0 0 0
SMALL
GASTEIGER

@<TRIPOS>ATOM
      1 C           1.3788    1.9887    1.7528 C.ar    1  LIG1        0.1352
      2 C           2.3115    1.9195    0.7726 C.ar    1  LIG1        0.1686
      3 C           2.1384    3.0936   -0.0409 C.ar    1  LIG1        0.0954
      4 C           1.1157    3.7859    0.5351 C.ar    1  LIG1        0.1901
      5 O           0.6582    3.1315    1.6153 O.2     1  LIG1       -0.4548
      6 H           1.1252    1.3356    2.5661 H       1  LIG1        0.1068
      7 O           3.2177    0.9361    0.5688 O.3     1  LIG1       -0.5029
      8 H           3.8393    1.2300   -0.1108 H       1  LIG1        0.2923
      9 S           3.0392    3.4168   -1.5211 S.3     1  LIG1       -0.1354
     10 H           3.5483    4.5973   -1.1454 H       1  LIG1        0.1073
     11 C           0.5663    5.0864    0.2027 C.ar    1  LIG1        0.2141
     12 C           1.1813    6.2306   -0.2032 C.ar    1  LIG1        0.1800
     13 C           0.1461    7.1957   -0.4383 C.ar    1  LIG1        0.0962
     14 C          -1.0181    6.5581   -0.1226 C.ar    1  LIG1        0.1912
     15 O          -0.7757    5.2965    0.2657 O.2     1  LIG1       -0.4435
     16 O           2.5102    6.4327   -0.3460 O.3     1  LIG1       -0.5024
     17 H           2.6597    7.3715   -0.5287 H       1  LIG1        0.2923
     18 S           0.4268    8.8062   -1.0943 S.3     1  LIG1       -0.1353
     19 H          -0.0398    9.4880   -0.0405 H       1  LIG1        0.1073
     20 C          -2.3775    7.0590   -0.0884 C.ar    1  LIG1        0.2142
     21 C          -2.8743    8.2676    0.2926 C.ar    1  LIG1        0.1800
     22 C          -4.2899    8.2220    0.0627 C.ar    1  LIG1        0.0962
     23 C          -4.5368    6.9675   -0.4125 C.ar    1  LIG1        0.1912
     24 O          -3.3985    6.2629   -0.5026 O.2     1  LIG1       -0.4435
     25 O          -2.1798    9.3077    0.8030 O.3     1  LIG1       -0.5024
     26 H          -2.8074    9.9790    1.1060 H       1  LIG1        0.2923
     27 S          -5.3677    9.5969    0.2860 S.3     1  LIG1       -0.1353
     28 H          -6.1831    9.0214    1.1782 H       1  LIG1        0.1073
     29 C          -5.7904    6.3161   -0.7402 C.ar    1  LIG1        0.2131
     30 C          -7.0142    6.3704   -0.1496 C.ar    1  LIG1        0.1792
     31 C          -7.8746    5.5104   -0.9158 C.ar    1  LIG1        0.0849
     32 C          -7.0941    5.0103   -1.9099 C.ar    1  LIG1        0.1096
     33 O          -5.8486    5.4800   -1.8122 O.2     1  LIG1       -0.4549
     34 H          -7.3063    4.3327   -2.7189 H       1  LIG1        0.1042
     35 O          -7.3554    7.0591    0.9604 O.3     1  LIG1       -0.5024
     36 H          -8.3040    6.9437    1.1147 H       1  LIG1        0.2923
     37 S          -9.5894    5.2506   -0.5963 S.3     1  LIG1       -0.1361
     38 H          -9.4502    4.1852    0.2023 H       1  LIG1        0.1073
@<TRIPOS>BOND
     1    34    32    1
     2    32    33   ar
     3    32    31   ar
     4    33    29   ar
     5     9    10    1
     6     9     3    1
     7    18    13    1
     8    18    19    1
     9    31    37    1
    10    31    30   ar
    11    29    23    1
    12    29    30   ar
    13    37    38    1
    14    17    16    1
    15    24    23   ar
    16    24    20   ar
    17    13    12   ar
    18    13    14   ar
    19    23    22   ar
    20    16    12    1
    21    12    11   ar
    22    30    35    1
    23    14    20    1
    24    14    15   ar
    25     8     7    1
    26    20    21   ar
    27     3     4   ar
    28     3     2   ar
    29    22    27    1
    30    22    21   ar
    31    11    15   ar
    32    11     4    1
    33    27    28    1
    34    21    25    1
    35     4     5   ar
    36     7     2    1
    37     2     1   ar
    38    25    26    1
    39    35    36    1
    40     5     1   ar
    41     1     6    1
