@<TRIPOS>MOLECULE
mol_data/opt/m06hf/geoms/mol2/12fg12fg-12fg.out
 29 31 0 0 0
SMALL
GASTEIGER

@<TRIPOS>ATOM
      1 C           0.6078    1.7319    0.9837 C.ar    1  LIG1        0.1352
      2 C           1.7612    1.7820    0.2738 C.ar    1  LIG1        0.1686
      3 C           1.8499    3.1117   -0.2696 C.ar    1  LIG1        0.0954
      4 C           0.7394    3.7612    0.1789 C.ar    1  LIG1        0.1901
      5 O          -0.0080    2.9412    0.9354 O.2     1  LIG1       -0.4548
      6 H           0.1254    0.9504    1.5392 H       1  LIG1        0.1068
      7 O           2.6523    0.7821    0.0866 O.3     1  LIG1       -0.5029
      8 H           3.4234    1.1414   -0.3715 H       1  LIG1        0.2923
      9 S           3.1211    3.6524   -1.3656 S.3     1  LIG1       -0.1354
     10 H           3.5472    4.6811   -0.6211 H       1  LIG1        0.1073
     11 C           0.3342    5.1457    0.0289 C.ar    1  LIG1        0.2141
     12 C           1.0601    6.2967    0.0418 C.ar    1  LIG1        0.1800
     13 C           0.1362    7.3712   -0.1856 C.ar    1  LIG1        0.0962
     14 C          -1.0877    6.7776   -0.2854 C.ar    1  LIG1        0.1912
     15 O          -0.9787    5.4459   -0.1550 O.2     1  LIG1       -0.4435
     16 O           2.3910    6.4171    0.2472 O.3     1  LIG1       -0.5024
     17 H           2.6041    7.3566    0.3363 H       1  LIG1        0.2923
     18 S           0.6095    9.0599   -0.3589 S.3     1  LIG1       -0.1353
     19 H          -0.1327    9.5309    0.6512 H       1  LIG1        0.1073
     20 C          -2.4082    7.3604   -0.4251 C.ar    1  LIG1        0.2131
     21 C          -2.9583    8.4820    0.1123 C.ar    1  LIG1        0.1792
     22 C          -4.3068    8.5516   -0.3811 C.ar    1  LIG1        0.0849
     23 C          -4.4579    7.4605   -1.1774 C.ar    1  LIG1        0.1096
     24 O          -3.3338    6.7412   -1.2069 O.2     1  LIG1       -0.4549
     25 H          -5.2909    7.1026   -1.7572 H       1  LIG1        0.1042
     26 O          -2.3783    9.3444    0.9749 O.3     1  LIG1       -0.5024
     27 H          -2.9886   10.0784    1.1345 H       1  LIG1        0.2923
     28 S          -5.4469    9.8497   -0.0258 S.3     1  LIG1       -0.1361
     29 H          -6.0014    9.2925    1.0583 H       1  LIG1        0.1073
@<TRIPOS>BOND
     1    25    23    1
     2     9    10    1
     3     9     3    1
     4    24    23   ar
     5    24    20   ar
     6    23    22   ar
     7    20    14    1
     8    20    21   ar
     9    22    28    1
    10    22    21   ar
    11     8     7    1
    12    18    13    1
    13    18    19    1
    14    14    13   ar
    15    14    15   ar
    16     3     4   ar
    17     3     2   ar
    18    13    12   ar
    19    15    11   ar
    20    28    29    1
    21    11    12   ar
    22    11     4    1
    23    12    16    1
    24     7     2    1
    25    21    26    1
    26     4     5   ar
    27    16    17    1
    28     2     1   ar
    29     5     1   ar
    30    26    27    1
    31     1     6    1
