@<TRIPOS>MOLECULE
mol_data/opt/m06hf/geoms/mol2/12fg12fg-12fg-.out
 29 31 0 0 0
SMALL
GASTEIGER

@<TRIPOS>ATOM
      1 C           0.6030    1.7215   -0.9634 C.ar    1  LIG1        0.1352
      2 C           1.7595    1.7804   -0.2593 C.ar    1  LIG1        0.1686
      3 C           1.8506    3.1168    0.2672 C.ar    1  LIG1        0.0954
      4 C           0.7382    3.7609   -0.1847 C.ar    1  LIG1        0.1901
      5 O          -0.0125    2.9314   -0.9275 O.2     1  LIG1       -0.4548
      6 H           0.1179    0.9327   -1.5060 H       1  LIG1        0.1068
      7 O           2.6511    0.7829   -0.0624 O.3     1  LIG1       -0.5029
      8 H           3.4266    1.1491    0.3829 H       1  LIG1        0.2923
      9 S           3.1281    3.6695    1.3497 S.3     1  LIG1       -0.1354
     10 H           3.5464    4.6929    0.5934 H       1  LIG1        0.1073
     11 C           0.3320    5.1464   -0.0472 C.ar    1  LIG1        0.2141
     12 C           1.0557    6.2984   -0.0640 C.ar    1  LIG1        0.1800
     13 C           0.1301    7.3723    0.1598 C.ar    1  LIG1        0.0962
     14 C          -1.0937    6.7776    0.2618 C.ar    1  LIG1        0.1912
     15 O          -0.9819    5.4465    0.1359 O.2     1  LIG1       -0.4435
     16 O           2.3857    6.4235   -0.2691 O.3     1  LIG1       -0.5024
     17 H           2.5976    7.3659   -0.3296 H       1  LIG1        0.2923
     18 S           0.6054    9.0589    0.3429 S.3     1  LIG1       -0.1353
     19 H          -0.0200    9.5213   -0.7437 H       1  LIG1        0.1073
     20 C          -2.4170    7.3516    0.4119 C.ar    1  LIG1        0.2131
     21 C          -2.9736    8.4884   -0.0859 C.ar    1  LIG1        0.1792
     22 C          -4.3253    8.5271    0.4038 C.ar    1  LIG1        0.0849
     23 C          -4.4712    7.4052    1.1566 C.ar    1  LIG1        0.1096
     24 O          -3.3410    6.6949    1.1647 O.2     1  LIG1       -0.4549
     25 H          -5.3041    7.0191    1.7185 H       1  LIG1        0.1042
     26 O          -2.4013    9.3863   -0.9159 O.3     1  LIG1       -0.5024
     27 H          -2.9898   10.1508   -0.9944 H       1  LIG1        0.2923
     28 S          -5.4728    9.8335    0.1149 S.3     1  LIG1       -0.1361
     29 H          -5.9391    9.3938   -1.0622 H       1  LIG1        0.1073
@<TRIPOS>BOND
     1     6     1    1
     2    29    28    1
     3    27    26    1
     4     1     5   ar
     5     1     2   ar
     6     5     4   ar
     7    26    21    1
     8    19    18    1
     9    17    16    1
    10    16    12    1
    11     2     7    1
    12     2     3   ar
    13     4    11    1
    14     4     3   ar
    15    21    22   ar
    16    21    20   ar
    17    12    11   ar
    18    12    13   ar
    19     7     8    1
    20    11    15   ar
    21    28    22    1
    22    15    14   ar
    23    13    14   ar
    24    13    18    1
    25    14    20    1
    26     3     9    1
    27    22    23   ar
    28    20    24   ar
    29    10     9    1
    30    23    24   ar
    31    23    25    1
