@<TRIPOS>MOLECULE
mol_data/opt/m06hf/geoms/mol2/12fg12fg12fg-.out
 29 31 0 0 0
SMALL
GASTEIGER

@<TRIPOS>ATOM
      1 C           0.5915    1.7187    0.9520 C.ar    1  LIG1        0.1352
      2 C           1.7558    1.7792    0.2609 C.ar    1  LIG1        0.1686
      3 C           1.8529    3.1170   -0.2609 C.ar    1  LIG1        0.0954
      4 C           0.7357    3.7601    0.1804 C.ar    1  LIG1        0.1901
      5 O          -0.0233    2.9288    0.9127 O.2     1  LIG1       -0.4548
      6 H           0.1003    0.9286    1.4872 H       1  LIG1        0.1068
      7 O           2.6493    0.7820    0.0711 O.3     1  LIG1       -0.5029
      8 H           3.4297    1.1493   -0.3646 H       1  LIG1        0.2923
      9 S           3.1424    3.6723   -1.3278 S.3     1  LIG1       -0.1354
     10 H           3.5525    4.6935   -0.5642 H       1  LIG1        0.1073
     11 C           0.3314    5.1460    0.0421 C.ar    1  LIG1        0.2141
     12 C           1.0550    6.2979    0.0700 C.ar    1  LIG1        0.1800
     13 C           0.1322    7.3726   -0.1610 C.ar    1  LIG1        0.0962
     14 C          -1.0905    6.7784   -0.2780 C.ar    1  LIG1        0.1912
     15 O          -0.9804    5.4470   -0.1545 O.2     1  LIG1       -0.4435
     16 O           2.3828    6.4222    0.2901 O.3     1  LIG1       -0.5024
     17 H           2.5942    7.3643    0.3554 H       1  LIG1        0.2923
     18 S           0.6098    9.0596   -0.3344 S.3     1  LIG1       -0.1353
     19 H          -0.0274    9.5192    0.7466 H       1  LIG1        0.1073
     20 C          -2.4120    7.3532   -0.4412 C.ar    1  LIG1        0.2131
     21 C          -2.9738    8.4888    0.0535 C.ar    1  LIG1        0.1792
     22 C          -4.3200    8.5291   -0.4509 C.ar    1  LIG1        0.0849
     23 C          -4.4579    7.4092   -1.2082 C.ar    1  LIG1        0.1096
     24 O          -3.3278    6.6986   -1.2058 O.2     1  LIG1       -0.4549
     25 H          -5.2847    7.0248   -1.7803 H       1  LIG1        0.1042
     26 O          -2.4105    9.3843    0.8922 O.3     1  LIG1       -0.5024
     27 H          -2.9996   10.1487    0.9663 H       1  LIG1        0.2923
     28 S          -5.4703    9.8349   -0.1711 S.3     1  LIG1       -0.1361
     29 H          -5.9497    9.3922    0.9997 H       1  LIG1        0.1073
@<TRIPOS>BOND
     1    25    23    1
     2     9    10    1
     3     9     3    1
     4    23    24   ar
     5    23    22   ar
     6    24    20   ar
     7    22    28    1
     8    22    21   ar
     9    20    14    1
    10    20    21   ar
    11     8     7    1
    12    18    13    1
    13    18    19    1
    14    14    13   ar
    15    14    15   ar
    16     3     4   ar
    17     3     2   ar
    18    28    29    1
    19    13    12   ar
    20    15    11   ar
    21    11    12   ar
    22    11     4    1
    23    21    26    1
    24    12    16    1
    25     7     2    1
    26     4     5   ar
    27     2     1   ar
    28    16    17    1
    29    26    27    1
    30     5     1   ar
    31     1     6    1
