@<TRIPOS>MOLECULE
mol_data/opt/m06hf/geoms/mol2/12fg12fg12fg.out
 29 31 0 0 0
SMALL
GASTEIGER

@<TRIPOS>ATOM
      1 C           0.5867    1.7218    0.9694 C.ar    1  LIG1        0.1352
      2 C           1.7492    1.7766    0.2747 C.ar    1  LIG1        0.1686
      3 C           1.8472    3.1114   -0.2545 C.ar    1  LIG1        0.0954
      4 C           0.7324    3.7588    0.1865 C.ar    1  LIG1        0.1901
      5 O          -0.0260    2.9328    0.9253 O.2     1  LIG1       -0.4548
      6 H           0.0956    0.9354    1.5101 H       1  LIG1        0.1068
      7 O           2.6404    0.7768    0.0877 O.3     1  LIG1       -0.5029
      8 H           3.4203    1.1403   -0.3521 H       1  LIG1        0.2923
      9 S           3.1347    3.6587   -1.3279 S.3     1  LIG1       -0.1354
     10 H           3.5488    4.6833   -0.5709 H       1  LIG1        0.1073
     11 C           0.3302    5.1447    0.0420 C.ar    1  LIG1        0.2141
     12 C           1.0559    6.2954    0.0617 C.ar    1  LIG1        0.1800
     13 C           0.1343    7.3706   -0.1724 C.ar    1  LIG1        0.0962
     14 C          -1.0897    6.7779   -0.2829 C.ar    1  LIG1        0.1912
     15 O          -0.9816    5.4470   -0.1526 O.2     1  LIG1       -0.4435
     16 O           2.3845    6.4185    0.2775 O.3     1  LIG1       -0.5024
     17 H           2.5978    7.3606    0.3372 H       1  LIG1        0.2923
     18 S           0.6145    9.0557   -0.3561 S.3     1  LIG1       -0.1353
     19 H          -0.0189    9.5222    0.7242 H       1  LIG1        0.1073
     20 C          -2.4106    7.3542   -0.4454 C.ar    1  LIG1        0.2131
     21 C          -2.9691    8.4934    0.0448 C.ar    1  LIG1        0.1792
     22 C          -4.3166    8.5334   -0.4560 C.ar    1  LIG1        0.0849
     23 C          -4.4586    7.4098   -1.2070 C.ar    1  LIG1        0.1096
     24 O          -3.3298    6.6972   -1.2039 O.2     1  LIG1       -0.4549
     25 H          -5.2876    7.0238   -1.7747 H       1  LIG1        0.1042
     26 O          -2.4018    9.3924    0.8772 O.3     1  LIG1       -0.5024
     27 H          -2.9894   10.1582    0.9489 H       1  LIG1        0.2923
     28 S          -5.4638    9.8428   -0.1799 S.3     1  LIG1       -0.1361
     29 H          -5.9406    9.4071    0.9945 H       1  LIG1        0.1073
@<TRIPOS>BOND
     1    25    23    1
     2     9    10    1
     3     9     3    1
     4    23    24   ar
     5    23    22   ar
     6    24    20   ar
     7    22    28    1
     8    22    21   ar
     9    20    14    1
    10    20    21   ar
    11    18    13    1
    12    18    19    1
    13     8     7    1
    14    14    13   ar
    15    14    15   ar
    16     3     4   ar
    17     3     2   ar
    18    28    29    1
    19    13    12   ar
    20    15    11   ar
    21    11    12   ar
    22    11     4    1
    23    21    26    1
    24    12    16    1
    25     7     2    1
    26     4     5   ar
    27     2     1   ar
    28    16    17    1
    29    26    27    1
    30     5     1   ar
    31     1     6    1
