@<TRIPOS>MOLECULE
mol_data/opt/m06hf/geoms/mol2/12fg12fg-12fg-12fg.out
 38 41 0 0 0
SMALL
GASTEIGER

@<TRIPOS>ATOM
      1 C           1.3824    1.9780    1.7413 C.ar    1  LIG1        0.1352
      2 C           2.3135    1.9153    0.7591 C.ar    1  LIG1        0.1686
      3 C           2.1388    3.0946   -0.0465 C.ar    1  LIG1        0.0954
      4 C           1.1169    3.7829    0.5357 C.ar    1  LIG1        0.1901
      5 O           0.6613    3.1214    1.6124 O.2     1  LIG1       -0.4548
      6 H           1.1304    1.3195    2.5509 H       1  LIG1        0.1068
      7 O           3.2196    0.9335    0.5474 O.3     1  LIG1       -0.5029
      8 H           3.8400    1.2320   -0.1313 H       1  LIG1        0.2923
      9 S           3.0370    3.4276   -1.5261 S.3     1  LIG1       -0.1354
     10 H           3.5465    4.6057   -1.1436 H       1  LIG1        0.1073
     11 C           0.5667    5.0854    0.2127 C.ar    1  LIG1        0.2141
     12 C           1.1807    6.2324   -0.1868 C.ar    1  LIG1        0.1800
     13 C           0.1450    7.1988   -0.4138 C.ar    1  LIG1        0.0962
     14 C          -1.0186    6.5589   -0.1003 C.ar    1  LIG1        0.1912
     15 O          -0.7753    5.2948    0.2794 O.2     1  LIG1       -0.4435
     16 O           2.5093    6.4357   -0.3306 O.3     1  LIG1       -0.5024
     17 H           2.6583    7.3757   -0.5074 H       1  LIG1        0.2923
     18 S           0.4242    8.8136   -1.0598 S.3     1  LIG1       -0.1353
     19 H          -0.0408    9.4884   -0.0007 H       1  LIG1        0.1073
     20 C          -2.3780    7.0592   -0.0604 C.ar    1  LIG1        0.2142
     21 C          -2.8743    8.2652    0.3293 C.ar    1  LIG1        0.1800
     22 C          -4.2903    8.2209    0.1016 C.ar    1  LIG1        0.0962
     23 C          -4.5379    6.9694   -0.3814 C.ar    1  LIG1        0.1912
     24 O          -3.3996    6.2657   -0.4781 O.2     1  LIG1       -0.4435
     25 O          -2.1792    9.3021    0.8453 O.3     1  LIG1       -0.5024
     26 H          -2.8063    9.9713    1.1538 H       1  LIG1        0.2923
     27 S          -5.3680    9.5941    0.3357 S.3     1  LIG1       -0.1353
     28 H          -6.1818    9.0126    1.2255 H       1  LIG1        0.1073
     29 C          -5.7919    6.3200   -0.7112 C.ar    1  LIG1        0.2131
     30 C          -7.0147    6.3702   -0.1181 C.ar    1  LIG1        0.1792
     31 C          -7.8763    5.5151   -0.8885 C.ar    1  LIG1        0.0849
     32 C          -7.0974    5.0216   -1.8872 C.ar    1  LIG1        0.1096
     33 O          -5.8518    5.4909   -1.7885 O.2     1  LIG1       -0.4549
     34 H          -7.3109    4.3492   -2.7002 H       1  LIG1        0.1042
     35 O          -7.3542    7.0516    0.9969 O.3     1  LIG1       -0.5024
     36 H          -8.3024    6.9349    1.1521 H       1  LIG1        0.2923
     37 S          -9.5904    5.2529   -0.5678 S.3     1  LIG1       -0.1361
     38 H          -9.4498    4.1823    0.2236 H       1  LIG1        0.1073
@<TRIPOS>BOND
     1    34    32    1
     2    32    33   ar
     3    32    31   ar
     4    33    29   ar
     5     9    10    1
     6     9     3    1
     7    18    13    1
     8    18    19    1
     9    31    37    1
    10    31    30   ar
    11    29    23    1
    12    29    30   ar
    13    37    38    1
    14    17    16    1
    15    24    23   ar
    16    24    20   ar
    17    13    12   ar
    18    13    14   ar
    19    23    22   ar
    20    16    12    1
    21    12    11   ar
    22     8     7    1
    23    30    35    1
    24    14    20    1
    25    14    15   ar
    26    20    21   ar
    27     3     4   ar
    28     3     2   ar
    29    22    21   ar
    30    22    27    1
    31    11    15   ar
    32    11     4    1
    33    21    25    1
    34    27    28    1
    35     4     5   ar
    36     7     2    1
    37     2     1   ar
    38    25    26    1
    39    35    36    1
    40     5     1   ar
    41     1     6    1
