@<TRIPOS>MOLECULE
mol_data/opt/m06hf/geoms/mol2/12fh12fe4id-4de.out
 49 52 0 0 0
SMALL
GASTEIGER

@<TRIPOS>ATOM
      1 C           0.8716    1.7296    1.1012 C.ar    1  LIG1        0.1359
      2 C           1.9867    1.7934    0.3350 C.ar    1  LIG1        0.1764
      3 C           2.0655    3.1336   -0.1765 C.ar    1  LIG1        0.1163
      4 C           0.9880    3.7829    0.3438 C.ar    1  LIG1        0.1976
      5 O           0.2665    2.9505    1.1160 O.2     1  LIG1       -0.4540
      6 H           0.4067    0.9437    1.6650 H       1  LIG1        0.1068
      7 O           2.9003    0.8414    0.0468 O.3     1  LIG1       -0.5024
      8 H           3.6056    1.2928   -0.4428 H       1  LIG1        0.2923
      9 N           3.1212    3.5420   -1.0307 N.pl3   1  LIG1       -0.3521
     10 H           2.8217    3.5598   -2.0017 H       1  LIG1        0.1425
     11 H           3.4592    4.4670   -0.7777 H       1  LIG1        0.1425
     12 C           0.5844    5.1703    0.2163 C.ar    1  LIG1        0.2149
     13 C           1.3151    6.2959    0.0091 C.ar    1  LIG1        0.1822
     14 C           0.3817    7.3870   -0.0790 C.ar    1  LIG1        0.1125
     15 C          -0.8567    6.8302    0.1036 C.ar    1  LIG1        0.1551
     16 O          -0.7326    5.5033    0.2688 O.2     1  LIG1       -0.4466
     17 O           2.6622    6.3843   -0.0963 O.3     1  LIG1       -0.5023
     18 H           2.9106    7.3104   -0.2168 H       1  LIG1        0.2923
     19 C           0.7691    8.7291   -0.3789 C.1     1  LIG1       -0.0622
     20 C           1.1773    9.8291   -0.6444 C.1     1  LIG1       -0.1137
     21 H           1.5132   10.8108   -0.8911 H       1  LIG1        0.1232
     22 C          -2.5939    8.5539    0.7237 C.ar    1  LIG1       -0.0391
     23 C          -3.9097    9.0025    0.5872 C.ar    1  LIG1       -0.0492
     24 C          -2.2263    7.3742    0.0598 C.ar    1  LIG1        0.0228
     25 C          -4.8569    8.3192   -0.1680 C.ar    1  LIG1        0.0010
     26 H          -4.2076    9.9076    1.1032 H       1  LIG1        0.0627
     27 C          -3.1685    6.6549   -0.6778 C.ar    1  LIG1       -0.0328
     28 C          -4.4712    7.1241   -0.7941 C.ar    1  LIG1        0.0602
     29 H          -2.8803    5.7376   -1.1738 H       1  LIG1        0.0638
     30 C          -1.6403    9.3358    1.6052 C.3     1  LIG1       -0.0390
     31 H          -2.2009    9.8172    2.4056 H       1  LIG1        0.0278
     32 H          -1.1307   10.1014    1.0194 H       1  LIG1        0.0278
     33 H          -0.8875    8.6783    2.0392 H       1  LIG1        0.0278
     34 N          -6.1372    5.7506   -2.2375 N.1     1  LIG1       -0.1908
     35 C          -5.4091    6.3683   -1.6011 C.1     1  LIG1        0.0998
     36 C          -6.4994   10.1520   -0.7189 C.ar    1  LIG1        0.0596
     37 C          -7.8021   10.6452   -0.8144 C.ar    1  LIG1       -0.0426
     38 C          -6.2500    8.8419   -0.2840 C.ar    1  LIG1        0.0019
     39 C          -8.8728    9.8334   -0.4736 C.ar    1  LIG1       -0.0451
     40 H          -7.9610   11.6569   -1.1605 H       1  LIG1        0.0631
     41 C          -7.3343    8.0358    0.0530 C.ar    1  LIG1       -0.0373
     42 C          -8.6400    8.5248   -0.0386 C.ar    1  LIG1        0.0253
     43 H          -7.1707    7.0227    0.3957 H       1  LIG1        0.0636
     44 H          -9.8876   10.1984   -0.5435 H       1  LIG1        0.0630
     45 N          -4.5582   11.7438   -1.3877 N.1     1  LIG1       -0.1909
     46 C          -5.4051   11.0265   -1.0963 C.1     1  LIG1        0.0998
     47 C          -9.7496    7.6757    0.3224 C.1     1  LIG1       -0.0696
     48 C         -10.6727    6.9691    0.6237 C.1     1  LIG1       -0.1139
     49 H         -11.4900    6.3388    0.8883 H       1  LIG1        0.1232
@<TRIPOS>BOND
     1    34    35    3
     2    10     9    1
     3    35    28    1
     4    45    46    3
     5    29    27    1
     6    40    37    1
     7    46    36    1
     8     9    11    1
     9     9     3    1
    10    21    20    1
    11    37    36   ar
    12    37    39   ar
    13    28    27   ar
    14    28    25   ar
    15    36    38   ar
    16    27    24   ar
    17    20    19    3
    18    44    39    1
    19    39    42   ar
    20     8     7    1
    21    19    14    1
    22    38    25    1
    23    38    41   ar
    24    18    17    1
    25     3     2   ar
    26     3     4   ar
    27    25    23   ar
    28    17    13    1
    29    14    13   ar
    30    14    15   ar
    31    42    41   ar
    32    42    47    1
    33    13    12   ar
    34     7     2    1
    35    41    43    1
    36    24    15    1
    37    24    22   ar
    38    15    16   ar
    39    12    16   ar
    40    12     4    1
    41    47    48    3
    42     2     1   ar
    43     4     5   ar
    44    23    22   ar
    45    23    26    1
    46    48    49    1
    47    22    30    1
    48    32    30    1
    49     1     5   ar
    50     1     6    1
    51    30    33    1
    52    30    31    1
