@<TRIPOS>MOLECULE
mol_data/opt/m06hf/geoms/mol2/12fh4ef13if6da-.out
 47 50 0 0 0
SMALL
GASTEIGER

@<TRIPOS>ATOM
      1 C           0.3670    1.6440   -0.4689 C.ar    1  LIG1        0.1358
      2 C           1.6438    1.6212   -0.0274 C.ar    1  LIG1        0.1763
      3 C           2.0684    2.9915    0.1221 C.ar    1  LIG1        0.1131
      4 C           0.9926    3.7469   -0.2508 C.ar    1  LIG1        0.1603
      5 O          -0.0404    2.9199   -0.6034 O.2     1  LIG1       -0.4572
      6 H          -0.3259    0.8649   -0.7298 H       1  LIG1        0.1068
      7 O           2.4410    0.5388    0.2225 O.3     1  LIG1       -0.5024
      8 H           2.6818    0.5462    1.1580 H       1  LIG1        0.2923
      9 N           3.3055    3.3087    0.6775 N.pl3   1  LIG1       -0.3522
     10 H           4.0144    2.6471    0.3784 H       1  LIG1        0.1425
     11 H           3.6044    4.2575    0.4875 H       1  LIG1        0.1425
     12 C           1.5905    6.1907   -0.5411 C.ar    1  LIG1        0.0362
     13 C           1.2045    7.5331   -0.4518 C.ar    1  LIG1       -0.0330
     14 C           0.6709    5.1779   -0.2277 C.ar    1  LIG1        0.0380
     15 C          -0.0787    7.9101   -0.0739 C.ar    1  LIG1        0.0413
     16 H           1.9234    8.2916   -0.7260 H       1  LIG1        0.0638
     17 C          -0.6337    5.5472    0.1132 C.ar    1  LIG1       -0.0076
     18 C          -1.0056    6.8796    0.1802 C.ar    1  LIG1        0.1267
     19 H          -1.3558    4.7718    0.3381 H       1  LIG1        0.0662
     20 C           2.9127    5.8997   -1.0392 C.1     1  LIG1       -0.0689
     21 C           4.0186    5.7012   -1.4710 C.1     1  LIG1       -0.1139
     22 H           4.9869    5.5266   -1.8804 H       1  LIG1        0.1232
     23 O          -2.2698    7.2555    0.5053 O.3     1  LIG1       -0.5061
     24 H          -2.8747    6.5113    0.5946 H       1  LIG1        0.2922
     25 C          -0.4493    9.3336    0.0322 C.ar    1  LIG1        0.0570
     26 C           0.3450   10.4470    0.2916 C.ar    1  LIG1        0.0170
     27 C          -0.5321   11.5507    0.2792 C.ar    1  LIG1        0.1456
     28 C          -1.8231   11.1077    0.0158 C.ar    1  LIG1        0.0919
     29 N          -1.7337    9.7543   -0.1229 N.ar    1  LIG1       -0.3509
     30 H          -2.5030    9.1071   -0.2444 H       1  LIG1        0.1660
     31 C           1.8216   10.5369    0.5843 C.3     1  LIG1       -0.0342
     32 H           2.0185   11.4735    1.1052 H       1  LIG1        0.0279
     33 H           2.4123   10.5376   -0.3341 H       1  LIG1        0.0279
     34 H           2.1449    9.7046    1.2110 H       1  LIG1        0.0279
     35 O          -0.1480   12.8555    0.4998 O.3     1  LIG1       -0.5044
     36 H          -0.3159   13.0816    1.4233 H       1  LIG1        0.2922
     37 C          -4.3555   11.3794    0.0091 C.ar    1  LIG1        0.1492
     38 C          -3.0548   11.8936   -0.1033 C.ar    1  LIG1        0.0377
     39 C          -2.9698   13.2746   -0.3552 C.ar    1  LIG1       -0.0484
     40 C          -4.1236   14.0286   -0.4591 C.ar    1  LIG1       -0.0429
     41 C          -5.3624   13.3958   -0.3242 C.ar    1  LIG1        0.0291
     42 N          -5.4735   12.0963   -0.1003 N.ar    1  LIG1       -0.2440
     43 H          -1.9909   13.7209   -0.4701 H       1  LIG1        0.0625
     44 H          -6.2875   13.9517   -0.4034 H       1  LIG1        0.0830
     45 N          -4.7656    8.8388    0.4388 N.1     1  LIG1       -0.1893
     46 C          -4.5874    9.9586    0.2597 C.1     1  LIG1        0.1198
     47 H          -4.0756   15.0909   -0.6546 H       1  LIG1        0.0633
@<TRIPOS>BOND
     1    22    21    1
     2    21    20    3
     3    20    12    1
     4     6     1    1
     5    16    13    1
     6    47    40    1
     7     5     1   ar
     8     5     4   ar
     9    12    13   ar
    10    12    14   ar
    11    43    39    1
    12     1     2   ar
    13    40    39   ar
    14    40    41   ar
    15    13    15   ar
    16    44    41    1
    17    39    38   ar
    18    33    31    1
    19    41    42   ar
    20     4    14    1
    21     4     3   ar
    22    30    29    1
    23    14    17   ar
    24    29    28   ar
    25    29    25   ar
    26    38    37   ar
    27    38    28    1
    28    42    37   ar
    29    15    25    1
    30    15    18   ar
    31     2     3   ar
    32     2     7    1
    33    37    46    1
    34    28    27   ar
    35    25    26   ar
    36    17    18   ar
    37    17    19    1
    38     3     9    1
    39    18    23    1
    40     7     8    1
    41    46    45    3
    42    27    26   ar
    43    27    35    1
    44    26    31    1
    45    10     9    1
    46    11     9    1
    47    35    36    1
    48    23    24    1
    49    31    32    1
    50    31    34    1
