@<TRIPOS>MOLECULE
mol_data/opt/m06hf/geoms/mol2/12fh6fh4ef-12ie.out
 49 52 0 0 0
SMALL
GASTEIGER

@<TRIPOS>ATOM
      1 C           0.9656    1.9005    1.6136 C.ar    1  LIG1        0.1358
      2 C           1.5683    1.6456    0.4314 C.ar    1  LIG1        0.1763
      3 C           1.5707    2.8777   -0.3201 C.ar    1  LIG1        0.1132
      4 C           0.9834    3.8014    0.4877 C.ar    1  LIG1        0.1642
      5 O           0.6063    3.2029    1.6634 O.2     1  LIG1       -0.4571
      6 H           0.7315    1.2843    2.4625 H       1  LIG1        0.1068
      7 O           2.0408    0.4534   -0.0452 O.3     1  LIG1       -0.5024
      8 H           3.0028    0.4391    0.0304 H       1  LIG1        0.2923
      9 N           2.1130    3.0053   -1.6008 N.pl3   1  LIG1       -0.3522
     10 H           2.1235    2.1100   -2.0776 H       1  LIG1        0.1425
     11 H           1.6413    3.7059   -2.1627 H       1  LIG1        0.1425
     12 C          -0.4188    5.8642    0.8632 C.ar    1  LIG1        0.2240
     13 C           0.7131    5.2277    0.2999 C.ar    1  LIG1        0.0822
     14 C           1.5347    5.9892   -0.5174 C.ar    1  LIG1       -0.0231
     15 C           1.2543    7.3376   -0.7614 C.ar    1  LIG1        0.0519
     16 C           0.1373    7.8696   -0.1103 C.ar    1  LIG1        0.0967
     17 N          -0.6793    7.1313    0.6496 N.ar    1  LIG1       -0.2105
     18 H           2.4041    5.5337   -0.9798 H       1  LIG1        0.0645
     19 O          -1.3022    5.2046    1.6403 O.3     1  LIG1       -0.4919
     20 H          -0.9643    4.3305    1.8713 H       1  LIG1        0.2938
     21 N           2.0357    8.0505   -1.6850 N.pl3   1  LIG1       -0.3563
     22 H           3.0263    8.0039   -1.4775 H       1  LIG1        0.1424
     23 H           1.7544    9.0189   -1.7791 H       1  LIG1        0.1424
     24 C           0.5997   10.3683    0.0370 C.ar    1  LIG1        0.0348
     25 C           0.1406   11.6827   -0.1112 C.ar    1  LIG1       -0.0315
     26 C          -0.2651    9.3032   -0.2608 C.ar    1  LIG1        0.0211
     27 C          -1.1586   11.9586   -0.5167 C.ar    1  LIG1        0.0601
     28 H           0.8148   12.5030    0.0984 H       1  LIG1        0.0638
     29 C          -1.5720    9.5761   -0.6559 C.ar    1  LIG1       -0.0091
     30 C          -2.0255   10.8844   -0.7797 C.ar    1  LIG1        0.1282
     31 H          -2.2415    8.7429   -0.8369 H       1  LIG1        0.0661
     32 C           1.9382   10.1522    0.5364 C.1     1  LIG1       -0.0690
     33 C           3.0541   10.0095    0.9625 C.1     1  LIG1       -0.1139
     34 H           4.0351    9.8803    1.3578 H       1  LIG1        0.1232
     35 O          -3.2950   11.1760   -1.1398 O.3     1  LIG1       -0.5060
     36 H          -3.8108   10.3703   -1.2535 H       1  LIG1        0.2922
     37 C          -1.6193   13.3554   -0.6138 C.ar    1  LIG1        0.1424
     38 C          -1.5015   14.3983    0.2503 C.ar    1  LIG1        0.0108
     39 C          -2.1229   15.5176   -0.4244 C.ar    1  LIG1        0.0658
     40 C          -2.5585   15.0441   -1.6226 C.ar    1  LIG1        0.1082
     41 O          -2.2587   13.7461   -1.7452 O.2     1  LIG1       -0.4613
     42 H          -3.0764   15.5105   -2.4418 H       1  LIG1        0.1042
     43 C          -0.9033   14.4264    1.6309 C.3     1  LIG1       -0.0349
     44 H          -1.5738   14.9607    2.3044 H       1  LIG1        0.0279
     45 H           0.0556   14.9480    1.6218 H       1  LIG1        0.0279
     46 H          -0.7565   13.4123    2.0009 H       1  LIG1        0.0279
     47 C          -2.2587   16.8493    0.0877 C.1     1  LIG1       -0.0662
     48 C          -2.3610   17.9584    0.5399 C.1     1  LIG1       -0.1138
     49 H          -2.4524   18.9428    0.9368 H       1  LIG1        0.1232
@<TRIPOS>BOND
     1    42    40    1
     2    11     9    1
     3    10     9    1
     4    23    21    1
     5    41    40   ar
     6    41    37   ar
     7    21    22    1
     8    21    15    1
     9    40    39   ar
    10     9     3    1
    11    36    35    1
    12    35    30    1
    13    18    14    1
    14    31    29    1
    15    30    29   ar
    16    30    27   ar
    17    15    14   ar
    18    15    16   ar
    19    29    26   ar
    20    37    27    1
    21    37    38   ar
    22    14    13   ar
    23    27    25   ar
    24    39    47    1
    25    39    38   ar
    26     3     2   ar
    27     3     4   ar
    28    26    16    1
    29    26    24   ar
    30    25    24   ar
    31    25    28    1
    32    16    17   ar
    33     7     8    1
    34     7     2    1
    35    24    32    1
    36    47    48    3
    37    38    43    1
    38    13     4    1
    39    13    12   ar
    40     2     1   ar
    41     4     5   ar
    42    32    33    3
    43    48    49    1
    44    17    12   ar
    45    12    19    1
    46    33    34    1
    47     1     5   ar
    48     1     6    1
    49    45    43    1
    50    43    46    1
    51    43    44    1
    52    19    20    1
