@<TRIPOS>MOLECULE
mol_data/opt/m06hf/geoms/mol2/12fh12he4ha-12he.out
 46 49 0 0 0
SMALL
GASTEIGER

@<TRIPOS>ATOM
      1 C           0.8815    1.8755    1.1669 C.ar    1  LIG1        0.1359
      2 C           2.0036    1.8981    0.4093 C.ar    1  LIG1        0.1764
      3 C           2.0860    3.2096   -0.1734 C.ar    1  LIG1        0.1162
      4 C           1.0020    3.8858    0.3008 C.ar    1  LIG1        0.1958
      5 O           0.2681    3.0844    1.1003 O.2     1  LIG1       -0.4541
      6 H           0.4101    1.1190    1.7674 H       1  LIG1        0.1068
      7 O           2.9426    0.9477    0.1500 O.3     1  LIG1       -0.5024
      8 H           2.8053    0.1737    0.7057 H       1  LIG1        0.2923
      9 N           3.0755    3.6805   -1.0762 N.pl3   1  LIG1       -0.3521
     10 H           3.9122    3.1094   -0.9952 H       1  LIG1        0.1425
     11 H           2.7438    3.6276   -2.0361 H       1  LIG1        0.1425
     12 C           0.5878    5.2579    0.1022 C.ar    1  LIG1        0.1942
     13 C           1.3214    6.3761   -0.1694 C.ar    1  LIG1        0.0904
     14 C           0.3511    7.4436   -0.2799 C.ar    1  LIG1        0.0918
     15 C          -0.8814    6.8868   -0.0377 C.ar    1  LIG1        0.1548
     16 O          -0.7391    5.5730    0.1814 O.2     1  LIG1       -0.4484
     17 N           2.6873    6.5163   -0.2698 N.pl3   1  LIG1       -0.3540
     18 H           3.1673    5.6691   -0.5747 H       1  LIG1        0.1425
     19 H           2.9769    7.3646   -0.7360 H       1  LIG1        0.1425
     20 C           0.6703    8.7876   -0.6457 C.1     1  LIG1       -0.0640
     21 C           0.9756    9.9130   -0.9439 C.1     1  LIG1       -0.1137
     22 H           1.2355   10.9076   -1.2229 H       1  LIG1        0.1232
     23 C          -2.6038    8.6388    0.5487 C.ar    1  LIG1        0.0360
     24 C          -3.9407    9.0605    0.4654 C.ar    1  LIG1       -0.0296
     25 C          -2.2554    7.4104   -0.0477 C.ar    1  LIG1        0.0392
     26 C          -4.9050    8.2811   -0.1652 C.ar    1  LIG1        0.0209
     27 H          -4.2353    9.9836    0.9520 H       1  LIG1        0.0643
     28 C          -3.2481    6.6209   -0.6422 C.ar    1  LIG1       -0.0486
     29 C          -4.5637    7.0366   -0.7130 C.ar    1  LIG1       -0.0502
     30 H          -2.9542    5.6680   -1.0633 H       1  LIG1        0.0625
     31 N          -1.7052    9.3888    1.2744 N.pl3   1  LIG1       -0.3574
     32 H          -0.7207    9.2504    1.1095 H       1  LIG1        0.1423
     33 H          -1.9659   10.3436    1.4626 H       1  LIG1        0.1423
     34 H          -5.3190    6.4266   -1.1867 H       1  LIG1        0.0625
     35 C          -6.2816    8.7741   -0.2494 C.ar    1  LIG1        0.1566
     36 C          -6.8151   10.0273   -0.1805 C.ar    1  LIG1        0.0865
     37 C          -8.2415    9.8605   -0.3459 C.ar    1  LIG1        0.0836
     38 C          -8.4429    8.5250   -0.5093 C.ar    1  LIG1        0.1098
     39 O          -7.2815    7.8698   -0.4632 O.2     1  LIG1       -0.4598
     40 H          -9.3359    7.9454   -0.6623 H       1  LIG1        0.1043
     41 N          -6.1644   11.2495    0.0147 N.pl3   1  LIG1       -0.3541
     42 H          -5.3169   11.3323   -0.5364 H       1  LIG1        0.1425
     43 H          -6.7851   12.0327   -0.1544 H       1  LIG1        0.1425
     44 C          -9.2069   10.9169   -0.3464 C.1     1  LIG1       -0.0646
     45 C          -9.9820   11.8359   -0.3426 C.1     1  LIG1       -0.1138
     46 H         -10.6797   12.6411   -0.3325 H       1  LIG1        0.1232
@<TRIPOS>BOND
     1    11     9    1
     2    22    21    1
     3    34    29    1
     4     9    10    1
     5     9     3    1
     6    30    28    1
     7    21    20    3
     8    19    17    1
     9    29    28   ar
    10    29    26   ar
    11    40    38    1
    12    20    14    1
    13    28    25   ar
    14    18    17    1
    15    42    41    1
    16    38    39   ar
    17    38    37   ar
    18    39    35   ar
    19    44    37    1
    20    44    45    3
    21    37    36   ar
    22    45    46    1
    23    14    13   ar
    24    14    15   ar
    25    17    13    1
    26    35    36   ar
    27    35    26    1
    28    36    41    1
    29     3     4   ar
    30     3     2   ar
    31    13    12   ar
    32    26    24   ar
    33    43    41    1
    34    25    15    1
    35    25    23   ar
    36    15    16   ar
    37    12    16   ar
    38    12     4    1
    39     7     2    1
    40     7     8    1
    41     4     5   ar
    42     2     1   ar
    43    24    23   ar
    44    24    27    1
    45    23    31    1
    46     5     1   ar
    47    32    31    1
    48     1     6    1
    49    31    33    1
