@<TRIPOS>MOLECULE
mol_data/opt/m06hf/geoms/mol2/12fi12fi12fi-12fi.out
 46 49 0 0 0
SMALL
GASTEIGER

@<TRIPOS>ATOM
      1 C           0.3596    1.6829   -0.6212 C.ar    1  LIG1        0.1343
      2 C           1.6071    1.7219   -0.0968 C.ar    1  LIG1        0.1581
      3 C           1.9156    3.1015    0.1856 C.ar    1  LIG1        0.0399
      4 C           0.8110    3.7834   -0.2216 C.ar    1  LIG1        0.1799
      5 O          -0.1338    2.9423   -0.6984 O.2     1  LIG1       -0.4557
      6 H          -0.2716    0.8782   -0.9487 H       1  LIG1        0.1068
      7 O           2.3969    0.6444    0.1848 O.3     1  LIG1       -0.5034
      8 H           3.3049    0.8430   -0.0684 H       1  LIG1        0.2923
      9 C           3.1674    3.6219    0.8408 C.3     1  LIG1       -0.0325
     10 H           2.9493    4.5464    1.3735 H       1  LIG1        0.0280
     11 H           3.9411    3.8361    0.1017 H       1  LIG1        0.0280
     12 H           3.5384    2.8789    1.5487 H       1  LIG1        0.0280
     13 C           0.5054    5.2009   -0.2332 C.ar    1  LIG1        0.2124
     14 C           1.2709    6.3179   -0.3525 C.ar    1  LIG1        0.1694
     15 C           0.4012    7.4648   -0.2843 C.ar    1  LIG1        0.0407
     16 C          -0.8444    6.9346   -0.1436 C.ar    1  LIG1        0.1809
     17 O          -0.7993    5.5824   -0.1019 O.2     1  LIG1       -0.4444
     18 O           2.6187    6.3335   -0.5192 O.3     1  LIG1       -0.5029
     19 H           2.9111    7.2352   -0.6894 H       1  LIG1        0.2923
     20 C           0.8163    8.9116   -0.3770 C.3     1  LIG1       -0.0325
     21 H          -0.0532    9.5584   -0.2682 H       1  LIG1        0.0280
     22 H           1.2813    9.1145   -1.3451 H       1  LIG1        0.0280
     23 H           1.5312    9.1510    0.4138 H       1  LIG1        0.0280
     24 C          -2.1715    7.4905   -0.0439 C.ar    1  LIG1        0.2125
     25 C          -3.3857    6.8748    0.0214 C.ar    1  LIG1        0.1694
     26 C          -4.3823    7.9066    0.0925 C.ar    1  LIG1        0.0407
     27 C          -3.6711    9.0710    0.0639 C.ar    1  LIG1        0.1809
     28 O          -2.3424    8.8351   -0.0175 O.2     1  LIG1       -0.4444
     29 O          -3.6785    5.5576    0.0192 O.3     1  LIG1       -0.5029
     30 H          -2.8615    5.0425   -0.0333 H       1  LIG1        0.2923
     31 C          -5.8652    7.6605    0.1715 C.3     1  LIG1       -0.0325
     32 H          -6.0903    7.0696    1.0600 H       1  LIG1        0.0280
     33 H          -6.1872    7.0950   -0.7035 H       1  LIG1        0.0280
     34 H          -6.4049    8.6030    0.2154 H       1  LIG1        0.0280
     35 C          -4.0427   10.4712    0.1087 C.ar    1  LIG1        0.2114
     36 C          -3.3014   11.6120    0.0510 C.ar    1  LIG1        0.1687
     37 C          -4.2201   12.7181    0.1526 C.ar    1  LIG1        0.0295
     38 C          -5.4420   12.1427    0.2620 C.ar    1  LIG1        0.0993
     39 O          -5.3528   10.7995    0.2388 O.2     1  LIG1       -0.4557
     40 H          -6.4291   12.5598    0.3620 H       1  LIG1        0.1033
     41 O          -1.9505   11.6779   -0.0700 O.3     1  LIG1       -0.5030
     42 H          -1.6790   12.5932   -0.1935 H       1  LIG1        0.2923
     43 C          -3.8615   14.1814    0.1406 C.3     1  LIG1       -0.0332
     44 H          -4.7602   14.7854    0.2562 H       1  LIG1        0.0280
     45 H          -3.3854   14.4577   -0.8026 H       1  LIG1        0.0280
     46 H          -3.1824   14.4185    0.9621 H       1  LIG1        0.0280
@<TRIPOS>BOND
     1    22    20    1
     2     6     1    1
     3    45    43    1
     4    33    31    1
     5     5     1   ar
     6     5     4   ar
     7    19    18    1
     8     1     2   ar
     9    18    14    1
    10    20    15    1
    11    20    21    1
    12    20    23    1
    13    14    15   ar
    14    14    13   ar
    15    15    16   ar
    16    13     4    1
    17    13    17   ar
    18     4     3   ar
    19    42    41    1
    20    16    17   ar
    21    16    24    1
    22     2     7    1
    23     2     3   ar
    24    41    36    1
    25     8     7    1
    26    24    28   ar
    27    24    25   ar
    28    30    29    1
    29    28    27   ar
    30    29    25    1
    31    25    26   ar
    32    36    35   ar
    33    36    37   ar
    34    27    26   ar
    35    27    35    1
    36    26    31    1
    37    11     9    1
    38    35    39   ar
    39    43    37    1
    40    43    44    1
    41    43    46    1
    42    37    38   ar
    43    31    34    1
    44    31    32    1
    45     3     9    1
    46    39    38   ar
    47    38    40    1
    48     9    10    1
    49     9    12    1
