@<TRIPOS>MOLECULE
mol_data/opt/m06hf/geoms/mol2/12fi12fi-12fi.out
 35 37 0 0 0
SMALL
GASTEIGER

@<TRIPOS>ATOM
      1 C           0.0834    1.7935   -0.0525 C.ar    1  LIG1        0.1343
      2 C           1.4329    1.7373   -0.0532 C.ar    1  LIG1        0.1581
      3 C           1.9352    3.0926   -0.0364 C.ar    1  LIG1        0.0399
      4 C           0.8178    3.8649   -0.0274 C.ar    1  LIG1        0.1799
      5 O          -0.3040    3.1031   -0.0371 O.2     1  LIG1       -0.4557
      6 H          -0.6842    1.0440   -0.0617 H       1  LIG1        0.1068
      7 O           2.1773    0.6008   -0.0673 O.3     1  LIG1       -0.5034
      8 H           3.1132    0.8258   -0.0598 H       1  LIG1        0.2923
      9 C           3.3842    3.5091   -0.0308 C.3     1  LIG1       -0.0325
     10 H           3.4624    4.5953   -0.0190 H       1  LIG1        0.0280
     11 H           3.8909    3.1326   -0.9230 H       1  LIG1        0.0280
     12 H           3.8896    3.1134    0.8538 H       1  LIG1        0.0280
     13 C           0.5782    5.2903   -0.0098 C.ar    1  LIG1        0.2124
     14 C          -0.5878    5.9923    0.0018 C.ar    1  LIG1        0.1694
     15 C          -0.2482    7.3877    0.0184 C.ar    1  LIG1        0.0407
     16 C           1.1154    7.4049    0.0152 C.ar    1  LIG1        0.1809
     17 O           1.6245    6.1523   -0.0016 O.2     1  LIG1       -0.4444
     18 O          -1.8589    5.5332   -0.0010 O.3     1  LIG1       -0.5029
     19 H          -1.8439    4.5668   -0.0139 H       1  LIG1        0.2923
     20 C          -1.2494    8.5115    0.0345 C.3     1  LIG1       -0.0325
     21 H          -1.8821    8.4235    0.9184 H       1  LIG1        0.0280
     22 H          -1.8870    8.4443   -0.8477 H       1  LIG1        0.0280
     23 H          -0.7420    9.4725    0.0445 H       1  LIG1        0.0280
     24 C           2.1007    8.4684    0.0254 C.ar    1  LIG1        0.2114
     25 C           3.4615    8.4496    0.0162 C.ar    1  LIG1        0.1687
     26 C           3.9029    9.8217    0.0340 C.ar    1  LIG1        0.0295
     27 C           2.7618   10.5510    0.0526 C.ar    1  LIG1        0.0993
     28 O           1.6744    9.7566    0.0480 O.2     1  LIG1       -0.4557
     29 H           2.5824   11.6118    0.0698 H       1  LIG1        0.1033
     30 O           4.2414    7.3386   -0.0059 O.3     1  LIG1       -0.5030
     31 H           5.1700    7.5926   -0.0131 H       1  LIG1        0.2923
     32 C           5.3311   10.3021    0.0317 C.3     1  LIG1       -0.0332
     33 H           5.3567   11.3910    0.0485 H       1  LIG1        0.0280
     34 H           5.8528    9.9632   -0.8659 H       1  LIG1        0.0280
     35 H           5.8650    9.9354    0.9110 H       1  LIG1        0.0280
@<TRIPOS>BOND
     1    11     9    1
     2    34    32    1
     3    22    20    1
     4     7     8    1
     5     7     2    1
     6     6     1    1
     7     2     1   ar
     8     2     3   ar
     9     1     5   ar
    10     5     4   ar
    11     3     9    1
    12     3     4   ar
    13     9    10    1
    14     9    12    1
    15     4    13    1
    16    19    18    1
    17    31    30    1
    18    13    17   ar
    19    13    14   ar
    20    30    25    1
    21    17    16   ar
    22    18    14    1
    23    14    15   ar
    24    16    15   ar
    25    16    24    1
    26    25    24   ar
    27    25    26   ar
    28    15    20    1
    29    24    28   ar
    30    32    26    1
    31    32    33    1
    32    32    35    1
    33    26    27   ar
    34    20    23    1
    35    20    21    1
    36    28    27   ar
    37    27    29    1
