@<TRIPOS>MOLECULE
mol_data/opt/m06hf/geoms/mol2/12fi12fi-12fi-12fi-.out
 46 49 0 0 0
SMALL
GASTEIGER

@<TRIPOS>ATOM
      1 C          -0.5624    1.7632   -0.3867 C.ar    1  LIG1        0.1343
      2 C           0.7360    1.5229   -0.6711 C.ar    1  LIG1        0.1581
      3 C           1.4486    2.7779   -0.5851 C.ar    1  LIG1        0.0399
      4 C           0.4951    3.6852   -0.2495 C.ar    1  LIG1        0.1799
      5 O          -0.7192    3.0937   -0.1246 O.2     1  LIG1       -0.4557
      6 H          -1.4321    1.1367   -0.3305 H       1  LIG1        0.1068
      7 O           1.2677    0.3110   -0.9743 O.3     1  LIG1       -0.5034
      8 H           2.1956    0.4091   -1.2112 H       1  LIG1        0.2923
      9 C           2.9247    2.9776   -0.8134 C.3     1  LIG1       -0.0325
     10 H           3.1897    4.0204   -0.6548 H       1  LIG1        0.0280
     11 H           3.1953    2.7016   -1.8354 H       1  LIG1        0.0280
     12 H           3.5012    2.3631   -0.1181 H       1  LIG1        0.0280
     13 C           0.4939    5.1103    0.0052 C.ar    1  LIG1        0.2124
     14 C          -0.5254    5.9283    0.3898 C.ar    1  LIG1        0.1694
     15 C           0.0265    7.2455    0.5396 C.ar    1  LIG1        0.0407
     16 C           1.3439    7.1100    0.2102 C.ar    1  LIG1        0.1809
     17 O           1.6371    5.8288   -0.1161 O.2     1  LIG1       -0.4444
     18 O          -1.8201    5.6289    0.6295 O.3     1  LIG1       -0.5029
     19 H          -1.9605    4.6851    0.4743 H       1  LIG1        0.2923
     20 C          -0.7170    8.4555    1.0414 C.3     1  LIG1       -0.0325
     21 H          -1.2630    8.1854    1.9451 H       1  LIG1        0.0280
     22 H          -1.4441    8.8008    0.3037 H       1  LIG1        0.0280
     23 H          -0.0194    9.2614    1.2685 H       1  LIG1        0.0280
     24 C           2.3909    8.1090    0.0993 C.ar    1  LIG1        0.2125
     25 C           2.3374    9.3674   -0.4164 C.ar    1  LIG1        0.1694
     26 C           3.6361    9.9539   -0.2495 C.ar    1  LIG1        0.0407
     27 C           4.3809    8.9695    0.3349 C.ar    1  LIG1        0.1809
     28 O           3.6473    7.8557    0.5463 O.2     1  LIG1       -0.4444
     29 O           1.2914   10.0105   -0.9882 O.3     1  LIG1       -0.5029
     30 H           0.5783    9.3799   -1.1542 H       1  LIG1        0.2923
     31 C           4.0220   11.3676   -0.5980 C.3     1  LIG1       -0.0325
     32 H           3.3004   12.0554   -0.1572 H       1  LIG1        0.0280
     33 H           4.0106   11.5195   -1.6791 H       1  LIG1        0.0280
     34 H           5.0155   11.5933   -0.2114 H       1  LIG1        0.0280
     35 C           5.7962    8.9462    0.6645 C.ar    1  LIG1        0.2114
     36 C           6.8633    9.3828   -0.0577 C.ar    1  LIG1        0.1687
     37 C           8.0418    9.1337    0.7258 C.ar    1  LIG1        0.0295
     38 C           7.5737    8.5511    1.8581 C.ar    1  LIG1        0.0993
     39 O           6.2323    8.4300    1.8415 O.2     1  LIG1       -0.4557
     40 H           8.0750    8.1822    2.7365 H       1  LIG1        0.1033
     41 O           6.8850    9.9365   -1.2949 O.3     1  LIG1       -0.5030
     42 H           6.0153    9.8377   -1.7031 H       1  LIG1        0.2923
     43 C           9.4548    9.4540    0.3195 C.3     1  LIG1       -0.0332
     44 H           9.5769   10.5306    0.1980 H       1  LIG1        0.0280
     45 H           9.6857    8.9748   -0.6319 H       1  LIG1        0.0280
     46 H          10.1546    9.1005    1.0757 H       1  LIG1        0.0280
@<TRIPOS>BOND
     1    11     9    1
     2    42    41    1
     3    33    31    1
     4    41    36    1
     5     8     7    1
     6    30    29    1
     7    29    25    1
     8     7     2    1
     9     9    10    1
    10     9     3    1
    11     9    12    1
    12     2     3   ar
    13     2     1   ar
    14    45    43    1
    15    31    26    1
    16    31    34    1
    17    31    32    1
    18     3     4   ar
    19    25    26   ar
    20    25    24   ar
    21     1     6    1
    22     1     5   ar
    23    26    27   ar
    24     4     5   ar
    25     4    13    1
    26    17    13   ar
    27    17    16   ar
    28    36    35   ar
    29    36    37   ar
    30    13    14   ar
    31    24    16    1
    32    24    28   ar
    33    44    43    1
    34    16    15   ar
    35    22    20    1
    36    43    37    1
    37    43    46    1
    38    27    28   ar
    39    27    35    1
    40    14    15   ar
    41    14    18    1
    42    19    18    1
    43    15    20    1
    44    35    39   ar
    45    37    38   ar
    46    20    23    1
    47    20    21    1
    48    39    38   ar
    49    38    40    1
