@<TRIPOS>MOLECULE
mol_data/opt/m06hf/geoms/mol2/12fi12fi-.out
 24 25 0 0 0
SMALL
GASTEIGER

@<TRIPOS>ATOM
      1 C           0.1172    1.8599   -0.0856 C.ar    1  LIG1        0.1343
      2 C           1.4661    1.7895   -0.0545 C.ar    1  LIG1        0.1581
      3 C           1.9791    3.1403   -0.0113 C.ar    1  LIG1        0.0399
      4 C           0.8708    3.9254   -0.0202 C.ar    1  LIG1        0.1798
      5 O          -0.2566    3.1731   -0.0647 O.2     1  LIG1       -0.4557
      6 H          -0.6577    1.1184   -0.1213 H       1  LIG1        0.1068
      7 O           2.2023    0.6479   -0.0626 O.3     1  LIG1       -0.5034
      8 H           3.1397    0.8649   -0.0352 H       1  LIG1        0.2923
      9 C           3.4317    3.5387    0.0330 C.3     1  LIG1       -0.0325
     10 H           3.5148    4.6229    0.0593 H       1  LIG1        0.0280
     11 H           3.9571    3.1712   -0.8516 H       1  LIG1        0.0280
     12 H           3.9138    3.1314    0.9248 H       1  LIG1        0.0280
     13 C           0.6367    5.3548    0.0067 C.ar    1  LIG1        0.2114
     14 C          -0.5327    6.0504   -0.0058 C.ar    1  LIG1        0.1687
     15 C          -0.1918    7.4484    0.0343 C.ar    1  LIG1        0.0295
     16 C           1.1622    7.4707    0.0678 C.ar    1  LIG1        0.0993
     17 O           1.6804    6.2216    0.0518 O.2     1  LIG1       -0.4557
     18 H           1.8702    8.2802    0.1035 H       1  LIG1        0.1033
     19 O          -1.8034    5.5934   -0.0471 O.3     1  LIG1       -0.5030
     20 H          -1.7931    4.6273   -0.0689 H       1  LIG1        0.2923
     21 C          -1.1759    8.5865    0.0362 C.3     1  LIG1       -0.0332
     22 H          -1.8334    8.5081    0.9024 H       1  LIG1        0.0280
     23 H          -1.7903    8.5484   -0.8636 H       1  LIG1        0.0280
     24 H          -0.6521    9.5409    0.0708 H       1  LIG1        0.0280
@<TRIPOS>BOND
     1    23    21    1
     2    11     9    1
     3     6     1    1
     4     1     5   ar
     5     1     2   ar
     6    20    19    1
     7     5     4   ar
     8     7     2    1
     9     7     8    1
    10     2     3   ar
    11    19    14    1
    12     4     3   ar
    13     4    13    1
    14     3     9    1
    15    14    13   ar
    16    14    15   ar
    17    13    17   ar
    18     9    10    1
    19     9    12    1
    20    15    21    1
    21    15    16   ar
    22    21    24    1
    23    21    22    1
    24    17    16   ar
    25    16    18    1
