@<TRIPOS>MOLECULE
mol_data/opt/m06hf/geoms/mol2/12fi.out
 13 13 0 0 0
SMALL
GASTEIGER

@<TRIPOS>ATOM
      1 C           0.1025    1.8523   -0.0191 C.ar    1  LIG1        0.1332
      2 C           1.4553    1.8539   -0.0554 C.ar    1  LIG1        0.1573
      3 C           1.8809    3.2317    0.0218 C.ar    1  LIG1        0.0287
      4 C           0.7280    3.9394    0.0983 C.ar    1  LIG1        0.0982
      5 O          -0.3443    3.1291    0.0751 O.2     1  LIG1       -0.4670
      6 H          -0.6280    1.0660   -0.0500 H       1  LIG1        0.1067
      7 H           0.5338    4.9959    0.1715 H       1  LIG1        0.1033
      8 O           2.2492    0.7516   -0.1477 O.3     1  LIG1       -0.5034
      9 H           3.1741    1.0167   -0.1548 H       1  LIG1        0.2923
     10 C           3.3012    3.7352    0.0158 C.3     1  LIG1       -0.0332
     11 H           3.3114    4.8223    0.0854 H       1  LIG1        0.0280
     12 H           3.8111    3.4487   -0.9063 H       1  LIG1        0.0280
     13 H           3.8589    3.3350    0.8651 H       1  LIG1        0.0280
@<TRIPOS>BOND
     1    12    10    1
     2     9     8    1
     3     8     2    1
     4     2     1   ar
     5     2     3   ar
     6     6     1    1
     7     1     5   ar
     8    10     3    1
     9    10    11    1
    10    10    13    1
    11     3     4   ar
    12     5     4   ar
    13     4     7    1
