@<TRIPOS>MOLECULE
mol_data/opt/m06hf/geoms/mol2/12fi12fi-12fi12fi.out
 46 49 0 0 0
SMALL
GASTEIGER

@<TRIPOS>ATOM
      1 C           0.1284    1.6944   -0.2057 C.ar    1  LIG1        0.1343
      2 C           1.4789    1.6599   -0.1814 C.ar    1  LIG1        0.1581
      3 C           1.9584    3.0218   -0.1218 C.ar    1  LIG1        0.0399
      4 C           0.8280    3.7765   -0.1156 C.ar    1  LIG1        0.1799
      5 O          -0.2806    2.9972   -0.1641 O.2     1  LIG1       -0.4557
      6 H          -0.6267    0.9327   -0.2481 H       1  LIG1        0.1068
      7 O           2.2453    0.5376   -0.2059 O.3     1  LIG1       -0.5034
      8 H           3.1755    0.7844   -0.2130 H       1  LIG1        0.2923
      9 C           3.4012    3.4581   -0.0789 C.3     1  LIG1       -0.0325
     10 H           3.4659    4.5420    0.0060 H       1  LIG1        0.0280
     11 H           3.9192    3.1479   -0.9899 H       1  LIG1        0.0280
     12 H           3.9055    3.0111    0.7816 H       1  LIG1        0.0280
     13 C           0.5685    5.1970   -0.0641 C.ar    1  LIG1        0.2124
     14 C          -0.6054    5.8882   -0.0601 C.ar    1  LIG1        0.1694
     15 C          -0.2799    7.2848    0.0156 C.ar    1  LIG1        0.0407
     16 C           1.0841    7.3133    0.0493 C.ar    1  LIG1        0.1809
     17 O           1.6056    6.0673    0.0019 O.2     1  LIG1       -0.4444
     18 O          -1.8712    5.4172   -0.1110 O.3     1  LIG1       -0.5029
     19 H          -1.8468    4.4514   -0.1466 H       1  LIG1        0.2923
     20 C          -1.2862    8.4047    0.0487 C.3     1  LIG1       -0.0325
     21 H          -2.0199    8.2053    0.8303 H       1  LIG1        0.0280
     22 H          -1.8120    8.4558   -0.9057 H       1  LIG1        0.0280
     23 H          -0.7935    9.3546    0.2415 H       1  LIG1        0.0280
     24 C           2.0490    8.3894    0.1233 C.ar    1  LIG1        0.2125
     25 C           3.4092    8.4013    0.2060 C.ar    1  LIG1        0.1694
     26 C           3.8204    9.7771    0.2864 C.ar    1  LIG1        0.0407
     27 C           2.6600   10.4876    0.2222 C.ar    1  LIG1        0.1809
     28 O           1.5934    9.6663    0.1270 O.2     1  LIG1       -0.4444
     29 O           4.2121    7.3071    0.2380 O.3     1  LIG1       -0.5029
     30 H           5.1328    7.5835    0.1865 H       1  LIG1        0.2923
     31 C           5.2309   10.2787    0.4517 C.3     1  LIG1       -0.0325
     32 H           5.2170   11.3123    0.7924 H       1  LIG1        0.0280
     33 H           5.7725   10.2442   -0.4951 H       1  LIG1        0.0280
     34 H           5.7586    9.6726    1.1921 H       1  LIG1        0.0280
     35 C           2.3938   11.9154    0.2156 C.ar    1  LIG1        0.2114
     36 C           3.0991   12.9786   -0.2553 C.ar    1  LIG1        0.1687
     37 C           2.3236   14.1611    0.0177 C.ar    1  LIG1        0.0295
     38 C           1.2020   13.6985    0.6228 C.ar    1  LIG1        0.0993
     39 O           1.2329   12.3605    0.7566 O.2     1  LIG1       -0.4557
     40 H           0.3294   14.1997    1.0051 H       1  LIG1        0.1033
     41 O           4.3234   12.9197   -0.8502 O.3     1  LIG1       -0.5030
     42 H           4.4028   13.6276   -1.4992 H       1  LIG1        0.2923
     43 C           2.7086   15.5788   -0.3160 C.3     1  LIG1       -0.0332
     44 H           1.9553   16.2683    0.0624 H       1  LIG1        0.0280
     45 H           2.7851   15.7209   -1.3965 H       1  LIG1        0.0280
     46 H           3.6686   15.8280    0.1381 H       1  LIG1        0.0280
@<TRIPOS>BOND
     1    42    41    1
     2    45    43    1
     3    11     9    1
     4    22    20    1
     5    41    36    1
     6    33    31    1
     7    43    37    1
     8    43    44    1
     9    43    46    1
    10    36    37   ar
    11    36    35   ar
    12     6     1    1
    13     8     7    1
    14     7     2    1
    15     1     2   ar
    16     1     5   ar
    17     2     3   ar
    18     5     4   ar
    19    19    18    1
    20     3     4   ar
    21     3     9    1
    22     4    13    1
    23    18    14    1
    24     9    10    1
    25     9    12    1
    26    13    14   ar
    27    13    17   ar
    28    14    15   ar
    29    17    16   ar
    30    15    20    1
    31    15    16   ar
    32    37    38   ar
    33    20    23    1
    34    20    21    1
    35    16    24    1
    36    24    28   ar
    37    24    25   ar
    38    28    27   ar
    39    30    29    1
    40    25    29    1
    41    25    26   ar
    42    35    27    1
    43    35    39   ar
    44    27    26   ar
    45    26    31    1
    46    31    32    1
    47    31    34    1
    48    38    39   ar
    49    38    40    1
