@<TRIPOS>MOLECULE
mol_data/opt/m06hf/geoms/mol2/12fi12fi12fi-12fi-.out
 46 49 0 0 0
SMALL
GASTEIGER

@<TRIPOS>ATOM
      1 C           0.2569    1.6881    0.5127 C.ar    1  LIG1        0.1343
      2 C           1.4534    1.6703   -0.1203 C.ar    1  LIG1        0.1581
      3 C           1.8159    3.0371   -0.4004 C.ar    1  LIG1        0.0399
      4 C           0.7925    3.7688    0.1180 C.ar    1  LIG1        0.1799
      5 O          -0.1542    2.9713    0.6601 O.2     1  LIG1       -0.4557
      6 H          -0.3873    0.9111    0.8792 H       1  LIG1        0.1068
      7 O           2.1504    0.5572   -0.4863 O.3     1  LIG1       -0.5034
      8 H           3.0944    0.7428   -0.4418 H       1  LIG1        0.2923
      9 C           3.0381    3.5029   -1.1463 C.3     1  LIG1       -0.0325
     10 H           2.8676    4.4970   -1.5558 H       1  LIG1        0.0280
     11 H           3.2504    2.8107   -1.9632 H       1  LIG1        0.0280
     12 H           3.9056    3.5575   -0.4860 H       1  LIG1        0.0280
     13 C           0.5652    5.1997    0.1894 C.ar    1  LIG1        0.2124
     14 C           1.3914    6.2745    0.2788 C.ar    1  LIG1        0.1694
     15 C           0.5756    7.4623    0.3162 C.ar    1  LIG1        0.0407
     16 C          -0.7012    6.9972    0.2602 C.ar    1  LIG1        0.1809
     17 O          -0.7241    5.6454    0.1734 O.2     1  LIG1       -0.4444
     18 O           2.7486    6.2230    0.3157 O.3     1  LIG1       -0.5029
     19 H           3.0944    7.0488    0.6708 H       1  LIG1        0.2923
     20 C           1.0706    8.8820    0.4179 C.3     1  LIG1       -0.0325
     21 H           0.2291    9.5701    0.3722 H       1  LIG1        0.0280
     22 H           1.7535    9.1036   -0.4046 H       1  LIG1        0.0280
     23 H           1.5938    9.0402    1.3641 H       1  LIG1        0.0280
     24 C          -2.0133    7.6023    0.2739 C.ar    1  LIG1        0.2125
     25 C          -3.2403    7.0082    0.2951 C.ar    1  LIG1        0.1694
     26 C          -4.2139    8.0637    0.3368 C.ar    1  LIG1        0.0407
     27 C          -3.4818    9.2152    0.3214 C.ar    1  LIG1        0.1809
     28 O          -2.1541    8.9513    0.2808 O.2     1  LIG1       -0.4444
     29 O          -3.5614    5.6987    0.3064 O.3     1  LIG1       -0.5029
     30 H          -2.7548    5.1640    0.2961 H       1  LIG1        0.2923
     31 C          -5.7038    7.8770    0.4540 C.3     1  LIG1       -0.0325
     32 H          -5.9111    7.1680    1.2555 H       1  LIG1        0.0280
     33 H          -6.1178    7.4666   -0.4691 H       1  LIG1        0.0280
     34 H          -6.1870    8.8278    0.6774 H       1  LIG1        0.0280
     35 C          -3.9130   10.6005    0.2671 C.ar    1  LIG1        0.2114
     36 C          -4.9073   11.1731   -0.4639 C.ar    1  LIG1        0.1687
     37 C          -4.9220   12.5743   -0.1430 C.ar    1  LIG1        0.0295
     38 C          -3.9147   12.7239    0.7519 C.ar    1  LIG1        0.0993
     39 O          -3.2967   11.5548    1.0114 O.2     1  LIG1       -0.4557
     40 H          -3.5356   13.5888    1.2686 H       1  LIG1        0.1033
     41 O          -5.7460   10.5998   -1.3602 O.3     1  LIG1       -0.5030
     42 H          -5.4400    9.7057   -1.5595 H       1  LIG1        0.2923
     43 C          -5.8544   13.6037   -0.7223 C.3     1  LIG1       -0.0332
     44 H          -6.8875   13.3564   -0.4779 H       1  LIG1        0.0280
     45 H          -5.7554   13.6257   -1.8079 H       1  LIG1        0.0280
     46 H          -5.6205   14.5899   -0.3234 H       1  LIG1        0.0280
@<TRIPOS>BOND
     1    11     9    1
     2    45    43    1
     3    42    41    1
     4    10     9    1
     5    41    36    1
     6     9    12    1
     7     9     3    1
     8    43    44    1
     9    43    46    1
    10    43    37    1
    11     7     8    1
    12     7     2    1
    13    33    31    1
    14    36    37   ar
    15    36    35   ar
    16    22    20    1
    17     3     2   ar
    18     3     4   ar
    19    37    38   ar
    20     2     1   ar
    21     4    13    1
    22     4     5   ar
    23    17    13   ar
    24    17    16   ar
    25    13    14   ar
    26    16    24    1
    27    16    15   ar
    28    35    27    1
    29    35    39   ar
    30    24    28   ar
    31    24    25   ar
    32    14    18    1
    33    14    15   ar
    34    28    27   ar
    35    25    29    1
    36    25    26   ar
    37    30    29    1
    38    18    19    1
    39    15    20    1
    40    27    26   ar
    41    26    31    1
    42    21    20    1
    43    20    23    1
    44    31    34    1
    45    31    32    1
    46     1     5   ar
    47     1     6    1
    48    38    39   ar
    49    38    40    1
