@<TRIPOS>MOLECULE
mol_data/opt/m06hf/geoms/mol2/12fi12fi-12fi12fi-.out
 46 49 0 0 0
SMALL
GASTEIGER

@<TRIPOS>ATOM
      1 C          -0.0360    1.7978   -0.0843 C.ar    1  LIG1        0.1343
      2 C           1.3079    1.6846   -0.1616 C.ar    1  LIG1        0.1581
      3 C           1.8691    3.0168   -0.1365 C.ar    1  LIG1        0.0399
      4 C           0.7885    3.8355   -0.0462 C.ar    1  LIG1        0.1799
      5 O          -0.3639    3.1216   -0.0111 O.2     1  LIG1       -0.4557
      6 H          -0.8361    1.0826   -0.0687 H       1  LIG1        0.1068
      7 O           2.0027    0.5195   -0.2374 O.3     1  LIG1       -0.5034
      8 H           2.9334    0.7080   -0.3951 H       1  LIG1        0.2923
      9 C           3.3342    3.3676   -0.1955 C.3     1  LIG1       -0.0325
     10 H           3.4689    4.4428   -0.0914 H       1  LIG1        0.0280
     11 H           3.7647    3.0541   -1.1497 H       1  LIG1        0.0280
     12 H           3.8731    2.8690    0.6139 H       1  LIG1        0.0280
     13 C           0.6105    5.2685    0.0201 C.ar    1  LIG1        0.2124
     14 C          -0.5258    6.0161    0.1054 C.ar    1  LIG1        0.1694
     15 C          -0.1279    7.3936    0.1573 C.ar    1  LIG1        0.0407
     16 C           1.2349    7.3557    0.0915 C.ar    1  LIG1        0.1809
     17 O           1.6911    6.0881    0.0090 O.2     1  LIG1       -0.4444
     18 O          -1.8121    5.6045    0.1475 O.3     1  LIG1       -0.5029
     19 H          -1.8346    4.6382    0.1213 H       1  LIG1        0.2923
     20 C          -1.0622    8.5705    0.2697 C.3     1  LIG1       -0.0325
     21 H          -2.0424    8.2100    0.5781 H       1  LIG1        0.0280
     22 H          -1.1699    9.0735   -0.6936 H       1  LIG1        0.0280
     23 H          -0.6975    9.2815    1.0118 H       1  LIG1        0.0280
     24 C           2.2344    8.3980    0.0969 C.ar    1  LIG1        0.2125
     25 C           3.5935    8.3892    0.1445 C.ar    1  LIG1        0.1694
     26 C           4.0427    9.7584    0.1297 C.ar    1  LIG1        0.0407
     27 C           2.9010   10.4962    0.0772 C.ar    1  LIG1        0.1809
     28 O           1.8064    9.6941    0.0559 O.2     1  LIG1       -0.4444
     29 O           4.3734    7.2824    0.1951 O.3     1  LIG1       -0.5029
     30 H           5.3004    7.5404    0.2280 H       1  LIG1        0.2923
     31 C           5.4758   10.2224    0.1632 C.3     1  LIG1       -0.0325
     32 H           5.5121   11.3077    0.0966 H       1  LIG1        0.0280
     33 H           6.0319    9.8034   -0.6788 H       1  LIG1        0.0280
     34 H           5.9568    9.9146    1.0942 H       1  LIG1        0.0280
     35 C           2.5973   11.9087    0.0261 C.ar    1  LIG1        0.2114
     36 C           1.3958   12.5366   -0.1085 C.ar    1  LIG1        0.1687
     37 C           1.6595   13.9511   -0.1063 C.ar    1  LIG1        0.0295
     38 C           3.0039   14.0500    0.0289 C.ar    1  LIG1        0.0993
     39 O           3.5876   12.8333    0.1116 O.2     1  LIG1       -0.4557
     40 H           3.6616   14.9001    0.0821 H       1  LIG1        0.1033
     41 O           0.1595   12.0076   -0.2310 O.3     1  LIG1       -0.5030
     42 H           0.2209   11.0431   -0.2425 H       1  LIG1        0.2923
     43 C           0.6231   15.0346   -0.2322 C.3     1  LIG1       -0.0332
     44 H          -0.0951   14.9591    0.5843 H       1  LIG1        0.0280
     45 H           0.0843   14.9259   -1.1734 H       1  LIG1        0.0280
     46 H           1.0966   16.0150   -0.2020 H       1  LIG1        0.0280
@<TRIPOS>BOND
     1    45    43    1
     2    11     9    1
     3    22    20    1
     4    33    31    1
     5     8     7    1
     6    42    41    1
     7     7     2    1
     8    43    46    1
     9    43    37    1
    10    43    44    1
    11    41    36    1
    12     9     3    1
    13     9    10    1
    14     9    12    1
    15     2     3   ar
    16     2     1   ar
    17     3     4   ar
    18    36    37   ar
    19    36    35   ar
    20    37    38   ar
    21     1     6    1
    22     1     5   ar
    23     4     5   ar
    24     4    13    1
    25    17    13   ar
    26    17    16   ar
    27    13    14   ar
    28    35    27    1
    29    35    39   ar
    30    38    40    1
    31    38    39   ar
    32    28    27   ar
    33    28    24   ar
    34    27    26   ar
    35    16    24    1
    36    16    15   ar
    37    32    31    1
    38    24    25   ar
    39    14    18    1
    40    14    15   ar
    41    19    18    1
    42    26    25   ar
    43    26    31    1
    44    25    29    1
    45    15    20    1
    46    31    34    1
    47    29    30    1
    48    20    21    1
    49    20    23    1
