@<TRIPOS>MOLECULE
mol_data/opt/m06hf/geoms/mol2/12fi12fi12fi12fi-.out
 46 49 0 0 0
SMALL
GASTEIGER

@<TRIPOS>ATOM
      1 C           0.5129    1.6020   -0.1740 C.ar    1  LIG1        0.1343
      2 C           1.7911    1.7684    0.2404 C.ar    1  LIG1        0.1581
      3 C           2.0308    3.1855    0.3431 C.ar    1  LIG1        0.0399
      4 C           0.8564    3.7539   -0.0440 C.ar    1  LIG1        0.1799
      5 O          -0.0643    2.8138   -0.3486 O.2     1  LIG1       -0.4557
      6 H          -0.0883    0.7312   -0.3592 H       1  LIG1        0.1068
      7 O           2.6673    0.7748    0.5722 O.3     1  LIG1       -0.5034
      8 H           3.5416    0.9980    0.2351 H       1  LIG1        0.2923
      9 C           3.2942    3.8449    0.8285 C.3     1  LIG1       -0.0325
     10 H           3.0679    4.8328    1.2274 H       1  LIG1        0.0280
     11 H           4.0121    3.9696    0.0161 H       1  LIG1        0.0280
     12 H           3.7403    3.2338    1.6150 H       1  LIG1        0.0280
     13 C           0.4721    5.1470   -0.1900 C.ar    1  LIG1        0.2124
     14 C           1.1761    6.2538   -0.5489 C.ar    1  LIG1        0.1694
     15 C           0.2720    7.3714   -0.5345 C.ar    1  LIG1        0.0407
     16 C          -0.9237    6.8334   -0.1601 C.ar    1  LIG1        0.1809
     17 O          -0.8131    5.5046    0.0571 O.2     1  LIG1       -0.4444
     18 O           2.5006    6.2838   -0.8624 O.3     1  LIG1       -0.5029
     19 H           2.6718    7.0151   -1.4660 H       1  LIG1        0.2923
     20 C           0.6237    8.7836   -0.9224 C.3     1  LIG1       -0.0325
     21 H          -0.2203    9.4463   -0.7456 H       1  LIG1        0.0280
     22 H           0.8956    8.8314   -1.9801 H       1  LIG1        0.0280
     23 H           1.4695    9.1334   -0.3272 H       1  LIG1        0.0280
     24 C          -2.2485    7.3913    0.0454 C.ar    1  LIG1        0.2125
     25 C          -2.7367    8.6128    0.3904 C.ar    1  LIG1        0.1694
     26 C          -4.1726    8.5170    0.4563 C.ar    1  LIG1        0.0407
     27 C          -4.4409    7.2177    0.1533 C.ar    1  LIG1        0.1809
     28 O          -3.3015    6.5365   -0.1025 O.2     1  LIG1       -0.4444
     29 O          -1.9920    9.7231    0.6298 O.3     1  LIG1       -0.5029
     30 H          -2.5457   10.4117    1.0127 H       1  LIG1        0.2923
     31 C          -5.1275    9.6283    0.8080 C.3     1  LIG1       -0.0325
     32 H          -6.1486    9.2543    0.7774 H       1  LIG1        0.0280
     33 H          -5.0358   10.4523    0.0971 H       1  LIG1        0.0280
     34 H          -4.9287   10.0054    1.8143 H       1  LIG1        0.0280
     35 C          -5.6356    6.4106    0.0516 C.ar    1  LIG1        0.2114
     36 C          -5.7616    5.0768   -0.1975 C.ar    1  LIG1        0.1687
     37 C          -7.1714    4.7841   -0.1908 C.ar    1  LIG1        0.0295
     38 C          -7.7700    5.9718    0.0639 C.ar    1  LIG1        0.0993
     39 O          -6.8649    6.9653    0.2128 O.2     1  LIG1       -0.4557
     40 H          -8.8051    6.2496    0.1658 H       1  LIG1        0.1033
     41 O          -4.8147    4.1432   -0.4163 O.3     1  LIG1       -0.5030
     42 H          -3.9340    4.5421   -0.3761 H       1  LIG1        0.2923
     43 C          -7.7819    3.4290   -0.4247 C.3     1  LIG1       -0.0332
     44 H          -7.4124    2.7217    0.3179 H       1  LIG1        0.0280
     45 H          -7.5046    3.0622   -1.4130 H       1  LIG1        0.0280
     46 H          -8.8675    3.4858   -0.3555 H       1  LIG1        0.0280
@<TRIPOS>BOND
     1    22    20    1
     2    19    18    1
     3    45    43    1
     4    20    21    1
     5    20    15    1
     6    20    23    1
     7    18    14    1
     8    14    15   ar
     9    14    13   ar
    10    15    16   ar
    11    43    46    1
    12    43    37    1
    13    43    44    1
    14    41    42    1
    15    41    36    1
    16     6     1    1
    17     5     1   ar
    18     5     4   ar
    19    36    37   ar
    20    36    35   ar
    21    37    38   ar
    22    13     4    1
    23    13    17   ar
    24     1     2   ar
    25    16    24    1
    26    16    17   ar
    27    28    24   ar
    28    28    27   ar
    29     4     3   ar
    30    11     9    1
    31    24    25   ar
    32    35    27    1
    33    35    39   ar
    34    38    40    1
    35    38    39   ar
    36    33    31    1
    37    27    26   ar
    38     8     7    1
    39     2     3   ar
    40     2     7    1
    41     3     9    1
    42    25    26   ar
    43    25    29    1
    44    26    31    1
    45    29    30    1
    46    32    31    1
    47    31    34    1
    48     9    10    1
    49     9    12    1
