@<TRIPOS>MOLECULE
mol_data/opt/m06hf/geoms/mol2/12fi12fi.out
 24 25 0 0 0
SMALL
GASTEIGER

@<TRIPOS>ATOM
      1 C           2.6966   -1.2917   -0.5704 C.ar    1  LIG1        0.1343
      2 C           2.8966   -0.0161   -0.1623 C.ar    1  LIG1        0.1581
      3 C           1.6097    0.5213    0.2011 C.ar    1  LIG1        0.0399
      4 C           0.7333   -0.4960   -0.0407 C.ar    1  LIG1        0.1798
      5 O           1.3778   -1.5879   -0.5011 O.2     1  LIG1       -0.4557
      6 H           3.3660   -2.0646   -0.8999 H       1  LIG1        0.1068
      7 O           4.1026    0.6096   -0.0460 O.3     1  LIG1       -0.5034
      8 H           4.0044    1.5429   -0.2631 H       1  LIG1        0.2923
      9 C           1.3397    1.8733    0.8106 C.3     1  LIG1       -0.0325
     10 H           0.3466    1.8845    1.2592 H       1  LIG1        0.0280
     11 H           1.3927    2.6756    0.0697 H       1  LIG1        0.0280
     12 H           2.0810    2.0741    1.5857 H       1  LIG1        0.0280
     13 C          -0.7159   -0.5164    0.0725 C.ar    1  LIG1        0.2114
     14 C          -1.6211    0.4253   -0.3073 C.ar    1  LIG1        0.1687
     15 C          -2.9243   -0.0614    0.0522 C.ar    1  LIG1        0.0295
     16 C          -2.6849   -1.2736    0.6114 C.ar    1  LIG1        0.0993
     17 O          -1.3697   -1.5655    0.6324 O.2     1  LIG1       -0.4557
     18 H          -3.3457   -2.0175    1.0224 H       1  LIG1        0.1033
     19 O          -1.3982    1.6113   -0.9283 O.3     1  LIG1       -0.5030
     20 H          -0.4997    1.6134   -1.2829 H       1  LIG1        0.2923
     21 C          -4.2307    0.6465   -0.1862 C.3     1  LIG1       -0.0332
     22 H          -5.0583    0.0465    0.1901 H       1  LIG1        0.0280
     23 H          -4.3727    0.8198   -1.2531 H       1  LIG1        0.0280
     24 H          -4.2331    1.6122    0.3195 H       1  LIG1        0.0280
@<TRIPOS>BOND
     1    20    19    1
     2    23    21    1
     3    19    14    1
     4     6     1    1
     5     1     5   ar
     6     1     2   ar
     7     5     4   ar
     8    14    15   ar
     9    14    13   ar
    10     8     7    1
    11    21    15    1
    12    21    22    1
    13    21    24    1
    14     2     7    1
    15     2     3   ar
    16     4    13    1
    17     4     3   ar
    18    15    16   ar
    19    11     9    1
    20    13    17   ar
    21     3     9    1
    22    16    17   ar
    23    16    18    1
    24     9    10    1
    25     9    12    1
