@<TRIPOS>MOLECULE
mol_data/opt/m06hf/geoms/mol2/12fi12fi12fi.out
 35 37 0 0 0
SMALL
GASTEIGER

@<TRIPOS>ATOM
      1 C           0.5718    1.5881    0.5168 C.ar    1  LIG1        0.1343
      2 C           1.7709    1.7541   -0.0898 C.ar    1  LIG1        0.1581
      3 C           1.9421    3.1650   -0.3266 C.ar    1  LIG1        0.0399
      4 C           0.8165    3.7318    0.1869 C.ar    1  LIG1        0.1799
      5 O          -0.0162    2.7944    0.6876 O.2     1  LIG1       -0.4557
      6 H           0.0347    0.7194    0.8491 H       1  LIG1        0.1068
      7 O           2.6248    0.7587   -0.4722 O.3     1  LIG1       -0.5034
      8 H           3.5279    1.0215   -0.2647 H       1  LIG1        0.2923
      9 C           3.0978    3.8201   -1.0354 C.3     1  LIG1       -0.0325
     10 H           2.7640    4.7393   -1.5149 H       1  LIG1        0.0280
     11 H           3.4861    3.1406   -1.7959 H       1  LIG1        0.0280
     12 H           3.8949    4.0778   -0.3365 H       1  LIG1        0.0280
     13 C           0.4122    5.1231    0.2869 C.ar    1  LIG1        0.2124
     14 C           1.1314    6.2638    0.4735 C.ar    1  LIG1        0.1694
     15 C           0.2024    7.3595    0.5045 C.ar    1  LIG1        0.0407
     16 C          -1.0155    6.7750    0.3248 C.ar    1  LIG1        0.1809
     17 O          -0.9029    5.4395    0.1868 O.2     1  LIG1       -0.4444
     18 O           2.4817    6.3277    0.6220 O.3     1  LIG1       -0.5029
     19 H           2.7295    7.2013    0.9419 H       1  LIG1        0.2923
     20 C           0.5296    8.8106    0.7388 C.3     1  LIG1       -0.0325
     21 H          -0.3789    9.3583    0.9820 H       1  LIG1        0.0280
     22 H           0.9678    9.2599   -0.1535 H       1  LIG1        0.0280
     23 H           1.2299    8.9132    1.5721 H       1  LIG1        0.0280
     24 C          -2.3469    7.3520    0.2323 C.ar    1  LIG1        0.2114
     25 C          -2.7950    8.5231   -0.2937 C.ar    1  LIG1        0.1687
     26 C          -4.2207    8.5649   -0.0949 C.ar    1  LIG1        0.0295
     27 C          -4.5088    7.3952    0.5271 C.ar    1  LIG1        0.0993
     28 O          -3.3979    6.6650    0.7381 O.2     1  LIG1       -0.4557
     29 H          -5.4342    6.9700    0.8751 H       1  LIG1        0.1033
     30 O          -2.0219    9.4918   -0.8663 O.3     1  LIG1       -0.5030
     31 H          -2.4316    9.7866   -1.6877 H       1  LIG1        0.2923
     32 C          -5.1431    9.6831   -0.5032 C.3     1  LIG1       -0.0332
     33 H          -6.1524    9.4868   -0.1444 H       1  LIG1        0.0280
     34 H          -5.1813    9.7824   -1.5904 H       1  LIG1        0.0280
     35 H          -4.7970   10.6271   -0.0806 H       1  LIG1        0.0280
@<TRIPOS>BOND
     1    11     9    1
     2    31    30    1
     3    34    32    1
     4    10     9    1
     5     9    12    1
     6     9     3    1
     7    30    25    1
     8    32    33    1
     9    32    26    1
    10    32    35    1
    11     7     8    1
    12     7     2    1
    13     3     2   ar
    14     3     4   ar
    15    25    26   ar
    16    25    24   ar
    17    22    20    1
    18    26    27   ar
    19     2     1   ar
    20    17    13   ar
    21    17    16   ar
    22     4    13    1
    23     4     5   ar
    24    24    16    1
    25    24    28   ar
    26    13    14   ar
    27    16    15   ar
    28    14    15   ar
    29    14    18    1
    30    15    20    1
    31     1     5   ar
    32     1     6    1
    33    27    28   ar
    34    27    29    1
    35    18    19    1
    36    20    21    1
    37    20    23    1
