@<TRIPOS>MOLECULE
mol_data/opt/m06hf/geoms/mol2/12fi12fi-12fi-12fi.out
 46 49 0 0 0
SMALL
GASTEIGER

@<TRIPOS>ATOM
      1 C          -0.5495    1.7608   -0.2459 C.ar    1  LIG1        0.1343
      2 C           0.7322    1.5304   -0.6039 C.ar    1  LIG1        0.1581
      3 C           1.4336    2.7944   -0.5820 C.ar    1  LIG1        0.0399
      4 C           0.4910    3.6970   -0.2064 C.ar    1  LIG1        0.1799
      5 O          -0.7066    3.0942    0.0019 O.2     1  LIG1       -0.4557
      6 H          -1.4065    1.1259   -0.1258 H       1  LIG1        0.1068
      7 O           1.2661    0.3190   -0.9098 O.3     1  LIG1       -0.5034
      8 H           2.1549    0.4377   -1.2599 H       1  LIG1        0.2923
      9 C           2.8912    3.0073   -0.9018 C.3     1  LIG1       -0.0325
     10 H           3.1623    4.0482   -0.7391 H       1  LIG1        0.0280
     11 H           3.0961    2.7542   -1.9450 H       1  LIG1        0.0280
     12 H           3.5131    2.3803   -0.2587 H       1  LIG1        0.0280
     13 C           0.4917    5.1252    0.0264 C.ar    1  LIG1        0.2124
     14 C          -0.4983    5.9377    0.4909 C.ar    1  LIG1        0.1694
     15 C           0.0504    7.2617    0.5783 C.ar    1  LIG1        0.0407
     16 C           1.3357    7.1350    0.1350 C.ar    1  LIG1        0.1809
     17 O           1.6113    5.8539   -0.2045 O.2     1  LIG1       -0.4444
     18 O          -1.7616    5.6252    0.8537 O.3     1  LIG1       -0.5029
     19 H          -1.9034    4.6783    0.7212 H       1  LIG1        0.2923
     20 C          -0.6567    8.4711    1.1309 C.3     1  LIG1       -0.0325
     21 H          -1.1488    8.1984    2.0643 H       1  LIG1        0.0280
     22 H          -1.4251    8.8264    0.4413 H       1  LIG1        0.0280
     23 H           0.0578    9.2722    1.3191 H       1  LIG1        0.0280
     24 C           2.3597    8.1404   -0.0713 C.ar    1  LIG1        0.2125
     25 C           2.2574    9.4004   -0.5773 C.ar    1  LIG1        0.1694
     26 C           3.5682    9.9801   -0.5702 C.ar    1  LIG1        0.0407
     27 C           4.3644    8.9950   -0.0604 C.ar    1  LIG1        0.1809
     28 O           3.6566    7.8882    0.2419 O.2     1  LIG1       -0.4444
     29 O           1.1600   10.0381   -1.0527 O.3     1  LIG1       -0.5029
     30 H           0.4482    9.3974   -1.1801 H       1  LIG1        0.2923
     31 C           3.9163   11.3606   -1.0605 C.3     1  LIG1       -0.0325
     32 H           3.7415   12.0979   -0.2757 H       1  LIG1        0.0280
     33 H           3.2808   11.6040   -1.9115 H       1  LIG1        0.0280
     34 H           4.9620   11.4046   -1.3568 H       1  LIG1        0.0280
     35 C           5.7897    8.9445    0.2003 C.ar    1  LIG1        0.2114
     36 C           6.6421    7.9272    0.5013 C.ar    1  LIG1        0.1687
     37 C           7.9545    8.5058    0.6483 C.ar    1  LIG1        0.0295
     38 C           7.7764    9.8293    0.4196 C.ar    1  LIG1        0.0993
     39 O           6.4877   10.1093    0.1513 O.2     1  LIG1       -0.4557
     40 H           8.4598   10.6611    0.4181 H       1  LIG1        0.1033
     41 O           6.3090    6.6178    0.6111 O.3     1  LIG1       -0.5030
     42 H           7.0542    6.1223    0.9653 H       1  LIG1        0.2923
     43 C           9.2231    7.7644    0.9808 C.3     1  LIG1       -0.0332
     44 H          10.0659    8.4543    0.9954 H       1  LIG1        0.0280
     45 H           9.4251    6.9934    0.2347 H       1  LIG1        0.0280
     46 H           9.1521    7.2937    1.9637 H       1  LIG1        0.0280
@<TRIPOS>BOND
     1    11     9    1
     2    33    31    1
     3    34    31    1
     4     8     7    1
     5    30    29    1
     6    31    26    1
     7    31    32    1
     8    29    25    1
     9     7     2    1
    10     9    10    1
    11     9     3    1
    12     9    12    1
    13     2     3   ar
    14     2     1   ar
    15     3     4   ar
    16    25    26   ar
    17    25    24   ar
    18    26    27   ar
    19     1     6    1
    20     1     5   ar
    21     4     5   ar
    22     4    13    1
    23    17    13   ar
    24    17    16   ar
    25    24    16    1
    26    24    28   ar
    27    27    35    1
    28    27    28   ar
    29    13    14   ar
    30    16    15   ar
    31    39    35   ar
    32    39    38   ar
    33    35    36   ar
    34    45    43    1
    35    40    38    1
    36    38    37   ar
    37    22    20    1
    38    14    15   ar
    39    14    18    1
    40    36    41    1
    41    36    37   ar
    42    15    20    1
    43    41    42    1
    44    37    43    1
    45    19    18    1
    46    43    44    1
    47    43    46    1
    48    20    23    1
    49    20    21    1
