@<TRIPOS>MOLECULE
mol_data/opt/m06hf/geoms/mol2/12fi12ii-12ae-12ai-.out
 45 48 0 0 0
SMALL
GASTEIGER

@<TRIPOS>ATOM
      1 C           1.0547    1.5944    0.6648 C.ar    1  LIG1        0.1343
      2 C           2.1720    1.7963   -0.0741 C.ar    1  LIG1        0.1581
      3 C           2.2263    3.2011   -0.3874 C.ar    1  LIG1        0.0398
      4 C           1.1242    3.7285    0.2154 C.ar    1  LIG1        0.1765
      5 O           0.4122    2.7715    0.8423 O.2     1  LIG1       -0.4558
      6 H           0.6153    0.7150    1.0971 H       1  LIG1        0.1068
      7 O           3.0425    0.8315   -0.4826 O.3     1  LIG1       -0.5034
      8 H           3.8878    1.2325   -0.7092 H       1  LIG1        0.2923
      9 C           3.2391    3.8879   -1.2652 C.3     1  LIG1       -0.0325
     10 H           4.2038    3.9921   -0.7629 H       1  LIG1        0.0280
     11 H           2.8777    4.8817   -1.5295 H       1  LIG1        0.0280
     12 H           3.3821    3.3144   -2.1832 H       1  LIG1        0.0280
     13 C           0.6335    5.1020    0.2748 C.ar    1  LIG1        0.1742
     14 C           1.2688    6.2755    0.5514 C.ar    1  LIG1        0.0020
     15 C           0.2616    7.3013    0.4365 C.ar    1  LIG1        0.0020
     16 C          -0.8859    6.6450    0.1037 C.ar    1  LIG1        0.1739
     17 O          -0.6715    5.3179    0.0021 O.2     1  LIG1       -0.4481
     18 C           2.7036    6.4634    0.9679 C.3     1  LIG1       -0.0357
     19 H           2.7517    7.0400    1.8928 H       1  LIG1        0.0279
     20 H           3.2673    6.9977    0.2004 H       1  LIG1        0.0279
     21 H           3.1681    5.4927    1.1399 H       1  LIG1        0.0279
     22 C           0.4422    8.7765    0.6791 C.3     1  LIG1       -0.0357
     23 H          -0.5080    9.2289    0.9642 H       1  LIG1        0.0279
     24 H           0.8161    9.2766   -0.2169 H       1  LIG1        0.0279
     25 H           1.1593    8.9375    1.4845 H       1  LIG1        0.0279
     26 C          -2.2317    7.1336   -0.1596 C.ar    1  LIG1        0.1722
     27 C          -2.6968    8.3224   -0.6276 C.ar    1  LIG1        0.0034
     28 C          -4.1304    8.2053   -0.6413 C.ar    1  LIG1        0.0741
     29 C          -4.4058    6.9413   -0.1893 C.ar    1  LIG1        0.1860
     30 O          -3.2647    6.3000    0.1034 O.2     1  LIG1       -0.4474
     31 H          -2.1178    9.1687   -0.9541 H       1  LIG1        0.0669
     32 C          -5.0812    9.1906   -1.0533 C.1     1  LIG1       -0.0657
     33 C          -5.8732   10.0255   -1.4009 C.1     1  LIG1       -0.1138
     34 H          -6.5702   10.7687   -1.7112 H       1  LIG1        0.1232
     35 C          -5.6571    6.2314    0.0101 C.ar    1  LIG1        0.1712
     36 C          -6.9558    6.5907   -0.1826 C.ar    1  LIG1       -0.0098
     37 C          -7.7423    5.4456    0.1945 C.ar    1  LIG1       -0.0120
     38 C          -6.8424    4.5046    0.5781 C.ar    1  LIG1        0.0956
     39 O          -5.5807    4.9675    0.4722 O.2     1  LIG1       -0.4595
     40 H          -6.9526    3.4966    0.9386 H       1  LIG1        0.1032
     41 H          -7.3054    7.5423   -0.5452 H       1  LIG1        0.0659
     42 C          -9.2442    5.3221    0.1693 C.3     1  LIG1       -0.0367
     43 H          -9.5466    4.3303    0.5042 H       1  LIG1        0.0278
     44 H          -9.6212    5.4791   -0.8417 H       1  LIG1        0.0278
     45 H          -9.6973    6.0652    0.8264 H       1  LIG1        0.0278
@<TRIPOS>BOND
     1    12     9    1
     2    34    33    1
     3    11     9    1
     4    33    32    3
     5     9    10    1
     6     9     3    1
     7    32    28    1
     8    31    27    1
     9    44    42    1
    10     8     7    1
    11    28    27   ar
    12    28    29   ar
    13    27    26   ar
    14    41    36    1
    15     7     2    1
    16     3     2   ar
    17     3     4   ar
    18    24    22    1
    19    29    35    1
    20    29    30   ar
    21    36    35   ar
    22    36    37   ar
    23    26    30   ar
    24    26    16    1
    25     2     1   ar
    26    17    16   ar
    27    17    13   ar
    28    35    39   ar
    29    16    15   ar
    30    42    37    1
    31    42    43    1
    32    42    45    1
    33    37    38   ar
    34    20    18    1
    35     4    13    1
    36     4     5   ar
    37    13    14   ar
    38    15    14   ar
    39    15    22    1
    40    39    38   ar
    41    14    18    1
    42    38    40    1
    43     1     5   ar
    44     1     6    1
    45    22    23    1
    46    22    25    1
    47    18    21    1
    48    18    19    1
