@<TRIPOS>MOLECULE
mol_data/opt/m06hf/geoms/mol2/12fi12fi12fi12fi.out
 46 49 0 0 0
SMALL
GASTEIGER

@<TRIPOS>ATOM
      1 C           4.3801   -2.6033   -1.3230 C.ar    1  LIG1        0.1343
      2 C           5.3240   -2.2658   -0.4124 C.ar    1  LIG1        0.1581
      3 C           4.8591   -1.0872    0.2727 C.ar    1  LIG1        0.0399
      4 C           3.6625   -0.8072   -0.3133 C.ar    1  LIG1        0.1799
      5 O           3.3612   -1.7147   -1.2658 O.2     1  LIG1       -0.4557
      6 H           4.2999   -3.4122   -2.0251 H       1  LIG1        0.1068
      7 O           6.4717   -2.9572   -0.1513 O.3     1  LIG1       -0.5034
      8 H           7.1670   -2.3347    0.0864 H       1  LIG1        0.2923
      9 C           5.5433   -0.3858    1.4157 C.3     1  LIG1       -0.0325
     10 H           4.8083    0.1581    2.0074 H       1  LIG1        0.0280
     11 H           6.2798    0.3342    1.0552 H       1  LIG1        0.0280
     12 H           6.0379   -1.1235    2.0503 H       1  LIG1        0.0280
     13 C           2.7255    0.2802   -0.0886 C.ar    1  LIG1        0.2124
     14 C           2.9199    1.5814    0.2610 C.ar    1  LIG1        0.1694
     15 C           1.6268    2.1949    0.3851 C.ar    1  LIG1        0.0407
     16 C           0.7511    1.2009    0.0636 C.ar    1  LIG1        0.1809
     17 O           1.3967    0.0480   -0.2102 O.2     1  LIG1       -0.4444
     18 O           4.1281    2.1711    0.4935 O.3     1  LIG1       -0.5029
     19 H           4.1194    3.0652    0.1340 H       1  LIG1        0.2923
     20 C           1.3447    3.6098    0.8150 C.3     1  LIG1       -0.0325
     21 H           0.3452    3.6728    1.2428 H       1  LIG1        0.0280
     22 H           1.3882    4.2966   -0.0318 H       1  LIG1        0.0280
     23 H           2.0766    3.9125    1.5658 H       1  LIG1        0.0280
     24 C          -0.6968    1.2073   -0.0425 C.ar    1  LIG1        0.2125
     25 C          -1.5735    2.1804   -0.4155 C.ar    1  LIG1        0.1694
     26 C          -2.8981    1.6368   -0.3010 C.ar    1  LIG1        0.0407
     27 C          -2.6999    0.3519    0.1083 C.ar    1  LIG1        0.1809
     28 O          -1.3884    0.0876    0.2776 O.2     1  LIG1       -0.4444
     29 O          -1.2425    3.4503   -0.7858 O.3     1  LIG1       -0.5029
     30 H          -1.8234    3.7362   -1.4998 H       1  LIG1        0.2923
     31 C          -4.1895    2.3679   -0.5556 C.3     1  LIG1       -0.0325
     32 H          -4.9963    1.9013    0.0078 H       1  LIG1        0.0280
     33 H          -4.4592    2.3353   -1.6124 H       1  LIG1        0.0280
     34 H          -4.0863    3.4072   -0.2390 H       1  LIG1        0.0280
     35 C          -3.6419   -0.7259    0.3549 C.ar    1  LIG1        0.2114
     36 C          -4.8302   -1.0424   -0.2271 C.ar    1  LIG1        0.1687
     37 C          -5.3248   -2.2252    0.4276 C.ar    1  LIG1        0.0295
     38 C          -4.3732   -2.5252    1.3467 C.ar    1  LIG1        0.0993
     39 O          -3.3672   -1.6334    1.3224 O.2     1  LIG1       -0.4557
     40 H          -4.2928   -3.3209    2.0673 H       1  LIG1        0.1033
     41 O          -5.4366   -0.3435   -1.2280 O.3     1  LIG1       -0.5030
     42 H          -5.8842   -0.9561   -1.8224 H       1  LIG1        0.2923
     43 C          -6.6146   -2.9419    0.1248 C.3     1  LIG1       -0.0332
     44 H          -6.7607   -3.7611    0.8275 H       1  LIG1        0.0280
     45 H          -6.6035   -3.3596   -0.8845 H       1  LIG1        0.0280
     46 H          -7.4583   -2.2554    0.2092 H       1  LIG1        0.0280
@<TRIPOS>BOND
     1     6     1    1
     2    42    41    1
     3    33    31    1
     4    30    29    1
     5     1     5   ar
     6     1     2   ar
     7     5     4   ar
     8    41    36    1
     9    45    43    1
    10    29    25    1
    11    31    26    1
    12    31    34    1
    13    31    32    1
    14    25    26   ar
    15    25    24   ar
    16     2     7    1
    17     2     3   ar
    18     4    13    1
    19     4     3   ar
    20    26    27   ar
    21    36    35   ar
    22    36    37   ar
    23    17    13   ar
    24    17    16   ar
    25     7     8    1
    26    13    14   ar
    27    24    16    1
    28    24    28   ar
    29    22    20    1
    30    16    15   ar
    31    27    28   ar
    32    27    35    1
    33    43    46    1
    34    43    37    1
    35    43    44    1
    36    19    18    1
    37    14    15   ar
    38    14    18    1
    39     3     9    1
    40    35    39   ar
    41    15    20    1
    42    37    38   ar
    43    20    21    1
    44    20    23    1
    45    11     9    1
    46    39    38   ar
    47    38    40    1
    48     9    10    1
    49     9    12    1
