@<TRIPOS>MOLECULE
mol_data/opt/m06hf/geoms/mol2/12fl12fl12fl-12fl.out
 50 53 0 0 0
SMALL
GASTEIGER

@<TRIPOS>ATOM
      1 C          -0.1693    1.7084    0.9574 C.ar    1  LIG1        0.1379
      2 C           1.1525    1.4283    0.8923 C.ar    1  LIG1        0.1979
      3 C           1.8122    2.6523    0.5229 C.ar    1  LIG1        0.2109
      4 C           0.8306    3.5827    0.3814 C.ar    1  LIG1        0.2186
      5 O          -0.3691    3.0162    0.6385 O.2     1  LIG1       -0.4521
      6 H          -1.0337    1.1193    1.1988 H       1  LIG1        0.1069
      7 O           1.7874    0.2514    1.1185 O.3     1  LIG1       -0.5012
      8 H           2.7135    0.4483    1.3117 H       1  LIG1        0.2924
      9 O           3.1586    2.7758    0.4007 O.3     1  LIG1       -0.4883
     10 C           3.6396    2.4372   -0.9072 C.3     1  LIG1        0.0791
     11 H           4.7216    2.5302   -0.8626 H       1  LIG1        0.0660
     12 H           3.3552    1.4115   -1.1525 H       1  LIG1        0.0660
     13 H           3.2313    3.1343   -1.6370 H       1  LIG1        0.0660
     14 C           0.8404    4.9866    0.0283 C.ar    1  LIG1        0.2194
     15 C           1.7201    5.8001   -0.6070 C.ar    1  LIG1        0.2094
     16 C           1.1254    7.1100   -0.6554 C.ar    1  LIG1        0.2117
     17 C          -0.0867    7.0025   -0.0413 C.ar    1  LIG1        0.2197
     18 O          -0.2604    5.7174    0.3705 O.2     1  LIG1       -0.4407
     19 O           2.9198    5.5015   -1.1472 O.3     1  LIG1       -0.5007
     20 H           3.2778    6.3159   -1.5280 H       1  LIG1        0.2924
     21 O           1.7959    8.1211   -1.2524 O.3     1  LIG1       -0.4883
     22 C           1.0296    9.0136   -2.0694 C.3     1  LIG1        0.0791
     23 H           1.7527    9.5603   -2.6688 H       1  LIG1        0.0660
     24 H           0.3620    8.4368   -2.7120 H       1  LIG1        0.0660
     25 H           0.4561    9.6976   -1.4471 H       1  LIG1        0.0660
     26 C          -1.2135    7.8511    0.2674 C.ar    1  LIG1        0.2195
     27 C          -2.4382    7.4991    0.7545 C.ar    1  LIG1        0.2094
     28 C          -3.1716    8.7276    0.8684 C.ar    1  LIG1        0.2117
     29 C          -2.3411    9.7191    0.4418 C.ar    1  LIG1        0.2196
     30 O          -1.1466    9.1976    0.0967 O.2     1  LIG1       -0.4407
     31 O          -2.9411    6.2853    1.0556 O.3     1  LIG1       -0.5007
     32 H          -2.2484    5.6139    0.9663 H       1  LIG1        0.2924
     33 O          -4.4542    8.8915    1.3062 O.3     1  LIG1       -0.4883
     34 C          -5.4329    8.3443    0.4081 C.3     1  LIG1        0.0791
     35 H          -6.3996    8.5176    0.8735 H       1  LIG1        0.0660
     36 H          -5.3679    8.8576   -0.5520 H       1  LIG1        0.0660
     37 H          -5.2514    7.2767    0.2891 H       1  LIG1        0.0660
     38 C          -2.5521   11.1454    0.3324 C.ar    1  LIG1        0.2184
     39 C          -3.5623   11.9335    0.7995 C.ar    1  LIG1        0.2086
     40 C          -3.2410   13.2709    0.3574 C.ar    1  LIG1        0.2002
     41 C          -2.0768   13.1722   -0.3303 C.ar    1  LIG1        0.1381
     42 O          -1.6458   11.8919   -0.3480 O.2     1  LIG1       -0.4521
     43 H          -1.4664   13.9105   -0.8171 H       1  LIG1        0.1069
     44 O          -4.6482   11.6148    1.5305 O.3     1  LIG1       -0.5007
     45 H          -4.6944   10.6467    1.6489 H       1  LIG1        0.2924
     46 O          -3.9380   14.4035    0.6152 O.3     1  LIG1       -0.4888
     47 C          -5.2899   14.3618    0.1556 C.3     1  LIG1        0.0791
     48 H          -5.7293   15.3180    0.4283 H       1  LIG1        0.0660
     49 H          -5.3075   14.2347   -0.9288 H       1  LIG1        0.0660
     50 H          -5.8260   13.5459    0.6398 H       1  LIG1        0.0660
@<TRIPOS>BOND
     1    24    22    1
     2    23    22    1
     3    22    25    1
     4    22    21    1
     5    13    10    1
     6    20    19    1
     7    21    16    1
     8    12    10    1
     9    19    15    1
    10    49    47    1
    11    10    11    1
    12    10     9    1
    13    43    41    1
    14    16    15   ar
    15    16    17   ar
    16    15    14   ar
    17    36    34    1
    18    42    41   ar
    19    42    38   ar
    20    41    40   ar
    21    17    26    1
    22    17    18   ar
    23    14    18   ar
    24    14     4    1
    25    30    26   ar
    26    30    29   ar
    27    47    48    1
    28    47    46    1
    29    47    50    1
    30    26    27   ar
    31    37    34    1
    32    38    29    1
    33    38    39   ar
    34    40    46    1
    35    40    39   ar
    36     4     3   ar
    37     4     5   ar
    38     9     3    1
    39    34    35    1
    40    34    33    1
    41    29    28   ar
    42     3     2   ar
    43     5     1   ar
    44    27    28   ar
    45    27    31    1
    46    39    44    1
    47    28    33    1
    48     2     1   ar
    49     2     7    1
    50     1     6    1
    51    32    31    1
    52     7     8    1
    53    44    45    1
