@<TRIPOS>MOLECULE
mol_data/opt/m06hf/geoms/mol2/12fl12fl12fl12fl-.out
 50 53 0 0 0
SMALL
GASTEIGER

@<TRIPOS>ATOM
      1 C           0.7654    1.3269    0.9088 C.ar    1  LIG1        0.1379
      2 C           2.0811    1.5255    0.6557 C.ar    1  LIG1        0.1979
      3 C           2.2421    2.9439    0.5035 C.ar    1  LIG1        0.2109
      4 C           1.0114    3.4954    0.6840 C.ar    1  LIG1        0.2186
      5 O           0.1178    2.5225    0.9251 O.2     1  LIG1       -0.4521
      6 H           0.1781    0.4440    1.0779 H       1  LIG1        0.1069
      7 O           3.0618    0.5951    0.5144 O.3     1  LIG1       -0.5012
      8 H           3.8918    0.9712    0.8315 H       1  LIG1        0.2924
      9 O           3.4162    3.5980    0.2278 O.3     1  LIG1       -0.4883
     10 C           3.6999    3.6513   -1.1822 C.3     1  LIG1        0.0791
     11 H           4.6473    4.1745   -1.2830 H       1  LIG1        0.0660
     12 H           3.7763    2.6363   -1.5714 H       1  LIG1        0.0660
     13 H           2.9025    4.1934   -1.6912 H       1  LIG1        0.0660
     14 C           0.6093    4.8851    0.6827 C.ar    1  LIG1        0.2194
     15 C           1.3669    6.0203    0.7324 C.ar    1  LIG1        0.2094
     16 C           0.4304    7.1053    0.6855 C.ar    1  LIG1        0.2117
     17 C          -0.8106    6.5467    0.6120 C.ar    1  LIG1        0.2197
     18 O          -0.7119    5.2044    0.6147 O.2     1  LIG1       -0.4407
     19 O           2.7028    6.1804    0.7987 O.3     1  LIG1       -0.5007
     20 H           3.1447    5.3109    0.7690 H       1  LIG1        0.2924
     21 O           0.7062    8.4423    0.7235 O.3     1  LIG1       -0.4883
     22 C           1.3199    8.9304   -0.4789 C.3     1  LIG1        0.0791
     23 H           1.4980    9.9903   -0.3176 H       1  LIG1        0.0660
     24 H           2.2600    8.4041   -0.6396 H       1  LIG1        0.0660
     25 H           0.6413    8.7767   -1.3192 H       1  LIG1        0.0660
     26 C          -2.1115    7.1694    0.5671 C.ar    1  LIG1        0.2195
     27 C          -2.5000    8.4623    0.7636 C.ar    1  LIG1        0.2094
     28 C          -3.9311    8.4805    0.5832 C.ar    1  LIG1        0.2117
     29 C          -4.2908    7.2045    0.2736 C.ar    1  LIG1        0.2196
     30 O          -3.1981    6.4002    0.2687 O.2     1  LIG1       -0.4407
     31 O          -1.7761    9.5510    1.0747 O.3     1  LIG1       -0.5007
     32 H          -0.8296    9.3169    1.1199 H       1  LIG1        0.2924
     33 O          -4.7436    9.5503    0.7348 O.3     1  LIG1       -0.4883
     34 C          -4.6114   10.5128   -0.3121 C.3     1  LIG1        0.0791
     35 H          -5.2876   11.3257   -0.0616 H       1  LIG1        0.0660
     36 H          -3.5831   10.8754   -0.3574 H       1  LIG1        0.0660
     37 H          -4.8986   10.0621   -1.2643 H       1  LIG1        0.0660
     38 C          -5.5410    6.5471   -0.0236 C.ar    1  LIG1        0.2184
     39 C          -5.7943    5.2225   -0.2112 C.ar    1  LIG1        0.2086
     40 C          -7.2044    5.1356   -0.4929 C.ar    1  LIG1        0.2002
     41 C          -7.6783    6.4097   -0.4531 C.ar    1  LIG1        0.1381
     42 O          -6.6722    7.2733   -0.1712 O.2     1  LIG1       -0.4521
     43 H          -8.6538    6.8376   -0.5949 H       1  LIG1        0.1069
     44 O          -4.9672    4.1599   -0.1582 O.3     1  LIG1       -0.5007
     45 H          -4.0701    4.4572    0.0449 H       1  LIG1        0.2924
     46 O          -7.8313    3.9670   -0.7313 O.3     1  LIG1       -0.4888
     47 C          -9.2210    4.0872   -0.9716 C.3     1  LIG1        0.0791
     48 H          -9.5924    3.0815   -1.1463 H       1  LIG1        0.0660
     49 H          -9.7171    4.5250   -0.1011 H       1  LIG1        0.0660
     50 H          -9.3993    4.7100   -1.8527 H       1  LIG1        0.0660
@<TRIPOS>BOND
     1    50    47    1
     2    13    10    1
     3    12    10    1
     4    25    22    1
     5    11    10    1
     6    37    34    1
     7    10     9    1
     8    48    47    1
     9    47    46    1
    10    47    49    1
    11    46    40    1
    12    24    22    1
    13    43    41    1
    14    40    41   ar
    15    40    39   ar
    16    22    23    1
    17    22    21    1
    18    41    42   ar
    19    36    34    1
    20    34    35    1
    21    34    33    1
    22    39    44    1
    23    39    38   ar
    24    42    38   ar
    25    44    45    1
    26    38    29    1
    27     9     3    1
    28    30    29   ar
    29    30    26   ar
    30    29    28   ar
    31     3     2   ar
    32     3     4   ar
    33     7     2    1
    34     7     8    1
    35    26    17    1
    36    26    27   ar
    37    28    33    1
    38    28    27   ar
    39    17    18   ar
    40    17    16   ar
    41    18    14   ar
    42     2     1   ar
    43    14     4    1
    44    14    15   ar
    45     4     5   ar
    46    16    21    1
    47    16    15   ar
    48    15    19    1
    49    27    31    1
    50    20    19    1
    51     1     5   ar
    52     1     6    1
    53    31    32    1
