@<TRIPOS>MOLECULE
mol_data/opt/m06hf/geoms/mol2/12fl6aa-4ef13il-.out
 51 54 0 0 0
SMALL
GASTEIGER

@<TRIPOS>ATOM
      1 C           0.0891    1.3500   -0.1656 C.ar    1  LIG1        0.1377
      2 C           1.4070    1.3204    0.1401 C.ar    1  LIG1        0.1978
      3 C           1.8046    2.6884    0.3232 C.ar    1  LIG1        0.2077
      4 C           0.6960    3.4502    0.1143 C.ar    1  LIG1        0.1815
      5 O          -0.3399    2.6393   -0.1875 O.2     1  LIG1       -0.4553
      6 H          -0.6323    0.5847   -0.3817 H       1  LIG1        0.1069
      7 O           2.2320    0.2494    0.2462 O.3     1  LIG1       -0.5012
      8 H           3.0150    0.5242    0.7404 H       1  LIG1        0.2924
      9 O           3.0760    3.0745    0.6328 O.3     1  LIG1       -0.4884
     10 C           3.8659    3.3506   -0.5319 C.3     1  LIG1        0.0791
     11 H           4.8601    3.6049   -0.1731 H       1  LIG1        0.0660
     12 H           3.9058    2.4662   -1.1707 H       1  LIG1        0.0660
     13 H           3.4330    4.1871   -1.0819 H       1  LIG1        0.0660
     14 C          -0.7019    5.4518   -0.3620 C.ar    1  LIG1        0.0390
     15 C           0.4759    4.8957    0.1458 C.ar    1  LIG1        0.0391
     16 C           1.4271    5.7626    0.6862 C.ar    1  LIG1       -0.0475
     17 C           1.1825    7.1275    0.6663 C.ar    1  LIG1       -0.0350
     18 C          -0.0113    7.5912    0.1051 C.ar    1  LIG1        0.0723
     19 N          -0.9373    6.7561   -0.3756 N.ar    1  LIG1       -0.2542
     20 H           2.3316    5.3613    1.1272 H       1  LIG1        0.0626
     21 H          -1.4734    4.8095   -0.7678 H       1  LIG1        0.0837
     22 H           1.8928    7.8224    1.0874 H       1  LIG1        0.0639
     23 C           0.5598   10.0860   -0.0664 C.ar    1  LIG1        0.0347
     24 C           0.1097   11.4105   -0.0901 C.ar    1  LIG1       -0.0331
     25 C          -0.3681    9.0417    0.0593 C.ar    1  LIG1        0.0192
     26 C          -1.2370   11.7495    0.0215 C.ar    1  LIG1        0.0413
     27 H           0.8409   12.1938   -0.2262 H       1  LIG1        0.0638
     28 C          -1.7219    9.3675    0.1211 C.ar    1  LIG1       -0.0092
     29 C          -2.1521   10.6845    0.1044 C.ar    1  LIG1        0.1266
     30 H          -2.4378    8.5546    0.1749 H       1  LIG1        0.0661
     31 C           1.9794    9.8737   -0.2426 C.1     1  LIG1       -0.0690
     32 C           3.1662    9.7644   -0.4032 C.1     1  LIG1       -0.1139
     33 H           4.2155    9.6620   -0.5549 H       1  LIG1        0.1232
     34 O          -3.4854   10.9830    0.1641 O.3     1  LIG1       -0.5061
     35 H          -4.0069   10.1755    0.2282 H       1  LIG1        0.2922
     36 C          -1.6478   13.1634    0.0326 C.ar    1  LIG1        0.0565
     37 C          -0.9191   14.2997    0.3568 C.ar    1  LIG1        0.0166
     38 C          -1.8078   15.3940    0.1815 C.ar    1  LIG1        0.1408
     39 C          -3.0273   14.9115   -0.2350 C.ar    1  LIG1        0.0446
     40 N          -2.9108   13.5608   -0.3163 N.ar    1  LIG1       -0.3573
     41 H          -3.6483   12.9065   -0.5272 H       1  LIG1        0.1655
     42 H          -3.9459   15.4285   -0.4496 H       1  LIG1        0.0844
     43 C           0.4880   14.4489    0.8809 C.3     1  LIG1       -0.0342
     44 H           0.5595   15.4176    1.3773 H       1  LIG1        0.0279
     45 H           1.2319   14.4202    0.0800 H       1  LIG1        0.0279
     46 H           0.7229   13.6652    1.6027 H       1  LIG1        0.0279
     47 O          -1.4961   16.7066    0.4171 O.3     1  LIG1       -0.4933
     48 C          -0.8802   17.3412   -0.6960 C.3     1  LIG1        0.0789
     49 H          -0.6670   18.3645   -0.3941 H       1  LIG1        0.0660
     50 H           0.0479   16.8294   -0.9634 H       1  LIG1        0.0660
     51 H          -1.5549   17.3353   -1.5552 H       1  LIG1        0.0660
@<TRIPOS>BOND
     1    51    48    1
     2    12    10    1
     3    13    10    1
     4    50    48    1
     5    21    14    1
     6    48    49    1
     7    48    47    1
     8    33    32    1
     9    10    11    1
    10    10     9    1
    11    41    40    1
    12    42    39    1
    13    32    31    3
    14     6     1    1
    15    19    14   ar
    16    19    18   ar
    17    14    15   ar
    18    40    39   ar
    19    40    36   ar
    20    31    23    1
    21    39    38   ar
    22    27    24    1
    23     5     1   ar
    24     5     4   ar
    25     1     2   ar
    26    24    23   ar
    27    24    26   ar
    28    23    25   ar
    29    26    36    1
    30    26    29   ar
    31    36    37   ar
    32    25    18    1
    33    25    28   ar
    34    45    43    1
    35    29    28   ar
    36    29    34    1
    37    18    17   ar
    38     4    15    1
    39     4     3   ar
    40    28    30    1
    41     2     7    1
    42     2     3   ar
    43    15    16   ar
    44    34    35    1
    45    38    37   ar
    46    38    47    1
    47     7     8    1
    48     3     9    1
    49    37    43    1
    50    17    16   ar
    51    17    22    1
    52    16    20    1
    53    43    44    1
    54    43    46    1
