@<TRIPOS>MOLECULE
mol_data/opt/m06hf/geoms/mol2/12fl12fl.out
 26 27 0 0 0
SMALL
GASTEIGER

@<TRIPOS>ATOM
      1 C           0.0373    1.7403   -0.0000 C.ar    1  LIG1        0.1379
      2 C           1.3889    1.6592    0.0000 C.ar    1  LIG1        0.1979
      3 C           1.8682    3.0283    0.0000 C.ar    1  LIG1        0.2109
      4 C           0.7472    3.8089   -0.0001 C.ar    1  LIG1        0.2186
      5 O          -0.3545    3.0288   -0.0001 O.2     1  LIG1       -0.4521
      6 H          -0.7232    0.9816   -0.0001 H       1  LIG1        0.1069
      7 O           2.0643    0.4717    0.0001 O.3     1  LIG1       -0.5012
      8 H           3.0125    0.6086    0.0002 H       1  LIG1        0.2924
      9 O           3.1284    3.5288    0.0000 O.3     1  LIG1       -0.4883
     10 C           4.2062    2.6200   -0.0002 C.3     1  LIG1        0.0791
     11 H           5.1085    3.2254   -0.0004 H       1  LIG1        0.0660
     12 H           4.1968    2.0011    0.9043 H       1  LIG1        0.0660
     13 H           4.1964    2.0012   -0.9048 H       1  LIG1        0.0660
     14 C           0.5069    5.2455   -0.0001 C.ar    1  LIG1        0.2184
     15 C           1.3062    6.3528    0.0001 C.ar    1  LIG1        0.2086
     16 C           0.3998    7.4857   -0.0000 C.ar    1  LIG1        0.2002
     17 C          -0.8496    6.9615   -0.0003 C.ar    1  LIG1        0.1381
     18 O          -0.7925    5.6184   -0.0003 O.2     1  LIG1       -0.4521
     19 H          -1.8180    7.4266   -0.0004 H       1  LIG1        0.1069
     20 O           2.6670    6.3199    0.0004 O.3     1  LIG1       -0.5007
     21 H           3.0269    7.2075    0.0013 H       1  LIG1        0.2924
     22 O           0.6306    8.8288   -0.0000 O.3     1  LIG1       -0.4888
     23 C           1.9685    9.2777   -0.0004 C.3     1  LIG1        0.0791
     24 H           1.9238   10.3636   -0.0009 H       1  LIG1        0.0660
     25 H           2.4921    8.9484    0.9037 H       1  LIG1        0.0660
     26 H           2.4919    8.9475   -0.9042 H       1  LIG1        0.0660
@<TRIPOS>BOND
     1    13    10    1
     2    26    23    1
     3    24    23    1
     4    19    17    1
     5    11    10    1
     6    23    22    1
     7    23    25    1
     8    18    17   ar
     9    18    14   ar
    10    17    16   ar
    11    10     9    1
    12    10    12    1
    13     5     4   ar
    14     5     1   ar
    15    14     4    1
    16    14    15   ar
    17     4     3   ar
    18     6     1    1
    19     1     2   ar
    20    16    22    1
    21    16    15   ar
    22     3     2   ar
    23     3     9    1
    24     2     7    1
    25    15    20    1
    26     7     8    1
    27    20    21    1
