@<TRIPOS>MOLECULE
mol_data/opt/m06hf/geoms/mol2/12fl12fl-12fl12fl-.out
 50 53 0 0 0
SMALL
GASTEIGER

@<TRIPOS>ATOM
      1 C           0.3556    2.6184   -1.5265 C.ar    1  LIG1        0.1379
      2 C           0.8183    3.4097   -2.5214 C.ar    1  LIG1        0.1979
      3 C           1.3598    4.5945   -1.8934 C.ar    1  LIG1        0.2109
      4 C           1.1569    4.4256   -0.5613 C.ar    1  LIG1        0.2186
      5 O           0.5605    3.2318   -0.3215 O.2     1  LIG1       -0.4521
      6 H          -0.1175    1.6536   -1.5088 H       1  LIG1        0.1069
      7 O           0.8287    3.2412   -3.8655 O.3     1  LIG1       -0.5012
      8 H           0.4774    2.3772   -4.1052 H       1  LIG1        0.2924
      9 O           1.9738    5.6309   -2.5050 O.3     1  LIG1       -0.4883
     10 C           1.0749    6.5424   -3.1475 C.3     1  LIG1        0.0791
     11 H           1.6931    7.3290   -3.5721 H       1  LIG1        0.0660
     12 H           0.5197    6.0262   -3.9322 H       1  LIG1        0.0660
     13 H           0.3889    6.9609   -2.4088 H       1  LIG1        0.0660
     14 C           1.4506    5.2474    0.5872 C.ar    1  LIG1        0.2194
     15 C           1.3283    4.9993    1.9211 C.ar    1  LIG1        0.2094
     16 C           1.7423    6.2078    2.5796 C.ar    1  LIG1        0.2117
     17 C           2.0741    7.0833    1.5905 C.ar    1  LIG1        0.2197
     18 O           1.9095    6.5076    0.3849 O.2     1  LIG1       -0.4407
     19 O           0.8974    3.8843    2.5537 O.3     1  LIG1       -0.5007
     20 H           0.6677    3.2139    1.8961 H       1  LIG1        0.2924
     21 O           1.8171    6.4626    3.9183 O.3     1  LIG1       -0.4883
     22 C           0.5502    6.3677    4.5881 C.3     1  LIG1        0.0791
     23 H           0.7479    6.5734    5.6364 H       1  LIG1        0.0660
     24 H          -0.1355    7.1073    4.1723 H       1  LIG1        0.0660
     25 H           0.1511    5.3620    4.4626 H       1  LIG1        0.0660
     26 C           2.5613    8.4387    1.6309 C.ar    1  LIG1        0.2195
     27 C           2.9425    9.2607    2.6474 C.ar    1  LIG1        0.2094
     28 C           3.3259   10.5098    2.0280 C.ar    1  LIG1        0.2117
     29 C           3.1324   10.3438    0.6898 C.ar    1  LIG1        0.2196
     30 O           2.6768    9.0904    0.4429 O.2     1  LIG1       -0.4407
     31 O           2.9841    9.0284    3.9730 O.3     1  LIG1       -0.5007
     32 H           2.6981    8.1147    4.1543 H       1  LIG1        0.2924
     33 O           3.8191   11.6004    2.6547 O.3     1  LIG1       -0.4883
     34 C           2.8890   12.2144    3.5494 C.3     1  LIG1        0.0791
     35 H           3.4094   13.0619    3.9871 H       1  LIG1        0.0660
     36 H           2.0134   12.5550    2.9938 H       1  LIG1        0.0660
     37 H           2.5948   11.5071    4.3258 H       1  LIG1        0.0660
     38 C           3.3140   11.1317   -0.5076 C.ar    1  LIG1        0.2184
     39 C           3.1540   10.7376   -1.8024 C.ar    1  LIG1        0.2086
     40 C           3.4437   11.9023   -2.5978 C.ar    1  LIG1        0.2002
     41 C           3.7535   12.8942   -1.7200 C.ar    1  LIG1        0.1381
     42 O           3.6735   12.4328   -0.4474 O.2     1  LIG1       -0.4521
     43 H           4.0373   13.9231   -1.8429 H       1  LIG1        0.1069
     44 O           2.8073    9.5394   -2.3175 O.3     1  LIG1       -0.5007
     45 H           2.7252    8.8890   -1.6052 H       1  LIG1        0.2924
     46 O           3.3899   11.8945   -3.9443 O.3     1  LIG1       -0.4888
     47 C           3.7627   13.1151   -4.5569 C.3     1  LIG1        0.0791
     48 H           3.6853   12.9568   -5.6288 H       1  LIG1        0.0660
     49 H           3.0853   13.9160   -4.2472 H       1  LIG1        0.0660
     50 H           4.7905   13.3731   -4.2877 H       1  LIG1        0.0660
@<TRIPOS>BOND
     1    48    47    1
     2    47    50    1
     3    47    49    1
     4    47    46    1
     5     8     7    1
     6    46    40    1
     7    12    10    1
     8     7     2    1
     9    11    10    1
    10    10     9    1
    11    10    13    1
    12    40    39   ar
    13    40    41   ar
    14     2     3   ar
    15     2     1   ar
    16     9     3    1
    17    44    39    1
    18    44    45    1
    19     3     4   ar
    20    43    41    1
    21    39    38   ar
    22    41    42   ar
    23     1     6    1
    24     1     5   ar
    25     4     5   ar
    26     4    14    1
    27    38    42   ar
    28    38    29    1
    29    18    14   ar
    30    18    17   ar
    31    30    29   ar
    32    30    26   ar
    33    14    15   ar
    34    29    28   ar
    35    17    26    1
    36    17    16   ar
    37    26    27   ar
    38    20    19    1
    39    15    19    1
    40    15    16   ar
    41    28    27   ar
    42    28    33    1
    43    16    21    1
    44    27    31    1
    45    33    34    1
    46    36    34    1
    47    34    35    1
    48    34    37    1
    49    21    22    1
    50    31    32    1
    51    24    22    1
    52    25    22    1
    53    22    23    1
