@<TRIPOS>MOLECULE
mol_data/opt/m06hf/geoms/mol2/12fl.out
 14 14 0 0 0
SMALL
GASTEIGER

@<TRIPOS>ATOM
      1 C           0.0495    1.8960   -0.0001 C.ar    1  LIG1        0.1368
      2 C           1.3998    1.7818    0.0001 C.ar    1  LIG1        0.1971
      3 C           1.9056    3.1440    0.0001 C.ar    1  LIG1        0.1994
      4 C           0.8079    3.9399   -0.0001 C.ar    1  LIG1        0.1370
      5 O          -0.3132    3.1941   -0.0002 O.2     1  LIG1       -0.4635
      6 H          -0.7255    1.1522   -0.0001 H       1  LIG1        0.1069
      7 H           0.7050    5.0093   -0.0002 H       1  LIG1        0.1069
      8 O           2.0441    0.5771    0.0002 O.3     1  LIG1       -0.5012
      9 H           2.9955    0.6907    0.0004 H       1  LIG1        0.2924
     10 O           3.1765    3.6360    0.0002 O.3     1  LIG1       -0.4888
     11 C           4.2341    2.7019   -0.0001 C.3     1  LIG1        0.0791
     12 H           5.1534    3.2815   -0.0003 H       1  LIG1        0.0660
     13 H           4.2079    2.0836    0.9037 H       1  LIG1        0.0660
     14 H           4.2075    2.0836   -0.9039 H       1  LIG1        0.0660
@<TRIPOS>BOND
     1    14    11    1
     2    12    11    1
     3     7     4    1
     4     5     4   ar
     5     5     1   ar
     6     6     1    1
     7    11    10    1
     8    11    13    1
     9     4     3   ar
    10     1     2   ar
    11     3     2   ar
    12     3    10    1
    13     2     8    1
    14     8     9    1
