@<TRIPOS>MOLECULE
mol_data/opt/m06hf/geoms/mol2/12fl13ea4af-13le-.out
 49 52 0 0 0
SMALL
GASTEIGER

@<TRIPOS>ATOM
      1 C           0.4852    1.5666    1.0269 C.ar    1  LIG1        0.1378
      2 C           1.6607    1.4250    0.3714 C.ar    1  LIG1        0.1979
      3 C           2.0174    2.7369   -0.1193 C.ar    1  LIG1        0.2091
      4 C           1.0307    3.5709    0.3039 C.ar    1  LIG1        0.1972
      5 O           0.0914    2.8664    0.9854 O.2     1  LIG1       -0.4539
      6 H          -0.1563    0.8756    1.5433 H       1  LIG1        0.1069
      7 O           2.4248    0.3254    0.1429 O.3     1  LIG1       -0.5012
      8 H           2.0165   -0.4561    0.5297 H       1  LIG1        0.2924
      9 O           3.0733    3.0489   -0.8989 O.3     1  LIG1       -0.4884
     10 C           4.3405    2.8013   -0.2859 C.3     1  LIG1        0.0791
     11 H           5.0872    3.1179   -1.0098 H       1  LIG1        0.0660
     12 H           4.4268    3.3947    0.6254 H       1  LIG1        0.0660
     13 H           4.4480    1.7382   -0.0677 H       1  LIG1        0.0660
     14 C           0.7685    4.9896    0.1227 C.ar    1  LIG1        0.1019
     15 C           1.6025    6.0830   -0.0562 C.ar    1  LIG1        0.0536
     16 C           0.7645    7.2334   -0.1413 C.ar    1  LIG1       -0.0203
     17 C          -0.5376    6.8099   -0.0068 C.ar    1  LIG1        0.0483
     18 N          -0.5121    5.4495    0.1449 N.ar    1  LIG1       -0.3507
     19 H          -1.3094    4.8697    0.3613 H       1  LIG1        0.1660
     20 C           3.0343    6.0835   -0.1022 C.1     1  LIG1       -0.0674
     21 C           4.2351    6.1442   -0.1266 C.1     1  LIG1       -0.1138
     22 H           5.2984    6.2008   -0.1546 H       1  LIG1        0.1232
     23 H           1.0925    8.2445   -0.3124 H       1  LIG1        0.0651
     24 C          -1.8945    8.8218    0.5677 C.ar    1  LIG1       -0.0518
     25 C          -3.0858    9.5315    0.5244 C.ar    1  LIG1       -0.0484
     26 C          -1.8025    7.5662   -0.0346 C.ar    1  LIG1        0.0018
     27 C          -4.2251    9.0213   -0.1129 C.ar    1  LIG1        0.0433
     28 H          -3.1644   10.4970    1.0054 H       1  LIG1        0.0625
     29 C          -2.9274    7.0392   -0.6702 C.ar    1  LIG1       -0.0104
     30 C          -4.1190    7.7525   -0.7019 C.ar    1  LIG1        0.1267
     31 H          -2.8651    6.0825   -1.1792 H       1  LIG1        0.0661
     32 H          -1.0376    9.2257    1.0894 H       1  LIG1        0.0624
     33 O          -5.2243    7.2291   -1.3263 O.3     1  LIG1       -0.5061
     34 H          -5.0197    6.3715   -1.7122 H       1  LIG1        0.2922
     35 C          -5.4660    9.8128   -0.1425 C.ar    1  LIG1        0.0935
     36 C          -5.6907   11.1201    0.2503 C.ar    1  LIG1        0.1606
     37 C          -7.0652   11.4233    0.0292 C.ar    1  LIG1        0.0842
     38 C          -7.6367   10.2771   -0.4895 C.ar    1  LIG1        0.0213
     39 N          -6.6766    9.3325   -0.5826 N.ar    1  LIG1       -0.3565
     40 H          -6.7860    8.3978   -0.9464 H       1  LIG1        0.1655
     41 H          -8.6531   10.0913   -0.7893 H       1  LIG1        0.0820
     42 O          -4.7679   11.9859    0.7585 O.3     1  LIG1       -0.4918
     43 C          -4.3220   12.9494   -0.1972 C.3     1  LIG1        0.0789
     44 H          -3.6174   13.5935    0.3237 H       1  LIG1        0.0660
     45 H          -3.8299   12.4428   -1.0305 H       1  LIG1        0.0660
     46 H          -5.1687   13.5337   -0.5597 H       1  LIG1        0.0660
     47 C          -7.7117   12.6711    0.3020 C.1     1  LIG1       -0.0645
     48 C          -8.2391   13.7275    0.5288 C.1     1  LIG1       -0.1137
     49 H          -8.7086   14.6593    0.7411 H       1  LIG1        0.1232
@<TRIPOS>BOND
     1    34    33    1
     2    33    30    1
     3    31    29    1
     4    45    43    1
     5    11    10    1
     6    40    39    1
     7     9    10    1
     8     9     3    1
     9    41    38    1
    10    30    29   ar
    11    30    27   ar
    12    29    26   ar
    13    39    38   ar
    14    39    35   ar
    15    46    43    1
    16    38    37   ar
    17    23    16    1
    18    10    13    1
    19    10    12    1
    20    43    44    1
    21    43    42    1
    22    22    21    1
    23    35    27    1
    24    35    36   ar
    25    16    15   ar
    26    16    17   ar
    27    21    20    3
    28     3     4   ar
    29     3     2   ar
    30    27    25   ar
    31    20    15    1
    32    15    14   ar
    33    26    17    1
    34    26    24   ar
    35    17    18   ar
    36    37    36   ar
    37    37    47    1
    38    14    18   ar
    39    14     4    1
    40     7     2    1
    41     7     8    1
    42    18    19    1
    43    36    42    1
    44    47    48    3
    45     4     5   ar
    46     2     1   ar
    47    25    24   ar
    48    25    28    1
    49    48    49    1
    50    24    32    1
    51     5     1   ar
    52     1     6    1
