@<TRIPOS>MOLECULE
mol_data/opt/m06hf/geoms/mol2/12fl12fl-12fl-12fl.out
 50 53 0 0 0
SMALL
GASTEIGER

@<TRIPOS>ATOM
      1 C          -0.7902    1.8885   -0.0891 C.ar    1  LIG1        0.1379
      2 C           0.4948    1.5078   -0.2314 C.ar    1  LIG1        0.1979
      3 C           1.3090    2.6944   -0.1038 C.ar    1  LIG1        0.2109
      4 C           0.4432    3.7245    0.1089 C.ar    1  LIG1        0.2186
      5 O          -0.8327    3.2374    0.1245 O.2     1  LIG1       -0.4521
      6 H          -1.7237    1.3586   -0.1041 H       1  LIG1        0.1069
      7 O           1.0080    0.2773   -0.4474 O.3     1  LIG1       -0.5012
      8 H           1.9697    0.3703   -0.4881 H       1  LIG1        0.2924
      9 O           2.6459    2.5567   -0.2253 O.3     1  LIG1       -0.4883
     10 C           3.5113    3.5169    0.3923 C.3     1  LIG1        0.0791
     11 H           4.4810    3.0319    0.4615 H       1  LIG1        0.0660
     12 H           3.5819    4.4181   -0.2118 H       1  LIG1        0.0660
     13 H           3.1367    3.7631    1.3867 H       1  LIG1        0.0660
     14 C           0.5137    5.1577    0.2961 C.ar    1  LIG1        0.2194
     15 C          -0.4867    6.0650    0.4813 C.ar    1  LIG1        0.2094
     16 C           0.1633    7.3411    0.5942 C.ar    1  LIG1        0.2117
     17 C           1.4981    7.1063    0.4635 C.ar    1  LIG1        0.2197
     18 O           1.7143    5.7881    0.2934 O.2     1  LIG1       -0.4407
     19 O          -1.8241    5.8840    0.5338 O.3     1  LIG1       -0.5007
     20 H          -2.0138    4.9401    0.4416 H       1  LIG1        0.2924
     21 O          -0.4190    8.5599    0.7944 O.3     1  LIG1       -0.4883
     22 C          -1.1856    9.0079   -0.3349 C.3     1  LIG1        0.0791
     23 H          -1.6135    9.9649   -0.0484 H       1  LIG1        0.0660
     24 H          -0.5257    9.1224   -1.1961 H       1  LIG1        0.0660
     25 H          -1.9716    8.2836   -0.5454 H       1  LIG1        0.0660
     26 C           2.6363    7.9915    0.5006 C.ar    1  LIG1        0.2195
     27 C           2.7410    9.3201    0.7917 C.ar    1  LIG1        0.2094
     28 C           4.1395    9.6366    0.6609 C.ar    1  LIG1        0.2117
     29 C           4.7558    8.4781    0.2868 C.ar    1  LIG1        0.2196
     30 O           3.8555    7.4776    0.1963 O.2     1  LIG1       -0.4407
     31 O           1.7927   10.2104    1.1418 O.3     1  LIG1       -0.5007
     32 H           0.9276    9.7641    1.1958 H       1  LIG1        0.2924
     33 O           4.7180   10.8349    0.9023 O.3     1  LIG1       -0.4883
     34 C           4.3705   11.8312   -0.0601 C.3     1  LIG1        0.0791
     35 H           4.8701   12.7432    0.2556 H       1  LIG1        0.0660
     36 H           4.7259   11.5280   -1.0471 H       1  LIG1        0.0660
     37 H           3.2894   11.9765   -0.0735 H       1  LIG1        0.0660
     38 C           6.1343    8.1561   -0.0096 C.ar    1  LIG1        0.2184
     39 C           6.7747    6.9723   -0.2017 C.ar    1  LIG1        0.2086
     40 C           8.1423    7.3084   -0.4866 C.ar    1  LIG1        0.2002
     41 C           8.2275    8.6621   -0.4466 C.ar    1  LIG1        0.1381
     42 O           7.0104    9.1792   -0.1596 O.2     1  LIG1       -0.4521
     43 H           9.0313    9.3609   -0.5882 H       1  LIG1        0.1069
     44 O           6.2793    5.7137   -0.1391 O.3     1  LIG1       -0.5007
     45 H           6.9987    5.1035   -0.3464 H       1  LIG1        0.2924
     46 O           9.0536    6.3372   -0.7246 O.3     1  LIG1       -0.4888
     47 C          10.3725    6.8066   -0.9564 C.3     1  LIG1        0.0791
     48 H          10.9886    5.9294   -1.1319 H       1  LIG1        0.0660
     49 H          10.3868    7.4577   -1.8335 H       1  LIG1        0.0660
     50 H          10.7314    7.3512   -0.0795 H       1  LIG1        0.0660
@<TRIPOS>BOND
     1    49    47    1
     2    24    22    1
     3    48    47    1
     4    36    34    1
     5    47    46    1
     6    47    50    1
     7    46    40    1
     8    43    41    1
     9    25    22    1
    10     8     7    1
    11    40    41   ar
    12    40    39   ar
    13     7     2    1
    14    41    42   ar
    15    45    44    1
    16    22    23    1
    17    22    21    1
    18     2     3   ar
    19     2     1   ar
    20     9     3    1
    21     9    10    1
    22    12    10    1
    23    39    44    1
    24    39    38   ar
    25    42    38   ar
    26     6     1    1
    27     3     4   ar
    28     1     5   ar
    29    37    34    1
    30    34    35    1
    31    34    33    1
    32    38    29    1
    33     4     5   ar
    34     4    14    1
    35    30    29   ar
    36    30    26   ar
    37    29    28   ar
    38    18    14   ar
    39    18    17   ar
    40    14    15   ar
    41    10    11    1
    42    10    13    1
    43    20    19    1
    44    17    26    1
    45    17    16   ar
    46    15    19    1
    47    15    16   ar
    48    26    27   ar
    49    16    21    1
    50    28    27   ar
    51    28    33    1
    52    27    31    1
    53    31    32    1
