@<TRIPOS>MOLECULE
mol_data/opt/m06hf/geoms/mol2/12fl12fl12fl12fl.out
 50 53 0 0 0
SMALL
GASTEIGER

@<TRIPOS>ATOM
      1 C           1.2296    1.4455    1.4066 C.ar    1  LIG1        0.1379
      2 C           2.4899    1.7098    0.9857 C.ar    1  LIG1        0.1979
      3 C           2.5031    3.1034    0.6412 C.ar    1  LIG1        0.2109
      4 C           1.2514    3.5756    0.8858 C.ar    1  LIG1        0.2186
      5 O           0.4805    2.5776    1.3467 O.2     1  LIG1       -0.4521
      6 H           0.7451    0.5501    1.7473 H       1  LIG1        0.1069
      7 O           3.5313    0.8456    0.8483 O.3     1  LIG1       -0.5012
      8 H           4.3490    1.3089    1.0672 H       1  LIG1        0.2924
      9 O           3.5754    3.8090    0.1571 O.3     1  LIG1       -0.4883
     10 C           3.7148    3.6952   -1.2703 C.3     1  LIG1        0.0791
     11 H           4.5940    4.2757   -1.5376 H       1  LIG1        0.0660
     12 H           3.8494    2.6464   -1.5351 H       1  LIG1        0.0660
     13 H           2.8243    4.0967   -1.7542 H       1  LIG1        0.0660
     14 C           0.7310    4.9193    0.7527 C.ar    1  LIG1        0.2194
     15 C           1.3957    6.1052    0.6185 C.ar    1  LIG1        0.2094
     16 C           0.3709    7.0999    0.4951 C.ar    1  LIG1        0.2117
     17 C          -0.8223    6.4445    0.5650 C.ar    1  LIG1        0.2197
     18 O          -0.6120    5.1262    0.7268 O.2     1  LIG1       -0.4407
     19 O           2.7159    6.3730    0.5817 O.3     1  LIG1       -0.5007
     20 H           3.2241    5.5400    0.5623 H       1  LIG1        0.2924
     21 O           0.5370    8.4485    0.3557 O.3     1  LIG1       -0.4883
     22 C           1.1101    8.8249   -0.9054 C.3     1  LIG1        0.0791
     23 H           1.2216    9.9054   -0.8763 H       1  LIG1        0.0660
     24 H           2.0808    8.3422   -1.0131 H       1  LIG1        0.0660
     25 H           0.4380    8.5270   -1.7113 H       1  LIG1        0.0660
     26 C          -2.1674    6.9724    0.5281 C.ar    1  LIG1        0.2195
     27 C          -2.6174    8.2563    0.6661 C.ar    1  LIG1        0.2094
     28 C          -4.0390    8.1759    0.5011 C.ar    1  LIG1        0.2117
     29 C          -4.3368    6.8651    0.2765 C.ar    1  LIG1        0.2196
     30 O          -3.2115    6.1301    0.2984 O.2     1  LIG1       -0.4407
     31 O          -1.9526    9.4024    0.8959 O.3     1  LIG1       -0.5007
     32 H          -0.9907    9.2434    0.8300 H       1  LIG1        0.2924
     33 O          -4.9384    9.2021    0.5659 O.3     1  LIG1       -0.4883
     34 C          -4.8454   10.1095   -0.5416 C.3     1  LIG1        0.0791
     35 H          -5.5986   10.8740   -0.3705 H       1  LIG1        0.0660
     36 H          -3.8489   10.5501   -0.5575 H       1  LIG1        0.0660
     37 H          -5.0460    9.5708   -1.4687 H       1  LIG1        0.0660
     38 C          -5.6173    6.2299    0.0502 C.ar    1  LIG1        0.2184
     39 C          -6.8857    6.7030    0.2280 C.ar    1  LIG1        0.2086
     40 C          -7.7575    5.6367   -0.2048 C.ar    1  LIG1        0.2002
     41 C          -6.9465    4.6235   -0.5991 C.ar    1  LIG1        0.1381
     42 O          -5.6518    4.9683   -0.4449 O.2     1  LIG1       -0.4521
     43 H          -7.1578    3.6383   -0.9729 H       1  LIG1        0.1069
     44 O          -7.3144    7.8865    0.7111 O.3     1  LIG1       -0.5007
     45 H          -6.5531    8.4866    0.8306 H       1  LIG1        0.2924
     46 O          -9.1128    5.6295   -0.1832 O.3     1  LIG1       -0.4888
     47 C          -9.7018    6.7054   -0.9140 C.3     1  LIG1        0.0791
     48 H         -10.7772    6.5834   -0.8152 H       1  LIG1        0.0660
     49 H          -9.3877    7.6609   -0.4937 H       1  LIG1        0.0660
     50 H          -9.4107    6.6421   -1.9650 H       1  LIG1        0.0660
@<TRIPOS>BOND
     1    50    47    1
     2    13    10    1
     3    25    22    1
     4    11    10    1
     5    12    10    1
     6    37    34    1
     7    10     9    1
     8    24    22    1
     9    43    41    1
    10    47    48    1
    11    47    49    1
    12    47    46    1
    13    22    23    1
    14    22    21    1
    15    41    42   ar
    16    41    40   ar
    17    36    34    1
    18    34    35    1
    19    34    33    1
    20    42    38   ar
    21    40    46    1
    22    40    39   ar
    23    38    39   ar
    24    38    29    1
    25     9     3    1
    26    39    44    1
    27    29    30   ar
    28    29    28   ar
    29    30    26   ar
    30    21    16    1
    31    16    17   ar
    32    16    15   ar
    33    28    33    1
    34    28    27   ar
    35    26    17    1
    36    26    27   ar
    37    20    19    1
    38    17    18   ar
    39    19    15    1
    40    15    14   ar
    41     3     4   ar
    42     3     2   ar
    43    27    31    1
    44    44    45    1
    45    18    14   ar
    46    14     4    1
    47    32    31    1
    48     7     2    1
    49     7     8    1
    50     4     5   ar
    51     2     1   ar
    52     5     1   ar
    53     1     6    1
