@<TRIPOS>MOLECULE
mol_data/opt/m06hf/geoms/mol2/12fl12fl12fl-12fl-.out
 50 53 0 0 0
SMALL
GASTEIGER

@<TRIPOS>ATOM
      1 C          -0.2773    1.6416   -0.1694 C.ar    1  LIG1        0.1379
      2 C           0.9547    1.4085    0.3373 C.ar    1  LIG1        0.1979
      3 C           1.5611    2.6959    0.5481 C.ar    1  LIG1        0.2109
      4 C           0.6467    3.6157    0.1390 C.ar    1  LIG1        0.2186
      5 O          -0.4645    2.9835   -0.2989 O.2     1  LIG1       -0.4521
      6 H          -1.0814    0.9976   -0.4714 H       1  LIG1        0.1069
      7 O           1.5541    0.2240    0.6148 O.3     1  LIG1       -0.5012
      8 H           2.2672    0.3957    1.2440 H       1  LIG1        0.2924
      9 O           2.7947    2.8673    1.0885 O.3     1  LIG1       -0.4883
     10 C           3.8454    2.8424    0.1127 C.3     1  LIG1        0.0791
     11 H           4.7743    2.9395    0.6687 H       1  LIG1        0.0660
     12 H           3.8237    1.8953   -0.4310 H       1  LIG1        0.0660
     13 H           3.7264    3.6813   -0.5710 H       1  LIG1        0.0660
     14 C           0.6458    5.0626    0.0930 C.ar    1  LIG1        0.2194
     15 C           1.6087    6.0151    0.1240 C.ar    1  LIG1        0.2094
     16 C           0.9460    7.2905    0.0269 C.ar    1  LIG1        0.2117
     17 C          -0.3901    7.0256   -0.0586 C.ar    1  LIG1        0.2197
     18 O          -0.5677    5.6727   -0.0151 O.2     1  LIG1       -0.4407
     19 O           2.9487    5.8698    0.1921 O.3     1  LIG1       -0.5007
     20 H           3.3417    6.7530    0.1564 H       1  LIG1        0.2924
     21 O           1.7127    8.4002    0.0226 O.3     1  LIG1       -0.4883
     22 C           1.1289    9.6156   -0.4479 C.3     1  LIG1        0.0791
     23 H           1.9541   10.3122   -0.5644 H       1  LIG1        0.0660
     24 H           0.6385    9.4417   -1.4074 H       1  LIG1        0.0660
     25 H           0.4059    9.9926    0.2734 H       1  LIG1        0.0660
     26 C          -1.6483    7.7276   -0.2008 C.ar    1  LIG1        0.2195
     27 C          -2.8833    7.2012   -0.4485 C.ar    1  LIG1        0.2094
     28 C          -3.7813    8.3212   -0.4623 C.ar    1  LIG1        0.2117
     29 C          -3.0293    9.4287   -0.2185 C.ar    1  LIG1        0.2196
     30 O          -1.7356    9.0775   -0.0674 O.2     1  LIG1       -0.4407
     31 O          -3.2745    5.9244   -0.6278 O.3     1  LIG1       -0.5007
     32 H          -2.5165    5.3321   -0.5133 H       1  LIG1        0.2924
     33 O          -5.1285    8.2959   -0.6768 O.3     1  LIG1       -0.4883
     34 C          -5.8623    7.7126    0.4125 C.3     1  LIG1        0.0791
     35 H          -6.9064    7.7211    0.1120 H       1  LIG1        0.0660
     36 H          -5.5164    6.6914    0.5695 H       1  LIG1        0.0660
     37 H          -5.7138    8.3146    1.3100 H       1  LIG1        0.0660
     38 C          -3.4063   10.8218   -0.1240 C.ar    1  LIG1        0.2184
     39 C          -4.5786   11.4422   -0.4374 C.ar    1  LIG1        0.2086
     40 C          -4.3851   12.8268   -0.0828 C.ar    1  LIG1        0.2002
     41 C          -3.1211   12.9256    0.4064 C.ar    1  LIG1        0.1381
     42 O          -2.5182   11.7103    0.3882 O.2     1  LIG1       -0.4521
     43 H          -2.5410   13.7463    0.7856 H       1  LIG1        0.1069
     44 O          -5.7109   10.9616   -0.9756 O.3     1  LIG1       -0.5007
     45 H          -5.6518    9.9917   -1.0561 H       1  LIG1        0.2924
     46 O          -5.3449   13.7559   -0.2503 O.3     1  LIG1       -0.4888
     47 C          -4.9825   15.0609    0.1611 C.3     1  LIG1        0.0791
     48 H          -5.8434   15.6940   -0.0316 H       1  LIG1        0.0660
     49 H          -4.7420   15.0675    1.2280 H       1  LIG1        0.0660
     50 H          -4.1216   15.4134   -0.4147 H       1  LIG1        0.0660
@<TRIPOS>BOND
     1    24    22    1
     2    45    44    1
     3    44    39    1
     4    33    28    1
     5    33    34    1
     6    31    32    1
     7    31    27    1
     8    13    10    1
     9    23    22    1
    10     6     1    1
    11    28    27   ar
    12    28    29   ar
    13    27    26   ar
    14    22    21    1
    15    22    25    1
    16    39    38   ar
    17    39    40   ar
    18    12    10    1
    19    50    47    1
    20     5     1   ar
    21     5     4   ar
    22    46    40    1
    23    46    47    1
    24    29    38    1
    25    29    30   ar
    26    26    30   ar
    27    26    17    1
    28     1     2   ar
    29    38    42   ar
    30    40    41   ar
    31    17    18   ar
    32    17    16   ar
    33    48    47    1
    34    18    14   ar
    35    21    16    1
    36    16    15   ar
    37    14    15   ar
    38    14     4    1
    39    35    34    1
    40    10    11    1
    41    10     9    1
    42    15    19    1
    43     4     3   ar
    44    20    19    1
    45    47    49    1
    46     2     3   ar
    47     2     7    1
    48    42    41   ar
    49    41    43    1
    50    34    36    1
    51    34    37    1
    52     3     9    1
    53     7     8    1
