@<TRIPOS>MOLECULE
mol_data/opt/m06hf/geoms/mol2/12fl12fl-12fl.out
 38 40 0 0 0
SMALL
GASTEIGER

@<TRIPOS>ATOM
      1 C           0.0112    1.8419   -0.0000 C.ar    1  LIG1        0.1379
      2 C           1.3584    1.7244   -0.0000 C.ar    1  LIG1        0.1979
      3 C           1.8851    3.0799   -0.0001 C.ar    1  LIG1        0.2109
      4 C           0.7947    3.8944   -0.0001 C.ar    1  LIG1        0.2186
      5 O          -0.3410    3.1513   -0.0001 O.2     1  LIG1       -0.4521
      6 H          -0.7702    1.1059   -0.0000 H       1  LIG1        0.1069
      7 O           1.9977    0.5198    0.0000 O.3     1  LIG1       -0.5012
      8 H           2.9492    0.6296    0.0001 H       1  LIG1        0.2924
      9 O           3.1561    3.5518   -0.0001 O.3     1  LIG1       -0.4883
     10 C           4.2089    2.6134   -0.0003 C.3     1  LIG1        0.0791
     11 H           5.1279    3.1930   -0.0004 H       1  LIG1        0.0660
     12 H           4.1822    1.9953    0.9044 H       1  LIG1        0.0660
     13 H           4.1819    1.9954   -0.9050 H       1  LIG1        0.0660
     14 C           0.5956    5.3262   -0.0001 C.ar    1  LIG1        0.2194
     15 C          -0.5677    6.0271   -0.0000 C.ar    1  LIG1        0.2094
     16 C          -0.2056    7.4193   -0.0001 C.ar    1  LIG1        0.2117
     17 C           1.1697    7.4490   -0.0002 C.ar    1  LIG1        0.2196
     18 O           1.6451    6.1724   -0.0002 O.2     1  LIG1       -0.4407
     19 O          -1.8463    5.5948    0.0001 O.3     1  LIG1       -0.5007
     20 H          -1.8481    4.6289    0.0001 H       1  LIG1        0.2924
     21 O          -1.1963    8.3285    0.0000 O.3     1  LIG1       -0.4883
     22 C          -0.8897    9.7123   -0.0001 C.3     1  LIG1        0.0791
     23 H          -1.8513   10.2186   -0.0001 H       1  LIG1        0.0660
     24 H          -0.3205    9.9778    0.8909 H       1  LIG1        0.0660
     25 H          -0.3207    9.9776   -0.8914 H       1  LIG1        0.0660
     26 C           2.2314    8.4489   -0.0002 C.ar    1  LIG1        0.2184
     27 C           3.5891    8.2918    0.0001 C.ar    1  LIG1        0.2086
     28 C           4.1394    9.6355   -0.0002 C.ar    1  LIG1        0.2002
     29 C           3.0759   10.4727   -0.0007 C.ar    1  LIG1        0.1381
     30 O           1.9273    9.7649   -0.0007 O.2     1  LIG1       -0.4521
     31 H           3.0082   11.5444   -0.0011 H       1  LIG1        0.1069
     32 O           4.2208    7.0873    0.0006 O.3     1  LIG1       -0.5007
     33 H           5.1714    7.2018    0.0008 H       1  LIG1        0.2924
     34 O           5.4240   10.0857   -0.0001 O.3     1  LIG1       -0.4888
     35 C           6.4660    9.1330    0.0000 C.3     1  LIG1        0.0791
     36 H           7.3934    9.6995   -0.0002 H       1  LIG1        0.0660
     37 H           6.4309    8.5160    0.9047 H       1  LIG1        0.0660
     38 H           6.4307    8.5156   -0.9044 H       1  LIG1        0.0660
@<TRIPOS>BOND
     1    13    10    1
     2    38    35    1
     3    25    22    1
     4    31    29    1
     5    29    30   ar
     6    29    28   ar
     7    30    26   ar
     8    11    10    1
     9    10     9    1
    10    10    12    1
    11    26    17    1
    12    26    27   ar
    13    28    34    1
    14    28    27   ar
    15    36    35    1
    16    18    17   ar
    17    18    14   ar
    18    17    16   ar
    19    22    23    1
    20    22    21    1
    21    22    24    1
    22    14     4    1
    23    14    15   ar
    24     4     3   ar
    25     4     5   ar
    26    34    35    1
    27     3     9    1
    28     3     2   ar
    29     5     1   ar
    30    16    15   ar
    31    16    21    1
    32     1     2   ar
    33     1     6    1
    34    15    19    1
    35     2     7    1
    36    35    37    1
    37     7     8    1
    38    20    19    1
    39    27    32    1
    40    32    33    1
