@<TRIPOS>MOLECULE
mol_data/opt/m06hf/geoms/mol2/12fl12fl-12fl-12fl-.out
 50 53 0 0 0
SMALL
GASTEIGER

@<TRIPOS>ATOM
      1 C          -0.6075    1.8286    0.0479 C.ar    1  LIG1        0.1379
      2 C           0.6783    1.4282    0.1129 C.ar    1  LIG1        0.1979
      3 C           1.4872    2.6166    0.2507 C.ar    1  LIG1        0.2109
      4 C           0.6209    3.6672    0.2527 C.ar    1  LIG1        0.2186
      5 O          -0.6535    3.1914    0.1372 O.2     1  LIG1       -0.4521
      6 H          -1.5398    1.3057   -0.0486 H       1  LIG1        0.1069
      7 O           1.1896    0.1791    0.0728 O.3     1  LIG1       -0.5012
      8 H           2.1504    0.2559    0.1489 H       1  LIG1        0.2924
      9 O           2.8275    2.4783    0.3324 O.3     1  LIG1       -0.4883
     10 C           3.5642    3.4291    1.1092 C.3     1  LIG1        0.0791
     11 H           4.5157    2.9534    1.3305 H       1  LIG1        0.0660
     12 H           3.7172    4.3445    0.5416 H       1  LIG1        0.0660
     13 H           3.0227    3.6452    2.0321 H       1  LIG1        0.0660
     14 C           0.6907    5.1110    0.3235 C.ar    1  LIG1        0.2194
     15 C          -0.3235    6.0203    0.3870 C.ar    1  LIG1        0.2094
     16 C           0.3110    7.3073    0.3977 C.ar    1  LIG1        0.2117
     17 C           1.6522    7.0790    0.3361 C.ar    1  LIG1        0.2197
     18 O           1.8877    5.7524    0.2991 O.2     1  LIG1       -0.4407
     19 O          -1.6599    5.8308    0.4075 O.3     1  LIG1       -0.5007
     20 H          -1.8428    4.8827    0.3453 H       1  LIG1        0.2924
     21 O          -0.2902    8.5320    0.4568 O.3     1  LIG1       -0.4883
     22 C          -1.0424    8.8490   -0.7265 C.3     1  LIG1        0.0791
     23 H          -1.4923    9.8214   -0.5459 H       1  LIG1        0.0660
     24 H          -0.3678    8.8869   -1.5830 H       1  LIG1        0.0660
     25 H          -1.8111    8.0914   -0.8742 H       1  LIG1        0.0660
     26 C           2.7666    7.9971    0.3352 C.ar    1  LIG1        0.2195
     27 C           2.8127    9.3460    0.5467 C.ar    1  LIG1        0.2094
     28 C           4.1913    9.7062    0.3796 C.ar    1  LIG1        0.2117
     29 C           4.8656    8.5593    0.0852 C.ar    1  LIG1        0.2196
     30 O           4.0121    7.5183    0.0657 O.2     1  LIG1       -0.4407
     31 O           1.8339   10.2217    0.8364 O.3     1  LIG1       -0.5007
     32 H           0.9731    9.7601    0.8515 H       1  LIG1        0.2924
     33 O           4.7419   10.9486    0.5005 O.3     1  LIG1       -0.4883
     34 C           4.3441   11.8518   -0.5419 C.3     1  LIG1        0.0791
     35 H           4.8389   12.7954   -0.3289 H       1  LIG1        0.0660
     36 H           4.6667   11.4565   -1.5058 H       1  LIG1        0.0660
     37 H           3.2613   11.9717   -0.5151 H       1  LIG1        0.0660
     38 C           6.2745    8.3435   -0.1630 C.ar    1  LIG1        0.2184
     39 C           7.3469    9.1549    0.0641 C.ar    1  LIG1        0.2086
     40 C           8.4902    8.4221   -0.4215 C.ar    1  LIG1        0.2002
     41 C           8.0155    7.2381   -0.8920 C.ar    1  LIG1        0.1381
     42 O           6.6701    7.1839   -0.7430 O.2     1  LIG1       -0.4521
     43 H           8.4859    6.3805   -1.3366 H       1  LIG1        0.1069
     44 O           7.4231   10.3712    0.6292 O.3     1  LIG1       -0.5007
     45 H           6.5260   10.7315    0.7530 H       1  LIG1        0.2924
     46 O           9.7445    8.9101   -0.3631 O.3     1  LIG1       -0.4888
     47 C          10.7379    8.0309   -0.8558 C.3     1  LIG1        0.0791
     48 H          11.6880    8.5443   -0.7424 H       1  LIG1        0.0660
     49 H          10.7419    7.1033   -0.2764 H       1  LIG1        0.0660
     50 H          10.5565    7.8072   -1.9110 H       1  LIG1        0.0660
@<TRIPOS>BOND
     1    50    47    1
     2    24    22    1
     3    36    34    1
     4    43    41    1
     5    41    42   ar
     6    41    40   ar
     7    25    22    1
     8    47    48    1
     9    47    46    1
    10    47    49    1
    11    42    38   ar
    12    22    23    1
    13    22    21    1
    14    34    37    1
    15    34    35    1
    16    34    33    1
    17    40    46    1
    18    40    39   ar
    19    38    39   ar
    20    38    29    1
    21     6     1    1
    22     1     2   ar
    23     1     5   ar
    24    39    44    1
    25    30    29   ar
    26    30    26   ar
    27     7     2    1
    28     7     8    1
    29    29    28   ar
    30     2     3   ar
    31     5     4   ar
    32     3     4   ar
    33     3     9    1
    34     4    14    1
    35    18    14   ar
    36    18    17   ar
    37    14    15   ar
    38     9    10    1
    39    26    17    1
    40    26    27   ar
    41    17    16   ar
    42    20    19    1
    43    28    33    1
    44    28    27   ar
    45    15    16   ar
    46    15    19    1
    47    16    21    1
    48    12    10    1
    49    27    31    1
    50    44    45    1
    51    31    32    1
    52    10    11    1
    53    10    13    1
