@<TRIPOS>MOLECULE
mol_data/opt/m06hf/geoms/mol2/12fl12fl-12fl12fl.out
 50 53 0 0 0
SMALL
GASTEIGER

@<TRIPOS>ATOM
      1 C           0.3320    1.5844   -0.7586 C.ar    1  LIG1        0.1379
      2 C           1.6722    1.6237   -0.9129 C.ar    1  LIG1        0.1979
      3 C           2.0882    2.9739   -0.6274 C.ar    1  LIG1        0.2109
      4 C           0.9573    3.6621   -0.3144 C.ar    1  LIG1        0.2186
      5 O          -0.1109    2.8274   -0.4020 O.2     1  LIG1       -0.4521
      6 H          -0.4013    0.8081   -0.8637 H       1  LIG1        0.1069
      7 O           2.5224    0.6320   -1.2611 O.3     1  LIG1       -0.5012
      8 H           3.4188    0.9902   -1.2085 H       1  LIG1        0.2924
      9 O           3.3958    3.3300   -0.6835 O.3     1  LIG1       -0.4883
     10 C           3.6989    4.3951   -1.5937 C.3     1  LIG1        0.0791
     11 H           4.7824    4.4804   -1.5995 H       1  LIG1        0.0660
     12 H           3.3308    4.1420   -2.5895 H       1  LIG1        0.0660
     13 H           3.2473    5.3221   -1.2432 H       1  LIG1        0.0660
     14 C           0.6472    5.0180    0.0839 C.ar    1  LIG1        0.2194
     15 C          -0.5625    5.5883    0.3319 C.ar    1  LIG1        0.2094
     16 C          -0.2858    6.9492    0.7126 C.ar    1  LIG1        0.2117
     17 C           1.0711    7.0952    0.6550 C.ar    1  LIG1        0.2197
     18 O           1.6413    5.9126    0.2719 O.2     1  LIG1       -0.4407
     19 O          -1.8010    5.0596    0.2706 O.3     1  LIG1       -0.5007
     20 H          -1.7307    4.1252    0.0345 H       1  LIG1        0.2924
     21 O          -1.2725    7.7920    1.0469 O.3     1  LIG1       -0.4883
     22 C          -0.8963    9.0974    1.4712 C.3     1  LIG1        0.0791
     23 H          -1.8233    9.5933    1.7443 H       1  LIG1        0.0660
     24 H          -0.2334    9.0362    2.3377 H       1  LIG1        0.0660
     25 H          -0.4003    9.6338    0.6600 H       1  LIG1        0.0660
     26 C           1.9685    8.2147    0.9033 C.ar    1  LIG1        0.2195
     27 C           2.9143    8.4292    1.8543 C.ar    1  LIG1        0.2094
     28 C           3.4365    9.7474    1.6296 C.ar    1  LIG1        0.2117
     29 C           2.7676   10.2389    0.5486 C.ar    1  LIG1        0.2196
     30 O           1.9012    9.3140    0.0935 O.2     1  LIG1       -0.4407
     31 O           3.2883    7.6079    2.8588 O.3     1  LIG1       -0.5007
     32 H           3.7463    8.1403    3.5225 H       1  LIG1        0.2924
     33 O           4.3585   10.3386    2.4319 O.3     1  LIG1       -0.4883
     34 C           5.7122   10.0283    2.0701 C.3     1  LIG1        0.0791
     35 H           6.3377   10.4905    2.8298 H       1  LIG1        0.0660
     36 H           5.8579    8.9458    2.0683 H       1  LIG1        0.0660
     37 H           5.9321   10.4478    1.0902 H       1  LIG1        0.0660
     38 C           2.8016   11.5235   -0.1256 C.ar    1  LIG1        0.2184
     39 C           3.7636   12.4712   -0.2681 C.ar    1  LIG1        0.2086
     40 C           3.1639   13.5414   -1.0167 C.ar    1  LIG1        0.2002
     41 C           1.8906   13.1588   -1.2780 C.ar    1  LIG1        0.1381
     42 O           1.6661   11.9430   -0.7445 O.2     1  LIG1       -0.4521
     43 H           1.0760   13.6325   -1.7958 H       1  LIG1        0.1069
     44 O           5.0498   12.4479    0.1582 O.3     1  LIG1       -0.5007
     45 H           5.3669   13.3601    0.1969 H       1  LIG1        0.2924
     46 O           3.8252   14.6856   -1.3465 O.3     1  LIG1       -0.4888
     47 C           4.5346   14.5846   -2.5850 C.3     1  LIG1        0.0791
     48 H           5.0396   15.5365   -2.7276 H       1  LIG1        0.0660
     49 H           5.2629   13.7719   -2.5362 H       1  LIG1        0.0660
     50 H           3.8345   14.4008   -3.4009 H       1  LIG1        0.0660
@<TRIPOS>BOND
     1    50    47    1
     2    48    47    1
     3    12    10    1
     4    47    49    1
     5    47    46    1
     6    43    41    1
     7    11    10    1
     8    10    13    1
     9    10     9    1
    10    46    40    1
    11    41    40   ar
    12    41    42   ar
    13     7     8    1
    14     7     2    1
    15    40    39   ar
    16     2     1   ar
    17     2     3   ar
    18     6     1    1
    19     1     5   ar
    20    42    38   ar
    21     9     3    1
    22     3     4   ar
    23     5     4   ar
    24     4    14    1
    25    39    38   ar
    26    39    44    1
    27    38    29    1
    28    20    19    1
    29    14    18   ar
    30    14    15   ar
    31    30    29   ar
    32    30    26   ar
    33    44    45    1
    34    19    15    1
    35    18    17   ar
    36    15    16   ar
    37    29    28   ar
    38    17    16   ar
    39    17    26    1
    40    25    22    1
    41    16    21    1
    42    26    27   ar
    43    21    22    1
    44    37    34    1
    45    22    23    1
    46    22    24    1
    47    28    27   ar
    48    28    33    1
    49    27    31    1
    50    36    34    1
    51    34    33    1
    52    34    35    1
    53    31    32    1
