@<TRIPOS>MOLECULE
mol_data/opt/m06hf/geoms/mol2/12fl12fl12fl.out
 38 40 0 0 0
SMALL
GASTEIGER

@<TRIPOS>ATOM
      1 C           0.4912    1.3777    0.6467 C.ar    1  LIG1        0.1379
      2 C           1.8300    1.5524    0.5409 C.ar    1  LIG1        0.1979
      3 C           2.0341    2.9698    0.4395 C.ar    1  LIG1        0.2109
      4 C           0.8026    3.5446    0.5000 C.ar    1  LIG1        0.2186
      5 O          -0.1304    2.5865    0.6211 O.2     1  LIG1       -0.4521
      6 H          -0.1278    0.5044    0.7321 H       1  LIG1        0.1069
      7 O           2.8023    0.6035    0.4872 O.3     1  LIG1       -0.5012
      8 H           3.6002    0.9573    0.8983 H       1  LIG1        0.2924
      9 O           3.2444    3.6025    0.3063 O.3     1  LIG1       -0.4883
     10 C           3.6831    3.6735   -1.0623 C.3     1  LIG1        0.0791
     11 H           4.6521    4.1660   -1.0459 H       1  LIG1        0.0660
     12 H           3.7707    2.6639   -1.4642 H       1  LIG1        0.0660
     13 H           2.9643    4.2520   -1.6429 H       1  LIG1        0.0660
     14 C           0.4315    4.9434    0.4975 C.ar    1  LIG1        0.2194
     15 C           1.2035    6.0563    0.6722 C.ar    1  LIG1        0.2094
     16 C           0.3009    7.1641    0.5608 C.ar    1  LIG1        0.2117
     17 C          -0.9367    6.6408    0.3314 C.ar    1  LIG1        0.2196
     18 O          -0.8657    5.2980    0.2957 O.2     1  LIG1       -0.4407
     19 O           2.5269    6.1821    0.8927 O.3     1  LIG1       -0.5007
     20 H           2.9533    5.3049    0.8699 H       1  LIG1        0.2924
     21 O           0.6066    8.4907    0.6795 O.3     1  LIG1       -0.4883
     22 C           1.3561    8.9990   -0.4337 C.3     1  LIG1        0.0791
     23 H           1.5452   10.0473   -0.2180 H       1  LIG1        0.0660
     24 H           2.2935    8.4498   -0.5140 H       1  LIG1        0.0660
     25 H           0.7660    8.8935   -1.3453 H       1  LIG1        0.0660
     26 C          -2.2123    7.3030    0.1596 C.ar    1  LIG1        0.2184
     27 C          -2.5748    8.6022    0.3708 C.ar    1  LIG1        0.2086
     28 C          -3.9720    8.6741    0.0151 C.ar    1  LIG1        0.2002
     29 C          -4.3271    7.4244   -0.3731 C.ar    1  LIG1        0.1381
     30 O          -3.2739    6.5866   -0.2847 O.2     1  LIG1       -0.4521
     31 H          -5.2635    7.0130   -0.7021 H       1  LIG1        0.1069
     32 O          -1.8553    9.6479    0.8244 O.3     1  LIG1       -0.5007
     33 H          -0.9255    9.3777    0.9500 H       1  LIG1        0.2924
     34 O          -4.7757    9.7631    0.0909 O.3     1  LIG1       -0.4888
     35 C          -4.3100   10.8679   -0.6850 C.3     1  LIG1        0.0791
     36 H          -5.0331   11.6657   -0.5359 H       1  LIG1        0.0660
     37 H          -3.3237   11.1791   -0.3407 H       1  LIG1        0.0660
     38 H          -4.2706   10.5879   -1.7398 H       1  LIG1        0.0660
@<TRIPOS>BOND
     1    38    35    1
     2    13    10    1
     3    12    10    1
     4    25    22    1
     5    10    11    1
     6    10     9    1
     7    31    29    1
     8    35    36    1
     9    35    37    1
    10    35    34    1
    11    24    22    1
    12    22    23    1
    13    22    21    1
    14    29    30   ar
    15    29    28   ar
    16    30    26   ar
    17    28    34    1
    18    28    27   ar
    19    26    17    1
    20    26    27   ar
    21    18    17   ar
    22    18    14   ar
    23     9     3    1
    24    17    16   ar
    25    27    32    1
    26     3     4   ar
    27     3     2   ar
    28     7     2    1
    29     7     8    1
    30    14     4    1
    31    14    15   ar
    32     4     5   ar
    33     2     1   ar
    34    16    15   ar
    35    16    21    1
    36     5     1   ar
    37     1     6    1
    38    15    19    1
    39    32    33    1
    40    20    19    1
