@<TRIPOS>MOLECULE
mol_data/opt/m06hf/geoms/mol2/12fl12fl-.out
 26 27 0 0 0
SMALL
GASTEIGER

@<TRIPOS>ATOM
      1 C           0.0520    1.8503   -0.0001 C.ar    1  LIG1        0.1379
      2 C           1.3988    1.7211    0.0001 C.ar    1  LIG1        0.1979
      3 C           1.9359    3.0731    0.0000 C.ar    1  LIG1        0.2109
      4 C           0.8521    3.8953   -0.0001 C.ar    1  LIG1        0.2186
      5 O          -0.2895    3.1629   -0.0002 O.2     1  LIG1       -0.4521
      6 H          -0.7359    1.1211   -0.0001 H       1  LIG1        0.1069
      7 O           2.0275    0.5119    0.0002 O.3     1  LIG1       -0.5012
      8 H           2.9805    0.6121    0.0008 H       1  LIG1        0.2924
      9 O           3.2114    3.5363    0.0001 O.3     1  LIG1       -0.4883
     10 C           4.2566    2.5873   -0.0002 C.3     1  LIG1        0.0791
     11 H           5.1807    3.1586   -0.0005 H       1  LIG1        0.0660
     12 H           4.2233    1.9708    0.9045 H       1  LIG1        0.0660
     13 H           4.2227    1.9707   -0.9047 H       1  LIG1        0.0660
     14 C           0.6753    5.3313   -0.0001 C.ar    1  LIG1        0.2184
     15 C          -0.4771    6.0544   -0.0002 C.ar    1  LIG1        0.2086
     16 C          -0.0693    7.4355   -0.0002 C.ar    1  LIG1        0.2002
     17 C           1.2906    7.4284   -0.0001 C.ar    1  LIG1        0.1381
     18 O           1.7491    6.1522   -0.0001 O.2     1  LIG1       -0.4521
     19 H           2.0308    8.2065   -0.0001 H       1  LIG1        0.1069
     20 O          -1.7632    5.6440   -0.0002 O.3     1  LIG1       -0.5007
     21 H          -1.7856    4.6786   -0.0002 H       1  LIG1        0.2924
     22 O          -0.9491    8.4564   -0.0002 O.3     1  LIG1       -0.4888
     23 C          -0.3563    9.7409   -0.0002 C.3     1  LIG1        0.0791
     24 H          -1.1727   10.4574   -0.0002 H       1  LIG1        0.0660
     25 H           0.2585    9.8730    0.8950 H       1  LIG1        0.0660
     26 H           0.2586    9.8730   -0.8953 H       1  LIG1        0.0660
@<TRIPOS>BOND
     1    13    10    1
     2    26    23    1
     3    11    10    1
     4    21    20    1
     5    20    15    1
     6    22    23    1
     7    22    16    1
     8    24    23    1
     9    10     9    1
    10    10    12    1
    11     5     4   ar
    12     5     1   ar
    13    23    25    1
    14    15    16   ar
    15    15    14   ar
    16    16    17   ar
    17     6     1    1
    18    17    19    1
    19    17    18   ar
    20    14    18   ar
    21    14     4    1
    22     4     3   ar
    23     1     2   ar
    24     3     2   ar
    25     3     9    1
    26     2     7    1
    27     7     8    1
