@<TRIPOS>MOLECULE
mol_data/opt/m06hf/geoms/mol2/12ga12ga-12ga-12ga-.out
 34 37 0 0 0
SMALL
GASTEIGER

@<TRIPOS>ATOM
      1 C           0.5698    1.8491    0.1402 C.ar    1  LIG1        0.1058
      2 C           1.8966    1.9656   -0.1247 C.ar    1  LIG1        0.0433
      3 C           2.1550    3.3731   -0.2601 C.ar    1  LIG1        0.0005
      4 C           0.9558    3.9821   -0.0529 C.ar    1  LIG1        0.1719
      5 O          -0.0043    3.0601    0.1870 O.2     1  LIG1       -0.4587
      6 H          -0.0645    0.9959    0.3054 H       1  LIG1        0.1041
      7 S           3.0164    0.6181   -0.3733 S.3     1  LIG1       -0.1396
      8 H           3.6134    0.6777    0.8224 H       1  LIG1        0.1072
      9 H           3.0941    3.8455   -0.4892 H       1  LIG1        0.0667
     10 C           0.5219    5.3730   -0.0552 C.ar    1  LIG1        0.1838
     11 C           1.1883    6.5650   -0.1060 C.ar    1  LIG1        0.0544
     12 C           0.1812    7.5851   -0.1006 C.ar    1  LIG1        0.0012
     13 C          -1.0086    6.9270   -0.0354 C.ar    1  LIG1        0.1729
     14 O          -0.8033    5.5912   -0.0133 O.2     1  LIG1       -0.4475
     15 S           2.9370    6.7934   -0.2333 S.3     1  LIG1       -0.1389
     16 H           3.1277    7.2184    1.0212 H       1  LIG1        0.1072
     17 H           0.3347    8.6494   -0.1375 H       1  LIG1        0.0668
     18 C          -2.3950    7.3671    0.0012 C.ar    1  LIG1        0.1838
     19 C          -2.9844    8.5985    0.0743 C.ar    1  LIG1        0.0544
     20 C          -4.3987    8.3636    0.0661 C.ar    1  LIG1        0.0012
     21 C          -4.5469    7.0132   -0.0192 C.ar    1  LIG1        0.1729
     22 O          -3.3370    6.4115   -0.0554 O.2     1  LIG1       -0.4475
     23 S          -2.1661   10.1577    0.2331 S.3     1  LIG1       -0.1389
     24 H          -2.2318   10.4995   -1.0606 H       1  LIG1        0.1072
     25 H          -5.1783    9.1037    0.1150 H       1  LIG1        0.0668
     26 C          -5.7050    6.1313   -0.0852 C.ar    1  LIG1        0.1828
     27 C          -7.0515    6.3546   -0.0982 C.ar    1  LIG1        0.0537
     28 C          -7.6645    5.0578   -0.2057 C.ar    1  LIG1       -0.0099
     29 C          -6.6440    4.1703   -0.2392 C.ar    1  LIG1        0.0938
     30 O          -5.4589    4.8124   -0.1694 O.2     1  LIG1       -0.4587
     31 H          -6.5995    3.0985   -0.3104 H       1  LIG1        0.1030
     32 S          -7.8662    7.9233   -0.0898 S.3     1  LIG1       -0.1389
     33 H          -8.2396    7.8993    1.1961 H       1  LIG1        0.1072
     34 H          -8.7202    4.8522   -0.2551 H       1  LIG1        0.0660
@<TRIPOS>BOND
     1    24    23    1
     2     9     3    1
     3     7     2    1
     4     7     8    1
     5    31    29    1
     6     3     2   ar
     7     3     4   ar
     8    34    28    1
     9    29    28   ar
    10    29    30   ar
    11    15    11    1
    12    15    16    1
    13    28    27   ar
    14    30    26   ar
    15    17    12    1
    16     2     1   ar
    17    11    12   ar
    18    11    10   ar
    19    12    13   ar
    20    27    32    1
    21    27    26   ar
    22    32    33    1
    23    26    21    1
    24    22    21   ar
    25    22    18   ar
    26    10     4    1
    27    10    14   ar
    28     4     5   ar
    29    13    14   ar
    30    13    18    1
    31    21    20   ar
    32    18    19   ar
    33    20    19   ar
    34    20    25    1
    35    19    23    1
    36     1     5   ar
    37     1     6    1
