@<TRIPOS>MOLECULE
mol_data/opt/m06hf/geoms/mol2/12ga12ga-12ga12ga.out
 34 37 0 0 0
SMALL
GASTEIGER

@<TRIPOS>ATOM
      1 C           0.5915    1.8670    0.1646 C.ar    1  LIG1        0.1058
      2 C           1.9186    1.9943   -0.0946 C.ar    1  LIG1        0.0433
      3 C           2.1638    3.4028   -0.2419 C.ar    1  LIG1        0.0005
      4 C           0.9568    4.0016   -0.0496 C.ar    1  LIG1        0.1719
      5 O           0.0048    3.0726    0.1942 O.2     1  LIG1       -0.4587
      6 H          -0.0347    1.0095    0.3372 H       1  LIG1        0.1041
      7 S           3.0508    0.6538   -0.3220 S.3     1  LIG1       -0.1396
      8 H           3.6693    0.7576    0.8597 H       1  LIG1        0.1072
      9 H           3.1012    3.8837   -0.4598 H       1  LIG1        0.0667
     10 C           0.5097    5.3881   -0.0733 C.ar    1  LIG1        0.1838
     11 C           1.1635    6.5837   -0.1801 C.ar    1  LIG1        0.0544
     12 C           0.1497    7.5963   -0.1476 C.ar    1  LIG1        0.0012
     13 C          -1.0318    6.9306   -0.0301 C.ar    1  LIG1        0.1729
     14 O          -0.8142    5.5971    0.0175 O.2     1  LIG1       -0.4475
     15 S           2.9122    6.8358   -0.2313 S.3     1  LIG1       -0.1389
     16 H           3.0049    7.0494   -1.5508 H       1  LIG1        0.1072
     17 H           0.2929    8.6613   -0.2048 H       1  LIG1        0.0668
     18 C          -2.4179    7.3644    0.0566 C.ar    1  LIG1        0.1838
     19 C          -3.0069    8.5955    0.1391 C.ar    1  LIG1        0.0544
     20 C          -4.4197    8.3575    0.1888 C.ar    1  LIG1        0.0012
     21 C          -4.5672    7.0054    0.1408 C.ar    1  LIG1        0.1729
     22 O          -3.3583    6.4055    0.0594 O.2     1  LIG1       -0.4475
     23 S          -2.1964   10.1672    0.1307 S.3     1  LIG1       -0.1389
     24 H          -2.1154   10.3021    1.4616 H       1  LIG1        0.1072
     25 H          -5.1992    9.0964    0.2566 H       1  LIG1        0.0668
     26 C          -5.7279    6.1248    0.1497 C.ar    1  LIG1        0.1828
     27 C          -7.0674    6.3484    0.0070 C.ar    1  LIG1        0.0537
     28 C          -7.6947    5.0587    0.1116 C.ar    1  LIG1       -0.0099
     29 C          -6.6874    4.1736    0.2971 C.ar    1  LIG1        0.0938
     30 O          -5.4983    4.8121    0.3229 O.2     1  LIG1       -0.4587
     31 H          -6.6558    3.1066    0.4256 H       1  LIG1        0.1030
     32 S          -7.8729    7.9082   -0.2078 S.3     1  LIG1       -0.1389
     33 H          -7.8510    7.9132   -1.5472 H       1  LIG1        0.1072
     34 H          -8.7503    4.8559    0.0526 H       1  LIG1        0.0660
@<TRIPOS>BOND
     1    16    15    1
     2    33    32    1
     3     9     3    1
     4     7     2    1
     5     7     8    1
     6     3     2   ar
     7     3     4   ar
     8    15    11    1
     9    32    27    1
    10    17    12    1
    11    11    12   ar
    12    11    10   ar
    13    12    13   ar
    14     2     1   ar
    15    10     4    1
    16    10    14   ar
    17     4     5   ar
    18    13    14   ar
    19    13    18    1
    20    27    28   ar
    21    27    26   ar
    22    34    28    1
    23    18    22   ar
    24    18    19   ar
    25    22    21   ar
    26    28    29   ar
    27    23    19    1
    28    23    24    1
    29    19    20   ar
    30    21    26    1
    31    21    20   ar
    32    26    30   ar
    33     1     5   ar
    34     1     6    1
    35    20    25    1
    36    29    30   ar
    37    29    31    1
