@<TRIPOS>MOLECULE
mol_data/opt/m06hf/geoms/mol2/12ga12ga12ga12ga-.out
 34 37 0 0 0
SMALL
GASTEIGER

@<TRIPOS>ATOM
      1 C           0.5606    1.8389    0.1961 C.ar    1  LIG1        0.1058
      2 C           1.9021    1.9563    0.0191 C.ar    1  LIG1        0.0433
      3 C           2.1699    3.3648   -0.0844 C.ar    1  LIG1        0.0005
      4 C           0.9596    3.9731    0.0474 C.ar    1  LIG1        0.1719
      5 O          -0.0146    3.0503    0.2149 O.2     1  LIG1       -0.4587
      6 H          -0.0832    0.9852    0.3140 H       1  LIG1        0.1041
      7 S           3.0318    0.6072   -0.1656 S.3     1  LIG1       -0.1396
      8 H           3.5895    0.6930    1.0473 H       1  LIG1        0.1072
      9 H           3.1230    3.8397   -0.2385 H       1  LIG1        0.0667
     10 C           0.5282    5.3648    0.0233 C.ar    1  LIG1        0.1838
     11 C           1.1982    6.5557    0.0038 C.ar    1  LIG1        0.0544
     12 C           0.1939    7.5779   -0.0272 C.ar    1  LIG1        0.0012
     13 C          -0.9986    6.9217   -0.0310 C.ar    1  LIG1        0.1729
     14 O          -0.7975    5.5859    0.0068 O.2     1  LIG1       -0.4475
     15 S           2.9490    6.7851    0.0919 S.3     1  LIG1       -0.1389
     16 H           3.1041    7.2203   -1.1650 H       1  LIG1        0.1072
     17 H           0.3500    8.6425   -0.0447 H       1  LIG1        0.0668
     18 C          -2.3840    7.3653   -0.0727 C.ar    1  LIG1        0.1838
     19 C          -2.9705    8.5999   -0.0979 C.ar    1  LIG1        0.0544
     20 C          -4.3838    8.3676   -0.1650 C.ar    1  LIG1        0.0012
     21 C          -4.5346    7.0149   -0.1638 C.ar    1  LIG1        0.1729
     22 O          -3.3274    6.4095   -0.1124 O.2     1  LIG1       -0.4475
     23 S          -2.1430   10.1610   -0.1393 S.3     1  LIG1       -0.1389
     24 H          -2.4272   10.5163    1.1190 H       1  LIG1        0.1072
     25 H          -5.1612    9.1097   -0.2183 H       1  LIG1        0.0668
     26 C          -5.6946    6.1345   -0.2155 C.ar    1  LIG1        0.1828
     27 C          -7.0398    6.3614   -0.2560 C.ar    1  LIG1        0.0537
     28 C          -7.6564    5.0635   -0.3185 C.ar    1  LIG1       -0.0099
     29 C          -6.6389    4.1721   -0.3009 C.ar    1  LIG1        0.0938
     30 O          -5.4523    4.8124   -0.2425 O.2     1  LIG1       -0.4587
     31 H          -6.5976    3.0981   -0.3272 H       1  LIG1        0.1030
     32 S          -7.8487    7.9322   -0.3186 S.3     1  LIG1       -0.1389
     33 H          -8.2650    7.9431    0.9543 H       1  LIG1        0.1072
     34 H          -8.7121    4.8594   -0.3739 H       1  LIG1        0.0660
@<TRIPOS>BOND
     1    16    15    1
     2    34    28    1
     3    31    29    1
     4    32    27    1
     5    32    33    1
     6    28    29   ar
     7    28    27   ar
     8    29    30   ar
     9    27    26   ar
    10    30    26   ar
    11     9     3    1
    12    25    20    1
    13    26    21    1
    14     7     2    1
    15     7     8    1
    16    20    21   ar
    17    20    19   ar
    18    21    22   ar
    19    23    19    1
    20    23    24    1
    21    22    18   ar
    22    19    18   ar
    23     3     2   ar
    24     3     4   ar
    25    18    13    1
    26    17    12    1
    27    13    12   ar
    28    13    14   ar
    29    12    11   ar
    30    11    10   ar
    31    11    15    1
    32    14    10   ar
    33     2     1   ar
    34    10     4    1
    35     4     5   ar
    36     1     5   ar
    37     1     6    1
