@<TRIPOS>MOLECULE
mol_data/opt/m06hf/geoms/mol2/12ga12ga12ga-12ga-.out
 34 37 0 0 0
SMALL
GASTEIGER

@<TRIPOS>ATOM
      1 C           0.5686    1.8572    0.2324 C.ar    1  LIG1        0.1058
      2 C           1.8962    1.9600   -0.0343 C.ar    1  LIG1        0.0433
      3 C           2.1578    3.3601   -0.2276 C.ar    1  LIG1        0.0005
      4 C           0.9593    3.9796   -0.0488 C.ar    1  LIG1        0.1719
      5 O          -0.0030    3.0703    0.2276 O.2     1  LIG1       -0.4587
      6 H          -0.0677    1.0129    0.4314 H       1  LIG1        0.1041
      7 S           3.0136    0.6010   -0.2244 S.3     1  LIG1       -0.1396
      8 H           3.6094    0.7106    0.9682 H       1  LIG1        0.1072
      9 H           3.0980    3.8208   -0.4752 H       1  LIG1        0.0667
     10 C           0.5276    5.3696   -0.1165 C.ar    1  LIG1        0.1838
     11 C           1.1957    6.5563   -0.2290 C.ar    1  LIG1        0.0544
     12 C           0.1901    7.5767   -0.2809 C.ar    1  LIG1        0.0012
     13 C          -1.0007    6.9245   -0.1813 C.ar    1  LIG1        0.1729
     14 O          -0.7973    5.5916   -0.0864 O.2     1  LIG1       -0.4475
     15 S           2.9450    6.7749   -0.3677 S.3     1  LIG1       -0.1389
     16 H           3.1374    7.2554    0.8663 H       1  LIG1        0.1072
     17 H           0.3447    8.6361   -0.3866 H       1  LIG1        0.0668
     18 C          -2.3871    7.3667   -0.1691 C.ar    1  LIG1        0.1838
     19 C          -2.9767    8.5998   -0.1595 C.ar    1  LIG1        0.0544
     20 C          -4.3912    8.3648   -0.1805 C.ar    1  LIG1        0.0012
     21 C          -4.5388    7.0117   -0.1900 C.ar    1  LIG1        0.1729
     22 O          -3.3294    6.4089   -0.1874 O.2     1  LIG1       -0.4475
     23 S          -2.1519   10.1613   -0.2149 S.3     1  LIG1       -0.1389
     24 H          -2.4144   10.5189    1.0478 H       1  LIG1        0.1072
     25 H          -5.1717    9.1054   -0.1989 H       1  LIG1        0.0668
     26 C          -5.6971    6.1280   -0.2194 C.ar    1  LIG1        0.1828
     27 C          -7.0437    6.3503   -0.2350 C.ar    1  LIG1        0.0537
     28 C          -7.6567    5.0505   -0.2951 C.ar    1  LIG1       -0.0099
     29 C          -6.6359    4.1626   -0.3013 C.ar    1  LIG1        0.0938
     30 O          -5.4509    4.8069   -0.2582 O.2     1  LIG1       -0.4587
     31 H          -6.5913    3.0889   -0.3357 H       1  LIG1        0.1030
     32 S          -7.8591    7.9179   -0.2827 S.3     1  LIG1       -0.1389
     33 H          -8.2321    7.9409    1.0035 H       1  LIG1        0.1072
     34 H          -8.7124    4.8430   -0.3341 H       1  LIG1        0.0660
@<TRIPOS>BOND
     1     9     3    1
     2    17    12    1
     3    15    11    1
     4    15    16    1
     5    31    29    1
     6    34    28    1
     7    29    28   ar
     8    29    30   ar
     9    28    27   ar
    10    32    27    1
    11    32    33    1
    12    12    11   ar
    13    12    13   ar
    14    30    26   ar
    15    27    26   ar
    16    11    10   ar
    17     3     4   ar
    18     3     2   ar
    19     7     2    1
    20     7     8    1
    21    26    21    1
    22    23    19    1
    23    23    24    1
    24    25    20    1
    25    21    22   ar
    26    21    20   ar
    27    22    18   ar
    28    13    18    1
    29    13    14   ar
    30    20    19   ar
    31    18    19   ar
    32    10    14   ar
    33    10     4    1
    34     4     5   ar
    35     2     1   ar
    36     5     1   ar
    37     1     6    1
