@<TRIPOS>MOLECULE
mol_data/opt/m06hf/geoms/mol2/12ga12ga-12ga-.out
 26 28 0 0 0
SMALL
GASTEIGER

@<TRIPOS>ATOM
      1 C           0.3949    1.8318   -0.1859 C.ar    1  LIG1        0.1058
      2 C           1.7344    1.9172    0.0193 C.ar    1  LIG1        0.0433
      3 C           2.0215    3.3128    0.2107 C.ar    1  LIG1        0.0005
      4 C           0.8243    3.9486    0.0901 C.ar    1  LIG1        0.1719
      5 O          -0.1611    3.0528   -0.1464 O.2     1  LIG1       -0.4587
      6 H          -0.2605    0.9968   -0.3610 H       1  LIG1        0.1041
      7 S           2.8534    0.5505    0.1277 S.3     1  LIG1       -0.1396
      8 H           3.3709    0.6705   -1.1006 H       1  LIG1        0.1072
      9 H           2.9811    3.7544    0.4146 H       1  LIG1        0.0667
     10 C           0.4226    5.3459    0.1681 C.ar    1  LIG1        0.1838
     11 C           1.1194    6.5122    0.3051 C.ar    1  LIG1        0.0544
     12 C           0.1403    7.5599    0.3359 C.ar    1  LIG1        0.0012
     13 C          -1.0641    6.9413    0.2001 C.ar    1  LIG1        0.1729
     14 O          -0.8983    5.6047    0.1106 O.2     1  LIG1       -0.4475
     15 S           2.8669    6.6678    0.4983 S.3     1  LIG1       -0.1389
     16 H           3.0095    7.6603   -0.3855 H       1  LIG1        0.1072
     17 H           0.3166    8.6155    0.4484 H       1  LIG1        0.0668
     18 C          -2.4348    7.4311    0.1378 C.ar    1  LIG1        0.1828
     19 C          -2.9771    8.6795    0.0269 C.ar    1  LIG1        0.0537
     20 C          -4.4029    8.4915    0.0326 C.ar    1  LIG1       -0.0099
     21 C          -4.5977    7.1568    0.1347 C.ar    1  LIG1        0.0938
     22 O          -3.4139    6.5118    0.2022 O.2     1  LIG1       -0.4587
     23 H          -5.4777    6.5399    0.1761 H       1  LIG1        0.1030
     24 S          -2.1040   10.2163   -0.0372 S.3     1  LIG1       -0.1389
     25 H          -2.2233   10.4086   -1.3581 H       1  LIG1        0.1072
     26 H          -5.1508    9.2632   -0.0294 H       1  LIG1        0.0660
@<TRIPOS>BOND
     1    25    24    1
     2     8     7    1
     3    16    15    1
     4     6     1    1
     5     1     5   ar
     6     1     2   ar
     7     5     4   ar
     8    24    19    1
     9    26    20    1
    10     2     7    1
    11     2     3   ar
    12    19    20   ar
    13    19    18   ar
    14    20    21   ar
    15     4    10    1
    16     4     3   ar
    17    14    10   ar
    18    14    13   ar
    19    21    23    1
    20    21    22   ar
    21    18    13    1
    22    18    22   ar
    23    10    11   ar
    24    13    12   ar
    25     3     9    1
    26    11    12   ar
    27    11    15    1
    28    12    17    1
