@<TRIPOS>MOLECULE
mol_data/opt/m06hf/geoms/mol2/12ga12ga12ga-.out
 26 28 0 0 0
SMALL
GASTEIGER

@<TRIPOS>ATOM
      1 C           0.4057    1.8491   -0.1079 C.ar    1  LIG1        0.1058
      2 C           1.7590    1.9541   -0.0794 C.ar    1  LIG1        0.0433
      3 C           2.0507    3.3608   -0.0417 C.ar    1  LIG1        0.0005
      4 C           0.8393    3.9813   -0.0425 C.ar    1  LIG1        0.1719
      5 O          -0.1565    3.0676   -0.0879 O.2     1  LIG1       -0.4587
      6 H          -0.2558    1.0010   -0.1463 H       1  LIG1        0.1041
      7 S           2.8993    0.6039   -0.1703 S.3     1  LIG1       -0.1396
      8 H           3.2930    0.6459    1.1077 H       1  LIG1        0.1072
      9 H           3.0197    3.8275   -0.0182 H       1  LIG1        0.0667
     10 C           0.4315    5.3800   -0.0132 C.ar    1  LIG1        0.1838
     11 C           1.1224    6.5574    0.0542 C.ar    1  LIG1        0.0544
     12 C           0.1366    7.5984    0.0513 C.ar    1  LIG1        0.0012
     13 C          -1.0661    6.9667   -0.0268 C.ar    1  LIG1        0.1729
     14 O          -0.8886    5.6267   -0.0612 O.2     1  LIG1       -0.4475
     15 S           2.8725    6.7489    0.2101 S.3     1  LIG1       -0.1389
     16 H           3.1035    7.0998   -1.0614 H       1  LIG1        0.1072
     17 H           0.3128    8.6586    0.0988 H       1  LIG1        0.0668
     18 C          -2.4437    7.4373   -0.0737 C.ar    1  LIG1        0.1828
     19 C          -3.0062    8.6803   -0.1257 C.ar    1  LIG1        0.0537
     20 C          -4.4282    8.4679   -0.1597 C.ar    1  LIG1       -0.0099
     21 C          -4.6014    7.1266   -0.1177 C.ar    1  LIG1        0.0938
     22 O          -3.4071    6.4994   -0.0679 O.2     1  LIG1       -0.4587
     23 H          -5.4707    6.4935   -0.1194 H       1  LIG1        0.1030
     24 S          -2.1600   10.2297   -0.2239 S.3     1  LIG1       -0.1389
     25 H          -2.2817   10.5513    1.0700 H       1  LIG1        0.1072
     26 H          -5.1876    9.2288   -0.2144 H       1  LIG1        0.0660
@<TRIPOS>BOND
     1    16    15    1
     2    24    19    1
     3    24    25    1
     4    26    20    1
     5     7     2    1
     6     7     8    1
     7    20    19   ar
     8    20    21   ar
     9     6     1    1
    10    19    18   ar
    11    23    21    1
    12    21    22   ar
    13     1     5   ar
    14     1     2   ar
    15     5     4   ar
    16     2     3   ar
    17    18    22   ar
    18    18    13    1
    19    14    13   ar
    20    14    10   ar
    21     4     3   ar
    22     4    10    1
    23     3     9    1
    24    13    12   ar
    25    10    11   ar
    26    12    11   ar
    27    12    17    1
    28    11    15    1
