@<TRIPOS>MOLECULE
mol_data/opt/m06hf/geoms/mol2/12ga12ga-12ga.out
 26 28 0 0 0
SMALL
GASTEIGER

@<TRIPOS>ATOM
      1 C           0.4281    1.8624   -0.2177 C.ar    1  LIG1        0.1058
      2 C           1.7644    1.9537    0.0067 C.ar    1  LIG1        0.0433
      3 C           2.0396    3.3480    0.2210 C.ar    1  LIG1        0.0005
      4 C           0.8395    3.9773    0.0953 C.ar    1  LIG1        0.1719
      5 O          -0.1369    3.0784   -0.1670 O.2     1  LIG1       -0.4587
      6 H          -0.2187    1.0256   -0.4147 H       1  LIG1        0.1041
      7 S           2.8903    0.5923    0.1100 S.3     1  LIG1       -0.1396
      8 H           3.4337    0.7422   -1.1039 H       1  LIG1        0.1072
      9 H           2.9906    3.7980    0.4449 H       1  LIG1        0.0667
     10 C           0.4239    5.3708    0.1901 C.ar    1  LIG1        0.1838
     11 C           1.1033    6.5424    0.3710 C.ar    1  LIG1        0.0544
     12 C           0.1123    7.5789    0.3909 C.ar    1  LIG1        0.0012
     13 C          -1.0805    6.9510    0.2075 C.ar    1  LIG1        0.1729
     14 O          -0.8946    5.6168    0.0931 O.2     1  LIG1       -0.4475
     15 S           2.8404    6.7189    0.6396 S.3     1  LIG1       -0.1389
     16 H           3.1129    7.3378   -0.5149 H       1  LIG1        0.1072
     17 H           0.2769    8.6330    0.5311 H       1  LIG1        0.0668
     18 C          -2.4563    7.4229    0.1239 C.ar    1  LIG1        0.1828
     19 C          -3.0134    8.6659    0.0286 C.ar    1  LIG1        0.0537
     20 C          -4.4364    8.4588    0.0025 C.ar    1  LIG1       -0.0099
     21 C          -4.6148    7.1197    0.0722 C.ar    1  LIG1        0.0938
     22 O          -3.4237    6.4892    0.1497 O.2     1  LIG1       -0.4587
     23 H          -5.4868    6.4904    0.0832 H       1  LIG1        0.1030
     24 S          -2.1600   10.2150    0.0153 S.3     1  LIG1       -0.1389
     25 H          -2.2506   10.4309   -1.3039 H       1  LIG1        0.1072
     26 H          -5.1934    9.2217   -0.0573 H       1  LIG1        0.0660
@<TRIPOS>BOND
     1    25    24    1
     2     8     7    1
     3    16    15    1
     4     6     1    1
     5     1     5   ar
     6     1     2   ar
     7     5     4   ar
     8    26    20    1
     9    20    19   ar
    10    20    21   ar
    11     2     7    1
    12     2     3   ar
    13    24    19    1
    14    19    18   ar
    15    21    23    1
    16    21    22   ar
    17    14    10   ar
    18    14    13   ar
    19     4    10    1
    20     4     3   ar
    21    18    22   ar
    22    18    13    1
    23    10    11   ar
    24    13    12   ar
    25     3     9    1
    26    11    12   ar
    27    11    15    1
    28    12    17    1
