@<TRIPOS>MOLECULE
mol_data/opt/m06hf/geoms/mol2/12ga12ga12ga12ga.out
 34 37 0 0 0
SMALL
GASTEIGER

@<TRIPOS>ATOM
      1 C           0.5632    1.8426    0.2270 C.ar    1  LIG1        0.1058
      2 C           1.9037    1.9587    0.0429 C.ar    1  LIG1        0.0433
      3 C           2.1705    3.3661   -0.0768 C.ar    1  LIG1        0.0005
      4 C           0.9606    3.9753    0.0538 C.ar    1  LIG1        0.1719
      5 O          -0.0125    3.0540    0.2355 O.2     1  LIG1       -0.4587
      6 H          -0.0799    0.9901    0.3568 H       1  LIG1        0.1041
      7 S           3.0333    0.6081   -0.1323 S.3     1  LIG1       -0.1396
      8 H           3.5961    0.7070    1.0772 H       1  LIG1        0.1072
      9 H           3.1228    3.8396   -0.2401 H       1  LIG1        0.0667
     10 C           0.5285    5.3665    0.0167 C.ar    1  LIG1        0.1838
     11 C           1.1979    6.5574   -0.0186 C.ar    1  LIG1        0.0544
     12 C           0.1930    7.5788   -0.0562 C.ar    1  LIG1        0.0012
     13 C          -0.9991    6.9222   -0.0476 C.ar    1  LIG1        0.1729
     14 O          -0.7974    5.5869    0.0036 O.2     1  LIG1       -0.4475
     15 S           2.9490    6.7883    0.0594 S.3     1  LIG1       -0.1389
     16 H           3.0985    7.2101   -1.2027 H       1  LIG1        0.1072
     17 H           0.3487    8.6432   -0.0859 H       1  LIG1        0.0668
     18 C          -2.3849    7.3648   -0.0879 C.ar    1  LIG1        0.1838
     19 C          -2.9722    8.5987   -0.1234 C.ar    1  LIG1        0.0544
     20 C          -4.3856    8.3651   -0.1820 C.ar    1  LIG1        0.0012
     21 C          -4.5357    7.0124   -0.1662 C.ar    1  LIG1        0.1729
     22 O          -3.3280    6.4081   -0.1138 O.2     1  LIG1       -0.4475
     23 S          -2.1455   10.1596   -0.1844 S.3     1  LIG1       -0.1389
     24 H          -2.4246   10.5278    1.0714 H       1  LIG1        0.1072
     25 H          -5.1636    9.1063   -0.2396 H       1  LIG1        0.0668
     26 C          -5.6954    6.1310   -0.2037 C.ar    1  LIG1        0.1828
     27 C          -7.0410    6.3568   -0.2411 C.ar    1  LIG1        0.0537
     28 C          -7.6571    5.0581   -0.2874 C.ar    1  LIG1       -0.0099
     29 C          -6.6391    4.1673   -0.2646 C.ar    1  LIG1        0.0938
     30 O          -5.4526    4.8088   -0.2178 O.2     1  LIG1       -0.4587
     31 H          -6.5974    3.0931   -0.2798 H       1  LIG1        0.1030
     32 S          -7.8508    7.9265   -0.3169 S.3     1  LIG1       -0.1389
     33 H          -8.2619    7.9506    0.9575 H       1  LIG1        0.1072
     34 H          -8.7129    4.8528   -0.3362 H       1  LIG1        0.0660
@<TRIPOS>BOND
     1    16    15    1
     2    34    28    1
     3    32    27    1
     4    32    33    1
     5    28    29   ar
     6    28    27   ar
     7    31    29    1
     8    29    30   ar
     9    27    26   ar
    10     9     3    1
    11    25    20    1
    12    30    26   ar
    13    26    21    1
    14    23    19    1
    15    23    24    1
    16    20    21   ar
    17    20    19   ar
    18    21    22   ar
    19     7     2    1
    20     7     8    1
    21    19    18   ar
    22    22    18   ar
    23    18    13    1
    24    17    12    1
    25     3     2   ar
    26     3     4   ar
    27    12    13   ar
    28    12    11   ar
    29    13    14   ar
    30    11    10   ar
    31    11    15    1
    32    14    10   ar
    33    10     4    1
    34     2     1   ar
    35     4     5   ar
    36     1     5   ar
    37     1     6    1
