@<TRIPOS>MOLECULE
mol_data/opt/m06hf/geoms/mol2/12ga.out
 10 10 0 0 0
SMALL
GASTEIGER

@<TRIPOS>ATOM
      1 C           0.1520    1.9402   -0.0000 C.ar    1  LIG1        0.1048
      2 C           1.5067    1.9258    0.0000 C.ar    1  LIG1        0.0425
      3 C           1.9163    3.3085   -0.0001 C.ar    1  LIG1       -0.0107
      4 C           0.7691    4.0278   -0.0000 C.ar    1  LIG1        0.0928
      5 O          -0.3003    3.2124   -0.0002 O.2     1  LIG1       -0.4699
      6 H          -0.5876    1.1595   -0.0000 H       1  LIG1        0.1040
      7 H           0.5684    5.0843   -0.0001 H       1  LIG1        0.1029
      8 S           2.5240    0.4764    0.0001 S.3     1  LIG1       -0.1396
      9 H           3.6817    1.1439    0.0003 H       1  LIG1        0.1072
     10 H           2.9237    3.6898   -0.0001 H       1  LIG1        0.0660
@<TRIPOS>BOND
     1     5     4   ar
     2     5     1   ar
     3    10     3    1
     4     3     4   ar
     5     3     2   ar
     6     7     4    1
     7     1     6    1
     8     1     2   ar
     9     2     8    1
    10     8     9    1
