@<TRIPOS>MOLECULE
mol_data/opt/m06hf/geoms/mol2/12ga12ga-.out
 18 19 0 0 0
SMALL
GASTEIGER

@<TRIPOS>ATOM
      1 C           0.3354    1.9317   -0.3110 C.ar    1  LIG1        0.1058
      2 C           1.6819    1.9968   -0.1502 C.ar    1  LIG1        0.0433
      3 C           1.9961    3.3887    0.0282 C.ar    1  LIG1        0.0005
      4 C           0.8042    4.0401   -0.0347 C.ar    1  LIG1        0.1718
      5 O          -0.2022    3.1593   -0.2427 O.2     1  LIG1       -0.4587
      6 H          -0.3364    1.1079   -0.4782 H       1  LIG1        0.1041
      7 S           2.7998    0.6263   -0.2255 S.3     1  LIG1       -0.1396
      8 H           2.9373    0.4621    1.0959 H       1  LIG1        0.1072
      9 H           2.9672    3.8253    0.1826 H       1  LIG1        0.0667
     10 C           0.4238    5.4445    0.0720 C.ar    1  LIG1        0.1827
     11 C           1.1363    6.6087    0.0664 C.ar    1  LIG1        0.0537
     12 C           0.1702    7.6635    0.2218 C.ar    1  LIG1       -0.0099
     13 C          -1.0340    7.0516    0.2957 C.ar    1  LIG1        0.0938
     14 O          -0.8871    5.7118    0.2092 O.2     1  LIG1       -0.4587
     15 H          -2.0412    7.4110    0.4088 H       1  LIG1        0.1030
     16 S           2.8922    6.7801   -0.0476 S.3     1  LIG1       -0.1389
     17 H           2.9362    7.0332   -1.3610 H       1  LIG1        0.1072
     18 H           0.3785    8.7183    0.2689 H       1  LIG1        0.0660
@<TRIPOS>BOND
     1    17    16    1
     2     6     1    1
     3     1     5   ar
     4     1     2   ar
     5     5     4   ar
     6     7     2    1
     7     7     8    1
     8     2     3   ar
     9    16    11    1
    10     4     3   ar
    11     4    10    1
    12     3     9    1
    13    11    10   ar
    14    11    12   ar
    15    10    14   ar
    16    14    13   ar
    17    12    18    1
    18    12    13   ar
    19    13    15    1
