@<TRIPOS>MOLECULE
mol_data/opt/m06hf/geoms/mol2/12ga12ga-12ga12ga-.out
 34 37 0 0 0
SMALL
GASTEIGER

@<TRIPOS>ATOM
      1 C           0.6161    1.8789   -0.4611 C.ar    1  LIG1        0.1058
      2 C           1.9544    2.0015   -0.2654 C.ar    1  LIG1        0.0433
      3 C           2.1957    3.3956   -0.0126 C.ar    1  LIG1        0.0005
      4 C           0.9728    3.9902   -0.0719 C.ar    1  LIG1        0.1719
      5 O           0.0175    3.0746   -0.3496 O.2     1  LIG1       -0.4587
      6 H          -0.0100    1.0331   -0.6840 H       1  LIG1        0.1041
      7 S           3.1342    0.6918   -0.4097 S.3     1  LIG1       -0.1396
      8 H           3.4447    0.6144    0.8901 H       1  LIG1        0.1072
      9 H           3.1407    3.8710    0.1831 H       1  LIG1        0.0667
     10 C           0.5185    5.3651    0.0891 C.ar    1  LIG1        0.1838
     11 C           1.1671    6.5458    0.3208 C.ar    1  LIG1        0.0544
     12 C           0.1499    7.5534    0.3853 C.ar    1  LIG1        0.0012
     13 C          -1.0266    6.9019    0.1743 C.ar    1  LIG1        0.1729
     14 O          -0.8050    5.5796    0.0013 O.2     1  LIG1       -0.4475
     15 S           2.9045    6.7701    0.5619 S.3     1  LIG1       -0.1389
     16 H           3.1533    7.3116   -0.6362 H       1  LIG1        0.1072
     17 H           0.2869    8.6045    0.5698 H       1  LIG1        0.0668
     18 C          -2.4106    7.3442    0.0902 C.ar    1  LIG1        0.1838
     19 C          -2.9910    8.5786   -0.0048 C.ar    1  LIG1        0.0544
     20 C          -4.4051    8.3505   -0.0547 C.ar    1  LIG1        0.0012
     21 C          -4.5624    6.9996    0.0038 C.ar    1  LIG1        0.1729
     22 O          -3.3580    6.3920    0.0938 O.2     1  LIG1       -0.4475
     23 S          -2.1694   10.1450   -0.0094 S.3     1  LIG1       -0.1389
     24 H          -2.1220   10.2911   -1.3405 H       1  LIG1        0.1072
     25 H          -5.1787    9.0941   -0.1306 H       1  LIG1        0.0668
     26 C          -5.7277    6.1255   -0.0031 C.ar    1  LIG1        0.1828
     27 C          -7.0718    6.3623   -0.0304 C.ar    1  LIG1        0.0537
     28 C          -7.6999    5.0685   -0.0169 C.ar    1  LIG1       -0.0099
     29 C          -6.6892    4.1696    0.0260 C.ar    1  LIG1        0.0938
     30 O          -5.4966    4.8020    0.0319 O.2     1  LIG1       -0.4587
     31 H          -6.6565    3.0952    0.0507 H       1  LIG1        0.1030
     32 S          -7.8738    7.9351   -0.1324 S.3     1  LIG1       -0.1389
     33 H          -8.1215    8.0722    1.1763 H       1  LIG1        0.1072
     34 H          -8.7584    4.8725   -0.0405 H       1  LIG1        0.0660
@<TRIPOS>BOND
     1    24    23    1
     2     6     1    1
     3    16    15    1
     4     1     5   ar
     5     1     2   ar
     6     7     2    1
     7     7     8    1
     8     5     4   ar
     9     2     3   ar
    10    32    27    1
    11    32    33    1
    12    25    20    1
    13     4     3   ar
    14     4    10    1
    15    20    19   ar
    16    20    21   ar
    17    34    28    1
    18    27    28   ar
    19    27    26   ar
    20    28    29   ar
    21     3     9    1
    22    23    19    1
    23    19    18   ar
    24    26    21    1
    25    26    30   ar
    26    14    10   ar
    27    14    13   ar
    28    21    22   ar
    29    29    30   ar
    30    29    31    1
    31    10    11   ar
    32    18    22   ar
    33    18    13    1
    34    13    12   ar
    35    11    12   ar
    36    11    15    1
    37    12    17    1
