@<TRIPOS>MOLECULE
mol_data/opt/m06hf/geoms/mol2/12ga12ga-12ga-12ga.out
 34 37 0 0 0
SMALL
GASTEIGER

@<TRIPOS>ATOM
      1 C           0.5766    1.8520    0.1535 C.ar    1  LIG1        0.1058
      2 C           1.9017    1.9662   -0.1208 C.ar    1  LIG1        0.0433
      3 C           2.1593    3.3725   -0.2700 C.ar    1  LIG1        0.0005
      4 C           0.9613    3.9833   -0.0607 C.ar    1  LIG1        0.1719
      5 O           0.0028    3.0633    0.1934 O.2     1  LIG1       -0.4587
      6 H          -0.0566    1.0002    0.3300 H       1  LIG1        0.1041
      7 S           3.0197    0.6165   -0.3655 S.3     1  LIG1       -0.1396
      8 H           3.6237    0.6848    0.8262 H       1  LIG1        0.1072
      9 H           3.0967    3.8430   -0.5092 H       1  LIG1        0.0667
     10 C           0.5269    5.3740   -0.0728 C.ar    1  LIG1        0.1838
     11 C           1.1921    6.5658   -0.1426 C.ar    1  LIG1        0.0544
     12 C           0.1847    7.5856   -0.1361 C.ar    1  LIG1        0.0012
     13 C          -1.0040    6.9275   -0.0517 C.ar    1  LIG1        0.1729
     14 O          -0.7978    5.5922   -0.0185 O.2     1  LIG1       -0.4475
     15 S           2.9395    6.7931   -0.2892 S.3     1  LIG1       -0.1389
     16 H           3.1425    7.2270    0.9602 H       1  LIG1        0.1072
     17 H           0.3365    8.6496   -0.1871 H       1  LIG1        0.0668
     18 C          -2.3908    7.3662   -0.0036 C.ar    1  LIG1        0.1838
     19 C          -2.9820    8.5962    0.0731 C.ar    1  LIG1        0.0544
     20 C          -4.3960    8.3584    0.0798 C.ar    1  LIG1        0.0012
     21 C          -4.5420    7.0075   -0.0023 C.ar    1  LIG1        0.1729
     22 O          -3.3317    6.4080   -0.0463 O.2     1  LIG1       -0.4475
     23 S          -2.1610   10.1553    0.2160 S.3     1  LIG1       -0.1389
     24 H          -2.4128   10.5692   -1.0315 H       1  LIG1        0.1072
     25 H          -5.1776    9.0960    0.1353 H       1  LIG1        0.0668
     26 C          -5.6993    6.1242   -0.0620 C.ar    1  LIG1        0.1828
     27 C          -7.0460    6.3462   -0.0749 C.ar    1  LIG1        0.0537
     28 C          -7.6580    5.0486   -0.1786 C.ar    1  LIG1       -0.0099
     29 C          -6.6366    4.1620   -0.2105 C.ar    1  LIG1        0.0938
     30 O          -5.4521    4.8053   -0.1427 O.2     1  LIG1       -0.4587
     31 H          -6.5912    3.0900   -0.2792 H       1  LIG1        0.1030
     32 S          -7.8627    7.9140   -0.0711 S.3     1  LIG1       -0.1389
     33 H          -8.2288    7.8973    1.2171 H       1  LIG1        0.1072
     34 H          -8.7135    4.8420   -0.2271 H       1  LIG1        0.0660
@<TRIPOS>BOND
     1    24    23    1
     2     9     3    1
     3     7     2    1
     4     7     8    1
     5    15    11    1
     6    15    16    1
     7    31    29    1
     8     3     2   ar
     9     3     4   ar
    10    34    28    1
    11    29    28   ar
    12    29    30   ar
    13    17    12    1
    14    28    27   ar
    15    30    26   ar
    16    11    12   ar
    17    11    10   ar
    18    12    13   ar
    19     2     1   ar
    20    27    32    1
    21    27    26   ar
    22    10     4    1
    23    10    14   ar
    24    32    33    1
    25    26    21    1
    26     4     5   ar
    27    13    14   ar
    28    13    18    1
    29    22    18   ar
    30    22    21   ar
    31    18    19   ar
    32    21    20   ar
    33    19    20   ar
    34    19    23    1
    35    20    25    1
    36     1     5   ar
    37     1     6    1
