@<TRIPOS>MOLECULE
mol_data/opt/m06hf/geoms/mol2/12ga12ga.out
 18 19 0 0 0
SMALL
GASTEIGER

@<TRIPOS>ATOM
      1 C           0.3386    1.9258    0.2645 C.ar    1  LIG1        0.1058
      2 C           1.6901    2.0091    0.1661 C.ar    1  LIG1        0.0433
      3 C           1.9945    3.4061    0.0150 C.ar    1  LIG1        0.0005
      4 C           0.7926    4.0427    0.0294 C.ar    1  LIG1        0.1718
      5 O          -0.2106    3.1481    0.1841 O.2     1  LIG1       -0.4587
      6 H          -0.3299    1.0926    0.3943 H       1  LIG1        0.1041
      7 S           2.8189    0.6547    0.3097 S.3     1  LIG1       -0.1396
      8 H           3.1258    0.5644   -0.9898 H       1  LIG1        0.1072
      9 H           2.9658    3.8558   -0.0926 H       1  LIG1        0.0667
     10 C           0.4002    5.4439   -0.0730 C.ar    1  LIG1        0.1827
     11 C           1.1072    6.6106   -0.1262 C.ar    1  LIG1        0.0537
     12 C           0.1288    7.6607   -0.2210 C.ar    1  LIG1       -0.0099
     13 C          -1.0754    7.0443   -0.2081 C.ar    1  LIG1        0.0938
     14 O          -0.9176    5.7059   -0.1190 O.2     1  LIG1       -0.4587
     15 H          -2.0894    7.3993   -0.2546 H       1  LIG1        0.1030
     16 S           2.8655    6.7950   -0.1402 S.3     1  LIG1       -0.1389
     17 H           3.0226    6.8861    1.1876 H       1  LIG1        0.1072
     18 H           0.3300    8.7157   -0.2893 H       1  LIG1        0.0660
@<TRIPOS>BOND
     1     8     7    1
     2    18    12    1
     3    15    13    1
     4    12    13   ar
     5    12    11   ar
     6    13    14   ar
     7    16    11    1
     8    16    17    1
     9    11    10   ar
    10    14    10   ar
    11     9     3    1
    12    10     4    1
    13     3     4   ar
    14     3     2   ar
    15     4     5   ar
    16     2     1   ar
    17     2     7    1
    18     5     1   ar
    19     1     6    1
