@<TRIPOS>MOLECULE
mol_data/opt/m06hf/geoms/mol2/12ga12ga12ga-12ga.out
 34 37 0 0 0
SMALL
GASTEIGER

@<TRIPOS>ATOM
      1 C           0.5747    1.8627    0.2516 C.ar    1  LIG1        0.1058
      2 C           1.9004    1.9644   -0.0254 C.ar    1  LIG1        0.0433
      3 C           2.1590    3.3628   -0.2339 C.ar    1  LIG1        0.0005
      4 C           0.9611    3.9827   -0.0526 C.ar    1  LIG1        0.1719
      5 O           0.0017    3.0751    0.2392 O.2     1  LIG1       -0.4587
      6 H          -0.0592    1.0196    0.4630 H       1  LIG1        0.1041
      7 S           3.0179    0.6048   -0.2104 S.3     1  LIG1       -0.1396
      8 H           3.6220    0.7264    0.9769 H       1  LIG1        0.1072
      9 H           3.0969    3.8222   -0.4924 H       1  LIG1        0.0667
     10 C           0.5274    5.3715   -0.1305 C.ar    1  LIG1        0.1838
     11 C           1.1934    6.5578   -0.2593 C.ar    1  LIG1        0.0544
     12 C           0.1863    7.5766   -0.3139 C.ar    1  LIG1        0.0012
     13 C          -1.0031    6.9242   -0.1995 C.ar    1  LIG1        0.1729
     14 O          -0.7976    5.5925   -0.0932 O.2     1  LIG1       -0.4475
     15 S           2.9413    6.7769   -0.4126 S.3     1  LIG1       -0.1389
     16 H           3.1421    7.2692    0.8154 H       1  LIG1        0.1072
     17 H           0.3389    8.6351   -0.4309 H       1  LIG1        0.0668
     18 C          -2.3899    7.3650   -0.1818 C.ar    1  LIG1        0.1838
     19 C          -2.9808    8.5976   -0.1798 C.ar    1  LIG1        0.0544
     20 C          -4.3951    8.3609   -0.1885 C.ar    1  LIG1        0.0012
     21 C          -4.5413    7.0076   -0.1841 C.ar    1  LIG1        0.1729
     22 O          -3.3312    6.4061   -0.1842 O.2     1  LIG1       -0.4475
     23 S          -2.1581   10.1592   -0.2560 S.3     1  LIG1       -0.1389
     24 H          -2.4122   10.5287    1.0050 H       1  LIG1        0.1072
     25 H          -5.1766    9.1004   -0.2086 H       1  LIG1        0.0668
     26 C          -5.6987    6.1224   -0.1968 C.ar    1  LIG1        0.1828
     27 C          -7.0457    6.3432   -0.2049 C.ar    1  LIG1        0.0537
     28 C          -7.6577    5.0422   -0.2483 C.ar    1  LIG1       -0.0099
     29 C          -6.6360    4.1554   -0.2534 C.ar    1  LIG1        0.0938
     30 O          -5.4514    4.8013   -0.2249 O.2     1  LIG1       -0.4587
     31 H          -6.5905    3.0814   -0.2780 H       1  LIG1        0.1030
     32 S          -7.8632    7.9094   -0.2617 S.3     1  LIG1       -0.1389
     33 H          -8.2270    7.9444    1.0270 H       1  LIG1        0.1072
     34 H          -8.7135    4.8333   -0.2779 H       1  LIG1        0.0660
@<TRIPOS>BOND
     1     9     3    1
     2    17    12    1
     3    15    11    1
     4    15    16    1
     5    12    11   ar
     6    12    13   ar
     7    31    29    1
     8    34    28    1
     9    32    27    1
    10    32    33    1
    11    11    10   ar
    12    23    19    1
    13    23    24    1
    14    29    28   ar
    15    29    30   ar
    16    28    27   ar
    17     3     4   ar
    18     3     2   ar
    19    30    26   ar
    20     7     2    1
    21     7     8    1
    22    25    20    1
    23    27    26   ar
    24    13    18    1
    25    13    14   ar
    26    26    21    1
    27    20    21   ar
    28    20    19   ar
    29    22    21   ar
    30    22    18   ar
    31    18    19   ar
    32    10    14   ar
    33    10     4    1
    34     4     5   ar
    35     2     1   ar
    36     5     1   ar
    37     1     6    1
