@<TRIPOS>MOLECULE
mol_data/opt/m06hf/geoms/mol2/12ga12ga12ga.out
 26 28 0 0 0
SMALL
GASTEIGER

@<TRIPOS>ATOM
      1 C           0.4051    1.8488   -0.1028 C.ar    1  LIG1        0.1058
      2 C           1.7584    1.9537   -0.0756 C.ar    1  LIG1        0.0433
      3 C           2.0504    3.3604   -0.0409 C.ar    1  LIG1        0.0005
      4 C           0.8391    3.9810   -0.0418 C.ar    1  LIG1        0.1719
      5 O          -0.1569    3.0674   -0.0847 O.2     1  LIG1       -0.4587
      6 H          -0.2565    1.0007   -0.1391 H       1  LIG1        0.1041
      7 S           2.8985    0.6032   -0.1650 S.3     1  LIG1       -0.1396
      8 H           3.2933    0.6476    1.1127 H       1  LIG1        0.1072
      9 H           3.0195    3.8270   -0.0190 H       1  LIG1        0.0667
     10 C           0.4315    5.3799   -0.0148 C.ar    1  LIG1        0.1838
     11 C           1.1226    6.5573    0.0498 C.ar    1  LIG1        0.0544
     12 C           0.1370    7.5984    0.0458 C.ar    1  LIG1        0.0012
     13 C          -1.0659    6.9667   -0.0300 C.ar    1  LIG1        0.1729
     14 O          -0.8887    5.6267   -0.0621 O.2     1  LIG1       -0.4475
     15 S           2.8729    6.7488    0.2038 S.3     1  LIG1       -0.1389
     16 H           3.1028    7.0973   -1.0686 H       1  LIG1        0.1072
     17 H           0.3134    8.6587    0.0912 H       1  LIG1        0.0668
     18 C          -2.4435    7.4375   -0.0766 C.ar    1  LIG1        0.1828
     19 C          -3.0059    8.6805   -0.1306 C.ar    1  LIG1        0.0537
     20 C          -4.4279    8.4682   -0.1629 C.ar    1  LIG1       -0.0099
     21 C          -4.6013    7.1270   -0.1181 C.ar    1  LIG1        0.0938
     22 O          -3.4070    6.4997   -0.0681 O.2     1  LIG1       -0.4587
     23 H          -5.4707    6.4940   -0.1177 H       1  LIG1        0.1030
     24 S          -2.1596   10.2296   -0.2325 S.3     1  LIG1       -0.1389
     25 H          -2.2801   10.5536    1.0609 H       1  LIG1        0.1072
     26 H          -5.1873    9.2291   -0.2184 H       1  LIG1        0.0660
@<TRIPOS>BOND
     1    16    15    1
     2    24    19    1
     3    24    25    1
     4    26    20    1
     5     7     2    1
     6     7     8    1
     7    20    19   ar
     8    20    21   ar
     9     6     1    1
    10    19    18   ar
    11    21    23    1
    12    21    22   ar
    13     1     5   ar
    14     1     2   ar
    15     5     4   ar
    16    18    22   ar
    17    18    13    1
    18     2     3   ar
    19    14    13   ar
    20    14    10   ar
    21     4     3   ar
    22     4    10    1
    23     3     9    1
    24    13    12   ar
    25    10    11   ar
    26    12    11   ar
    27    12    17    1
    28    11    15    1
