@<TRIPOS>MOLECULE
mol_data/opt/m06hf/geoms/mol2/12gd12gd12gd12gd-.out
 38 41 0 0 0
SMALL
GASTEIGER

@<TRIPOS>ATOM
      1 C           0.8652    1.6964    0.2103 C.ar    1  LIG1        0.1071
      2 C           2.1495    1.9100   -0.1645 C.ar    1  LIG1        0.0607
      3 C           2.2867    3.3455   -0.2382 C.ar    1  LIG1        0.1136
      4 C           1.0727    3.8627    0.1067 C.ar    1  LIG1        0.1892
      5 O           0.2163    2.8651    0.3792 O.2     1  LIG1       -0.4573
      6 H           0.3076    0.7947    0.3929 H       1  LIG1        0.1041
      7 S           3.3928    0.6780   -0.3886 S.3     1  LIG1       -0.1383
      8 H           3.5322    0.8502   -1.7089 H       1  LIG1        0.1072
      9 N           4.3516    4.6626   -1.0476 N.1     1  LIG1       -0.1907
     10 C           3.4351    4.0810   -0.6754 C.1     1  LIG1        0.1042
     11 C           0.5883    5.2273    0.2408 C.ar    1  LIG1        0.1864
     12 C           1.1739    6.3685    0.7004 C.ar    1  LIG1        0.0719
     13 C           0.1467    7.3751    0.5975 C.ar    1  LIG1        0.1144
     14 C          -0.9613    6.7543    0.0940 C.ar    1  LIG1        0.1902
     15 O          -0.6925    5.4630   -0.1310 O.2     1  LIG1       -0.4461
     16 S           2.8118    6.5770    1.3113 S.3     1  LIG1       -0.1376
     17 H           2.4199    7.2897    2.3750 H       1  LIG1        0.1073
     18 N           0.3351    9.7977    1.4595 N.1     1  LIG1       -0.1907
     19 C           0.2415    8.7265    1.0587 C.1     1  LIG1        0.1042
     20 C          -2.2985    7.2325   -0.2107 C.ar    1  LIG1        0.1864
     21 C          -2.7699    8.4230   -0.6788 C.ar    1  LIG1        0.0719
     22 C          -4.1977    8.2412   -0.7628 C.ar    1  LIG1        0.1144
     23 C          -4.4586    6.9667   -0.3454 C.ar    1  LIG1        0.1902
     24 O          -3.3163    6.3612   -0.0049 O.2     1  LIG1       -0.4461
     25 S          -1.8588    9.8654   -1.1114 S.3     1  LIG1       -0.1376
     26 H          -2.6435   10.1513   -2.1581 H       1  LIG1        0.1073
     27 N          -5.8718    9.9399   -1.7434 N.1     1  LIG1       -0.1907
     28 C          -5.1395    9.1794   -1.2932 C.1     1  LIG1        0.1042
     29 C          -5.6954    6.2185   -0.2004 C.ar    1  LIG1        0.1854
     30 C          -6.9477    6.5781    0.1980 C.ar    1  LIG1        0.0712
     31 C          -7.7105    5.3530    0.1438 C.ar    1  LIG1        0.1033
     32 C          -6.8553    4.3774   -0.2636 C.ar    1  LIG1        0.1112
     33 O          -5.6460    4.8920   -0.4816 O.2     1  LIG1       -0.4573
     34 H          -6.9875    3.3231   -0.4340 H       1  LIG1        0.1043
     35 S          -7.5260    8.1680    0.6794 S.3     1  LIG1       -0.1376
     36 H          -8.3717    7.6797    1.5951 H       1  LIG1        0.1073
     37 N         -10.1938    5.1031    0.7954 N.1     1  LIG1       -0.1907
     38 C          -9.0913    5.1985    0.4934 C.1     1  LIG1        0.1034
@<TRIPOS>BOND
     1    26    25    1
     2    27    28    3
     3     8     7    1
     4    28    22    1
     5    25    21    1
     6     9    10    3
     7    22    21   ar
     8    22    23   ar
     9    21    20   ar
    10    10     3    1
    11    33    32   ar
    12    33    29   ar
    13    34    32    1
    14     7     2    1
    15    23    29    1
    16    23    24   ar
    17    32    31   ar
    18     3     2   ar
    19     3     4   ar
    20    20    24   ar
    21    20    14    1
    22    29    30   ar
    23     2     1   ar
    24    15    14   ar
    25    15    11   ar
    26    14    13   ar
    27     4    11    1
    28     4     5   ar
    29    31    30   ar
    30    31    38    1
    31    30    35    1
    32     1     5   ar
    33     1     6    1
    34    11    12   ar
    35    38    37    3
    36    13    12   ar
    37    13    19    1
    38    35    36    1
    39    12    16    1
    40    19    18    3
    41    16    17    1
