@<TRIPOS>MOLECULE
mol_data/opt/m06hf/geoms/mol2/12gd12gd12gd-12gd-.out
 38 41 0 0 0
SMALL
GASTEIGER

@<TRIPOS>ATOM
      1 C           0.9501    2.1024    1.7160 C.ar    1  LIG1        0.1071
      2 C           1.9214    1.8938    0.7949 C.ar    1  LIG1        0.0607
      3 C           1.9476    3.0962   -0.0038 C.ar    1  LIG1        0.1136
      4 C           1.0029    3.9257    0.5244 C.ar    1  LIG1        0.1892
      5 O           0.3948    3.3196    1.5563 O.2     1  LIG1       -0.4573
      6 H           0.5641    1.4874    2.5100 H       1  LIG1        0.1041
      7 S           2.8472    0.4114    0.5599 S.3     1  LIG1       -0.1383
      8 H           4.0288    0.9315    0.9064 H       1  LIG1        0.1072
      9 N           3.3911    3.5470   -2.0932 N.1     1  LIG1       -0.1907
     10 C           2.7511    3.3499   -1.1615 C.1     1  LIG1        0.1042
     11 C           0.5777    5.2728    0.1777 C.ar    1  LIG1        0.1864
     12 C           1.2647    6.3760   -0.2317 C.ar    1  LIG1        0.0719
     13 C           0.2544    7.3860   -0.4273 C.ar    1  LIG1        0.1144
     14 C          -0.9395    6.8149   -0.0911 C.ar    1  LIG1        0.1902
     15 O          -0.7475    5.5382    0.2607 O.2     1  LIG1       -0.4461
     16 S           2.9961    6.5308   -0.5123 S.3     1  LIG1       -0.1376
     17 H           3.0854    7.7219    0.0935 H       1  LIG1        0.1073
     18 N           0.6459    9.7715   -1.3251 N.1     1  LIG1       -0.1907
     19 C           0.4610    8.7123   -0.9242 C.1     1  LIG1        0.1042
     20 C          -2.2998    7.3272   -0.0594 C.ar    1  LIG1        0.1864
     21 C          -2.8261    8.5316    0.2990 C.ar    1  LIG1        0.0719
     22 C          -4.2453    8.3884    0.0873 C.ar    1  LIG1        0.1144
     23 C          -4.4498    7.1097   -0.3490 C.ar    1  LIG1        0.1902
     24 O          -3.2769    6.4746   -0.4501 O.2     1  LIG1       -0.4461
     25 S          -1.9706    9.9637    0.8590 S.3     1  LIG1       -0.1376
     26 H          -2.8758   10.2578    1.7986 H       1  LIG1        0.1073
     27 N          -6.0135   10.2408    0.3950 N.1     1  LIG1       -0.1907
     28 C          -5.2350    9.4091    0.2552 C.1     1  LIG1        0.1042
     29 C          -5.6469    6.3641   -0.6989 C.ar    1  LIG1        0.1854
     30 C          -6.9102    6.3445   -0.1911 C.ar    1  LIG1        0.0712
     31 C          -7.6035    5.3540   -0.9815 C.ar    1  LIG1        0.1033
     32 C          -6.7018    4.8639   -1.8734 C.ar    1  LIG1        0.1112
     33 O          -5.5279    5.4736   -1.7149 O.2     1  LIG1       -0.4573
     34 H          -6.7740    4.1129   -2.6410 H       1  LIG1        0.1043
     35 S          -7.5764    7.3021    1.1260 S.3     1  LIG1       -0.1376
     36 H          -8.3439    6.3048    1.5821 H       1  LIG1        0.1073
     37 N         -10.0538    4.6231   -0.6416 N.1     1  LIG1       -0.1907
     38 C          -8.9659    4.9427   -0.8147 C.1     1  LIG1        0.1034
@<TRIPOS>BOND
     1    34    32    1
     2     9    10    3
     3    32    33   ar
     4    32    31   ar
     5    33    29   ar
     6    18    19    3
     7    10     3    1
     8    31    38    1
     9    31    30   ar
    10    19    13    1
    11    38    37    3
    12    29    23    1
    13    29    30   ar
    14    16    12    1
    15    16    17    1
    16    24    23   ar
    17    24    20   ar
    18    13    12   ar
    19    13    14   ar
    20    23    22   ar
    21    12    11   ar
    22    30    35    1
    23    14    20    1
    24    14    15   ar
    25    20    21   ar
    26     3     4   ar
    27     3     2   ar
    28    22    28    1
    29    22    21   ar
    30    11    15   ar
    31    11     4    1
    32    28    27    3
    33    21    25    1
    34     4     5   ar
    35     7     2    1
    36     7     8    1
    37     2     1   ar
    38    25    26    1
    39    35    36    1
    40     5     1   ar
    41     1     6    1
