@<TRIPOS>MOLECULE
mol_data/opt/m06hf/geoms/mol2/12gd12gd-.out
 20 21 0 0 0
SMALL
GASTEIGER

@<TRIPOS>ATOM
      1 C           0.3068    1.8852   -0.5766 C.ar    1  LIG1        0.1071
      2 C           1.6183    1.8758   -0.2384 C.ar    1  LIG1        0.0607
      3 C           1.9303    3.2446    0.1001 C.ar    1  LIG1        0.1136
      4 C           0.7789    3.9541   -0.0748 C.ar    1  LIG1        0.1892
      5 O          -0.1986    3.1323   -0.4885 O.2     1  LIG1       -0.4573
      6 H          -0.3635    1.1054   -0.8927 H       1  LIG1        0.1041
      7 S           2.7106    0.4942   -0.3159 S.3     1  LIG1       -0.1383
      8 H           3.0160    0.4789    0.9870 H       1  LIG1        0.1072
      9 N           4.1662    4.1080    1.0542 N.1     1  LIG1       -0.1907
     10 C           3.1721    3.7365    0.6166 C.1     1  LIG1        0.1042
     11 C           0.4580    5.3640    0.0814 C.ar    1  LIG1        0.1853
     12 C           1.1608    6.5017   -0.1747 C.ar    1  LIG1        0.0712
     13 C           0.2624    7.5744    0.1830 C.ar    1  LIG1        0.1033
     14 C          -0.8927    6.9924    0.6020 C.ar    1  LIG1        0.1112
     15 O          -0.7771    5.6648    0.5536 O.2     1  LIG1       -0.4573
     16 H          -1.8270    7.3993    0.9477 H       1  LIG1        0.1043
     17 S           2.8046    6.6441   -0.7872 S.3     1  LIG1       -0.1376
     18 H           2.5160    7.6594   -1.6122 H       1  LIG1        0.1073
     19 N           0.7625   10.0964   -0.0391 N.1     1  LIG1       -0.1907
     20 C           0.5297    8.9785    0.0732 C.1     1  LIG1        0.1034
@<TRIPOS>BOND
     1    18    17    1
     2     6     1    1
     3    17    12    1
     4     1     5   ar
     5     1     2   ar
     6     5     4   ar
     7     7     2    1
     8     7     8    1
     9     2     3   ar
    10    12    11   ar
    11    12    13   ar
    12     4    11    1
    13     4     3   ar
    14    19    20    3
    15    20    13    1
    16    11    15   ar
    17     3    10    1
    18    13    14   ar
    19    15    14   ar
    20    14    16    1
    21    10     9    3
