@<TRIPOS>MOLECULE
mol_data/opt/m06hf/geoms/mol2/12gd12gd-12gd-12gd-.out
 38 41 0 0 0
SMALL
GASTEIGER

@<TRIPOS>ATOM
      1 C           0.8668    1.6959   -0.2219 C.ar    1  LIG1        0.1071
      2 C           2.1455    1.9078    0.1726 C.ar    1  LIG1        0.0607
      3 C           2.2821    3.3430    0.2526 C.ar    1  LIG1        0.1136
      4 C           1.0736    3.8618   -0.1089 C.ar    1  LIG1        0.1892
      5 O           0.2210    2.8653   -0.3971 O.2     1  LIG1       -0.4573
      6 H           0.3117    0.7949   -0.4155 H       1  LIG1        0.1041
      7 S           3.3848    0.6746    0.4116 S.3     1  LIG1       -0.1383
      8 H           3.5045    0.8428    1.7343 H       1  LIG1        0.1072
      9 N           4.3352    4.6569    1.0965 N.1     1  LIG1       -0.1907
     10 C           3.4241    4.0768    0.7090 C.1     1  LIG1        0.1042
     11 C           0.5918    5.2269   -0.2462 C.ar    1  LIG1        0.1864
     12 C           1.1845    6.3692   -0.6938 C.ar    1  LIG1        0.0719
     13 C           0.1562    7.3759   -0.6034 C.ar    1  LIG1        0.1144
     14 C          -0.9593    6.7541   -0.1182 C.ar    1  LIG1        0.1902
     15 O          -0.6943    5.4621    0.1072 O.2     1  LIG1       -0.4461
     16 S           2.8313    6.5788   -1.2799 S.3     1  LIG1       -0.1376
     17 H           2.4553    7.2943   -2.3475 H       1  LIG1        0.1073
     18 N           0.3582    9.8009   -1.4556 N.1     1  LIG1       -0.1907
     19 C           0.2583    8.7285   -1.0593 C.1     1  LIG1        0.1042
     20 C          -2.3008    7.2320    0.1679 C.ar    1  LIG1        0.1864
     21 C          -2.7787    8.4214    0.6321 C.ar    1  LIG1        0.0719
     22 C          -4.2077    8.2400    0.6940 C.ar    1  LIG1        0.1144
     23 C          -4.4628    6.9668    0.2690 C.ar    1  LIG1        0.1902
     24 O          -3.3157    6.3617   -0.0558 O.2     1  LIG1       -0.4461
     25 S          -1.8736    9.8621    1.0824 S.3     1  LIG1       -0.1376
     26 H          -2.6738   10.1454    2.1181 H       1  LIG1        0.1073
     27 N          -5.8959    9.9365    1.6539 N.1     1  LIG1       -0.1907
     28 C          -5.1571    9.1770    1.2128 C.1     1  LIG1        0.1042
     29 C          -5.6976    6.2196    0.1031 C.ar    1  LIG1        0.1854
     30 C          -6.9435    6.5810   -0.3134 C.ar    1  LIG1        0.0712
     31 C          -7.7075    5.3561   -0.2743 C.ar    1  LIG1        0.1033
     32 C          -6.8591    4.3789    0.1431 C.ar    1  LIG1        0.1112
     33 O          -5.6530    4.8923    0.3811 O.2     1  LIG1       -0.4573
     34 H          -6.9943    3.3241    0.3084 H       1  LIG1        0.1043
     35 S          -7.5136    8.1725   -0.7989 S.3     1  LIG1       -0.1376
     36 H          -8.3457    7.6873   -1.7286 H       1  LIG1        0.1073
     37 N         -10.1807    5.1093   -0.9645 N.1     1  LIG1       -0.1907
     38 C          -9.0829    5.2033   -0.6455 C.1     1  LIG1        0.1034
@<TRIPOS>BOND
     1    17    16    1
     2    36    35    1
     3    18    19    3
     4    16    12    1
     5    19    13    1
     6    37    38    3
     7    35    30    1
     8    12    13   ar
     9    12    11   ar
    10    38    31    1
    11    13    14   ar
    12     6     1    1
    13     5     1   ar
    14     5     4   ar
    15    30    31   ar
    16    30    29   ar
    17    31    32   ar
    18    11     4    1
    19    11    15   ar
    20     1     2   ar
    21    14    15   ar
    22    14    20    1
    23     4     3   ar
    24    24    20   ar
    25    24    23   ar
    26    29    23    1
    27    29    33   ar
    28    32    34    1
    29    32    33   ar
    30    20    21   ar
    31     2     3   ar
    32     2     7    1
    33     3    10    1
    34    23    22   ar
    35     7     8    1
    36    21    22   ar
    37    21    25    1
    38    22    28    1
    39    10     9    3
    40    25    26    1
    41    28    27    3
