@<TRIPOS>MOLECULE
mol_data/opt/m06hf/geoms/mol2/12gd12gd-12gd12gd.out
 38 41 0 0 0
SMALL
GASTEIGER

@<TRIPOS>ATOM
      1 C           0.8718    1.6997    0.2159 C.ar    1  LIG1        0.1071
      2 C           2.1504    1.9129   -0.1782 C.ar    1  LIG1        0.0607
      3 C           2.2853    3.3482   -0.2593 C.ar    1  LIG1        0.1136
      4 C           1.0759    3.8658    0.1012 C.ar    1  LIG1        0.1892
      5 O           0.2244    2.8685    0.3897 O.2     1  LIG1       -0.4573
      6 H           0.3177    0.7982    0.4098 H       1  LIG1        0.1041
      7 S           3.3914    0.6811   -0.4157 S.3     1  LIG1       -0.1383
      8 H           3.5114    0.8484   -1.7385 H       1  LIG1        0.1072
      9 N           4.3371    4.6640   -1.1032 N.1     1  LIG1       -0.1907
     10 C           3.4266    4.0831   -0.7157 C.1     1  LIG1        0.1042
     11 C           0.5924    5.2304    0.2371 C.ar    1  LIG1        0.1864
     12 C           1.1836    6.3738    0.6839 C.ar    1  LIG1        0.0719
     13 C           0.1540    7.3792    0.5922 C.ar    1  LIG1        0.1144
     14 C          -0.9606    6.7556    0.1072 C.ar    1  LIG1        0.1902
     15 O          -0.6939    5.4636   -0.1169 O.2     1  LIG1       -0.4461
     16 S           2.8299    6.5861    1.2702 S.3     1  LIG1       -0.1376
     17 H           2.4528    7.3022    2.3370 H       1  LIG1        0.1073
     18 N           0.3530    9.8052    1.4422 N.1     1  LIG1       -0.1907
     19 C           0.2544    8.7324    1.0469 C.1     1  LIG1        0.1042
     20 C          -2.3025    7.2315   -0.1799 C.ar    1  LIG1        0.1864
     21 C          -2.7817    8.4199   -0.6454 C.ar    1  LIG1        0.0719
     22 C          -4.2104    8.2367   -0.7079 C.ar    1  LIG1        0.1144
     23 C          -4.4641    6.9635   -0.2821 C.ar    1  LIG1        0.1902
     24 O          -3.3164    6.3601    0.0439 O.2     1  LIG1       -0.4461
     25 S          -1.8783    9.8614   -1.0968 S.3     1  LIG1       -0.1376
     26 H          -2.6784   10.1426   -2.1330 H       1  LIG1        0.1073
     27 N          -5.9000    9.9302   -1.6705 N.1     1  LIG1       -0.1907
     28 C          -5.1606    9.1720   -1.2281 C.1     1  LIG1        0.1042
     29 C          -5.6980    6.2148   -0.1164 C.ar    1  LIG1        0.1854
     30 C          -6.9447    6.5750    0.2988 C.ar    1  LIG1        0.0712
     31 C          -7.7072    5.3491    0.2601 C.ar    1  LIG1        0.1033
     32 C          -6.8573    4.3726   -0.1561 C.ar    1  LIG1        0.1112
     33 O          -5.6517    4.8873   -0.3936 O.2     1  LIG1       -0.4573
     34 H          -6.9911    3.3176   -0.3208 H       1  LIG1        0.1043
     35 S          -7.5171    8.1662    0.7827 S.3     1  LIG1       -0.1376
     36 H          -8.3488    7.6807    1.7126 H       1  LIG1        0.1073
     37 N         -10.1806    5.0999    0.9487 N.1     1  LIG1       -0.1907
     38 C          -9.0827    5.1950    0.6304 C.1     1  LIG1        0.1034
@<TRIPOS>BOND
     1    26    25    1
     2     8     7    1
     3    27    28    3
     4    28    22    1
     5     9    10    3
     6    25    21    1
     7    10     3    1
     8    22    21   ar
     9    22    23   ar
    10    21    20   ar
    11     7     2    1
    12    33    32   ar
    13    33    29   ar
    14    34    32    1
    15    23    29    1
    16    23    24   ar
    17     3     2   ar
    18     3     4   ar
    19    20    24   ar
    20    20    14    1
    21     2     1   ar
    22    32    31   ar
    23    15    14   ar
    24    15    11   ar
    25    29    30   ar
    26     4    11    1
    27     4     5   ar
    28    14    13   ar
    29     1     5   ar
    30     1     6    1
    31    11    12   ar
    32    31    30   ar
    33    31    38    1
    34    30    35    1
    35    13    12   ar
    36    13    19    1
    37    38    37    3
    38    12    16    1
    39    35    36    1
    40    19    18    3
    41    16    17    1
