@<TRIPOS>MOLECULE
mol_data/opt/m06hf/geoms/mol2/12gd12gd-12gd-.out
 29 31 0 0 0
SMALL
GASTEIGER

@<TRIPOS>ATOM
      1 C           0.5878    1.7641   -0.5759 C.ar    1  LIG1        0.1071
      2 C           1.7720    1.8609    0.0753 C.ar    1  LIG1        0.0607
      3 C           1.9603    3.2734    0.3068 C.ar    1  LIG1        0.1136
      4 C           0.8732    3.8969   -0.2320 C.ar    1  LIG1        0.1892
      5 O           0.0486    2.9840   -0.7694 O.2     1  LIG1       -0.4573
      6 H           0.0365    0.9194   -0.9496 H       1  LIG1        0.1041
      7 S           2.8715    0.5356    0.4605 S.3     1  LIG1       -0.1383
      8 H           2.7742    0.6529    1.7908 H       1  LIG1        0.1072
      9 N           3.8772    4.3664    1.6424 N.1     1  LIG1       -0.1907
     10 C           3.0268    3.8894    1.0372 C.1     1  LIG1        0.1042
     11 C           0.4865    5.2961   -0.3159 C.ar    1  LIG1        0.1864
     12 C           1.2035    6.4369   -0.5187 C.ar    1  LIG1        0.0719
     13 C           0.2233    7.4939   -0.4973 C.ar    1  LIG1        0.1144
     14 C          -0.9893    6.9007   -0.2906 C.ar    1  LIG1        0.1902
     15 O          -0.8304    5.5771   -0.1698 O.2     1  LIG1       -0.4461
     16 S           2.9395    6.5970   -0.7651 S.3     1  LIG1       -0.1376
     17 H           2.8093    7.4170   -1.8145 H       1  LIG1        0.1073
     18 N           0.6671    9.9841   -0.9991 N.1     1  LIG1       -0.1907
     19 C           0.4613    8.8805   -0.7610 C.1     1  LIG1        0.1042
     20 C          -2.3336    7.4390   -0.1718 C.ar    1  LIG1        0.1854
     21 C          -2.8226    8.5737    0.4015 C.ar    1  LIG1        0.0712
     22 C          -4.2485    8.5042    0.1842 C.ar    1  LIG1        0.1033
     23 C          -4.4863    7.3418   -0.4799 C.ar    1  LIG1        0.1112
     24 O          -3.3391    6.7021   -0.7062 O.2     1  LIG1       -0.4573
     25 H          -5.3922    6.8823   -0.8348 H       1  LIG1        0.1043
     26 S          -1.9299    9.8497    1.2210 S.3     1  LIG1       -0.1376
     27 H          -2.8651   10.0239    2.1624 H       1  LIG1        0.1073
     28 N          -5.9761   10.2375    1.0009 N.1     1  LIG1       -0.1907
     29 C          -5.2202    9.4614    0.6239 C.1     1  LIG1        0.1034
@<TRIPOS>BOND
     1    17    16    1
     2    18    19    3
     3     6     1    1
     4    25    23    1
     5     5     1   ar
     6     5     4   ar
     7    16    12    1
     8    19    13    1
     9    24    23   ar
    10    24    20   ar
    11     1     2   ar
    12    12    13   ar
    13    12    11   ar
    14    13    14   ar
    15    23    22   ar
    16    11     4    1
    17    11    15   ar
    18    14    20    1
    19    14    15   ar
    20     4     3   ar
    21    20    21   ar
    22     2     3   ar
    23     2     7    1
    24    22    21   ar
    25    22    29    1
    26     3    10    1
    27    21    26    1
    28     7     8    1
    29    29    28    3
    30    10     9    3
    31    26    27    1
