@<TRIPOS>MOLECULE
mol_data/opt/m06hf/geoms/mol2/12gd12gd12gd12gd.out
 38 41 0 0 0
SMALL
GASTEIGER

@<TRIPOS>ATOM
      1 C           0.8626    1.6943    0.2046 C.ar    1  LIG1        0.1071
      2 C           2.1476    1.9082   -0.1679 C.ar    1  LIG1        0.0607
      3 C           2.2855    3.3438   -0.2376 C.ar    1  LIG1        0.1136
      4 C           1.0714    3.8607    0.1073 C.ar    1  LIG1        0.1892
      5 O           0.2141    2.8628    0.3760 O.2     1  LIG1       -0.4573
      6 H           0.3043    0.7923    0.3841 H       1  LIG1        0.1041
      7 S           3.3904    0.6761   -0.3939 S.3     1  LIG1       -0.1383
      8 H           3.5317    0.8521   -1.7136 H       1  LIG1        0.1072
      9 N           4.3521    4.6620   -1.0409 N.1     1  LIG1       -0.1907
     10 C           3.4349    4.0799   -0.6713 C.1     1  LIG1        0.1042
     11 C           0.5876    5.2252    0.2445 C.ar    1  LIG1        0.1864
     12 C           1.1732    6.3648    0.7080 C.ar    1  LIG1        0.0719
     13 C           0.1466    7.3722    0.6065 C.ar    1  LIG1        0.1144
     14 C          -0.9610    6.7535    0.0998 C.ar    1  LIG1        0.1902
     15 O          -0.6926    5.4626   -0.1284 O.2     1  LIG1       -0.4461
     16 S           2.8104    6.5707    1.3216 S.3     1  LIG1       -0.1376
     17 H           2.4177    7.2806    2.3869 H       1  LIG1        0.1073
     18 N           0.3354    9.7923    1.4756 N.1     1  LIG1       -0.1907
     19 C           0.2416    8.7223    1.0716 C.1     1  LIG1        0.1042
     20 C          -2.2975    7.2332   -0.2055 C.ar    1  LIG1        0.1864
     21 C          -2.7677    8.4253   -0.6706 C.ar    1  LIG1        0.0719
     22 C          -4.1955    8.2444   -0.7572 C.ar    1  LIG1        0.1144
     23 C          -4.4575    6.9688   -0.3439 C.ar    1  LIG1        0.1902
     24 O          -3.3160    6.3617   -0.0037 O.2     1  LIG1       -0.4461
     25 S          -1.8554    9.8685   -1.0977 S.3     1  LIG1       -0.1376
     26 H          -2.6383   10.1579   -2.1447 H       1  LIG1        0.1073
     27 N          -5.8674    9.9466   -1.7353 N.1     1  LIG1       -0.1907
     28 C          -5.1361    9.1845   -1.2863 C.1     1  LIG1        0.1042
     29 C          -5.6949    6.2207   -0.2029 C.ar    1  LIG1        0.1854
     30 C          -6.9476    6.5798    0.1948 C.ar    1  LIG1        0.0712
     31 C          -7.7108    5.3552    0.1359 C.ar    1  LIG1        0.1033
     32 C          -6.8556    4.3803   -0.2731 C.ar    1  LIG1        0.1112
     33 O          -5.6457    4.8950   -0.4880 O.2     1  LIG1       -0.4573
     34 H          -6.9880    3.3266   -0.4469 H       1  LIG1        0.1043
     35 S          -7.5258    8.1684    0.6800 S.3     1  LIG1       -0.1376
     36 H          -8.3730    7.6779    1.5930 H       1  LIG1        0.1073
     37 N         -10.1952    5.1047    0.7833 N.1     1  LIG1       -0.1907
     38 C          -9.0922    5.2004    0.4832 C.1     1  LIG1        0.1034
@<TRIPOS>BOND
     1    26    25    1
     2    27    28    3
     3     8     7    1
     4    28    22    1
     5    25    21    1
     6     9    10    3
     7    22    21   ar
     8    22    23   ar
     9    10     3    1
    10    21    20   ar
    11    33    32   ar
    12    33    29   ar
    13    34    32    1
    14     7     2    1
    15    23    29    1
    16    23    24   ar
    17    32    31   ar
    18     3     2   ar
    19     3     4   ar
    20    20    24   ar
    21    20    14    1
    22    29    30   ar
    23     2     1   ar
    24    15    14   ar
    25    15    11   ar
    26    14    13   ar
    27     4    11    1
    28     4     5   ar
    29    31    30   ar
    30    31    38    1
    31    30    35    1
    32     1     5   ar
    33     1     6    1
    34    11    12   ar
    35    38    37    3
    36    13    12   ar
    37    13    19    1
    38    35    36    1
    39    12    16    1
    40    19    18    3
    41    16    17    1
