@<TRIPOS>MOLECULE
mol_data/opt/m06hf/geoms/mol2/12gd12gd.out
 20 21 0 0 0
SMALL
GASTEIGER

@<TRIPOS>ATOM
      1 C           0.3116    1.8749    0.5697 C.ar    1  LIG1        0.1071
      2 C           1.6262    1.8705    0.2443 C.ar    1  LIG1        0.0607
      3 C           1.9379    3.2418   -0.0847 C.ar    1  LIG1        0.1136
      4 C           0.7827    3.9475    0.0816 C.ar    1  LIG1        0.1892
      5 O          -0.1963    3.1211    0.4823 O.2     1  LIG1       -0.4573
      6 H          -0.3598    1.0919    0.8754 H       1  LIG1        0.1041
      7 S           2.7210    0.4909    0.3223 S.3     1  LIG1       -0.1383
      8 H           3.0330    0.4816   -0.9791 H       1  LIG1        0.1072
      9 N           4.1815    4.1164   -1.0097 N.1     1  LIG1       -0.1907
     10 C           3.1837    3.7391   -0.5858 C.1     1  LIG1        0.1042
     11 C           0.4582    5.3562   -0.0742 C.ar    1  LIG1        0.1853
     12 C           1.1554    6.4975    0.1815 C.ar    1  LIG1        0.0712
     13 C           0.2506    7.5650   -0.1767 C.ar    1  LIG1        0.1033
     14 C          -0.9015    6.9772   -0.5957 C.ar    1  LIG1        0.1112
     15 O          -0.7793    5.6512   -0.5467 O.2     1  LIG1       -0.4573
     16 H          -1.8378    7.3800   -0.9408 H       1  LIG1        0.1043
     17 S           2.7920    6.6578    0.8064 S.3     1  LIG1       -0.1376
     18 H           2.5155    7.7728    1.4952 H       1  LIG1        0.1073
     19 N           0.7468   10.0867    0.0550 N.1     1  LIG1       -0.1907
     20 C           0.5124    8.9697   -0.0634 C.1     1  LIG1        0.1034
@<TRIPOS>BOND
     1     9    10    3
     2     8     7    1
     3    16    14    1
     4    14    15   ar
     5    14    13   ar
     6    10     3    1
     7    15    11   ar
     8    13    20    1
     9    13    12   ar
    10     3     4   ar
    11     3     2   ar
    12    11     4    1
    13    11    12   ar
    14    20    19    3
    15     4     5   ar
    16    12    17    1
    17     2     7    1
    18     2     1   ar
    19     5     1   ar
    20     1     6    1
    21    17    18    1
