@<TRIPOS>MOLECULE
mol_data/opt/m06hf/geoms/mol2/12gd12gd12gd-12gd.out
 38 41 0 0 0
SMALL
GASTEIGER

@<TRIPOS>ATOM
      1 C           1.0320    2.1926    1.8322 C.ar    1  LIG1        0.1071
      2 C           1.9923    1.9758    0.9014 C.ar    1  LIG1        0.0607
      3 C           2.0160    3.1754    0.0987 C.ar    1  LIG1        0.1136
      4 C           1.0697    4.0051    0.6240 C.ar    1  LIG1        0.1892
      5 O           0.4806    3.4118    1.6741 O.2     1  LIG1       -0.4573
      6 H           0.6581    1.5858    2.6381 H       1  LIG1        0.1041
      7 S           3.0355    0.5587    0.7800 S.3     1  LIG1       -0.1383
      8 H           2.5647    0.1411   -0.4005 H       1  LIG1        0.1072
      9 N           3.4147    3.6032   -2.0258 N.1     1  LIG1       -0.1907
     10 C           2.8008    3.4186   -1.0740 C.1     1  LIG1        0.1042
     11 C           0.6264    5.3409    0.2562 C.ar    1  LIG1        0.1864
     12 C           1.2988    6.4458   -0.1725 C.ar    1  LIG1        0.0719
     13 C           0.2751    7.4383   -0.3866 C.ar    1  LIG1        0.1144
     14 C          -0.9115    6.8564   -0.0431 C.ar    1  LIG1        0.1902
     15 O          -0.7028    5.5891    0.3322 O.2     1  LIG1       -0.4461
     16 S           3.0275    6.6152   -0.4599 S.3     1  LIG1       -0.1376
     17 H           3.1078    7.8113    0.1375 H       1  LIG1        0.1073
     18 N           0.6311    9.8146   -1.3228 N.1     1  LIG1       -0.1907
     19 C           0.4628    8.7591   -0.9053 C.1     1  LIG1        0.1042
     20 C          -2.2797    7.3487   -0.0288 C.ar    1  LIG1        0.1864
     21 C          -2.8270    8.5502    0.3069 C.ar    1  LIG1        0.0719
     22 C          -4.2418    8.3833    0.0825 C.ar    1  LIG1        0.1144
     23 C          -4.4231    7.0960   -0.3381 C.ar    1  LIG1        0.1902
     24 O          -3.2400    6.4766   -0.4177 O.2     1  LIG1       -0.4461
     25 S          -1.9974   10.0029    0.8530 S.3     1  LIG1       -0.1376
     26 H          -2.9123   10.2944    1.7841 H       1  LIG1        0.1073
     27 N          -6.0409   10.2127    0.3459 N.1     1  LIG1       -0.1907
     28 C          -5.2482    9.3914    0.2258 C.1     1  LIG1        0.1042
     29 C          -5.6050    6.3286   -0.6930 C.ar    1  LIG1        0.1854
     30 C          -6.8741    6.2968   -0.2010 C.ar    1  LIG1        0.0712
     31 C          -7.5433    5.2875   -0.9886 C.ar    1  LIG1        0.1033
     32 C          -6.6234    4.8003   -1.8634 C.ar    1  LIG1        0.1112
     33 O          -5.4604    5.4285   -1.6973 O.2     1  LIG1       -0.4573
     34 H          -6.6754    4.0397   -2.6232 H       1  LIG1        0.1043
     35 S          -7.5703    7.2603    1.0959 S.3     1  LIG1       -0.1376
     36 H          -8.3291    6.2576    1.5548 H       1  LIG1        0.1073
     37 N          -9.9869    4.5242   -0.6726 N.1     1  LIG1       -0.1907
     38 C          -8.9016    4.8583   -0.8346 C.1     1  LIG1        0.1034
@<TRIPOS>BOND
     1    34    32    1
     2     9    10    3
     3    32    33   ar
     4    32    31   ar
     5    33    29   ar
     6    18    19    3
     7    10     3    1
     8    31    38    1
     9    31    30   ar
    10    19    13    1
    11    38    37    3
    12    29    23    1
    13    29    30   ar
    14    16    12    1
    15    16    17    1
    16    24    23   ar
    17    24    20   ar
    18     8     7    1
    19    13    12   ar
    20    13    14   ar
    21    23    22   ar
    22    30    35    1
    23    12    11   ar
    24    14    20    1
    25    14    15   ar
    26    20    21   ar
    27    22    28    1
    28    22    21   ar
    29     3     4   ar
    30     3     2   ar
    31    28    27    3
    32    11    15   ar
    33    11     4    1
    34    21    25    1
    35     4     5   ar
    36     7     2    1
    37    25    26    1
    38     2     1   ar
    39    35    36    1
    40     5     1   ar
    41     1     6    1
