@<TRIPOS>MOLECULE
mol_data/opt/m06hf/geoms/mol2/12gd12gd-12gd12gd-.out
 38 41 0 0 0
SMALL
GASTEIGER

@<TRIPOS>ATOM
      1 C           0.1338    1.8401    0.0021 C.ar    1  LIG1        0.1071
      2 C           1.4835    1.7534    0.0013 C.ar    1  LIG1        0.0607
      3 C           1.9513    3.1207    0.0001 C.ar    1  LIG1        0.1136
      4 C           0.8336    3.9136    0.0004 C.ar    1  LIG1        0.1892
      5 O          -0.2542    3.1356    0.0015 O.2     1  LIG1       -0.4573
      6 H          -0.6470    1.1015    0.0031 H       1  LIG1        0.1041
      7 S           2.4573    0.2833    0.0015 S.3     1  LIG1       -0.1383
      8 H           3.6324    0.9212    0.0013 H       1  LIG1        0.1072
      9 N           4.4756    3.6289   -0.0018 N.1     1  LIG1       -0.1907
     10 C           3.3387    3.4680   -0.0010 C.1     1  LIG1        0.1042
     11 C           0.5734    5.3451   -0.0002 C.ar    1  LIG1        0.1864
     12 C           1.3360    6.4765   -0.0010 C.ar    1  LIG1        0.0719
     13 C           0.3850    7.5636   -0.0010 C.ar    1  LIG1        0.1144
     14 C          -0.8654    7.0016   -0.0003 C.ar    1  LIG1        0.1902
     15 O          -0.7445    5.6733    0.0001 O.2     1  LIG1       -0.4461
     16 S           3.0842    6.6544   -0.0017 S.3     1  LIG1       -0.1376
     17 H           3.0255    7.9910   -0.0020 H       1  LIG1        0.1073
     18 N           1.2157   10.0000   -0.0028 N.1     1  LIG1       -0.1907
     19 C           0.7811    8.9372   -0.0019 C.1     1  LIG1        0.1042
     20 C          -2.2292    7.5031    0.0000 C.ar    1  LIG1        0.1864
     21 C          -2.8155    8.7366    0.0008 C.ar    1  LIG1        0.0719
     22 C          -4.2347    8.4700    0.0007 C.ar    1  LIG1        0.1144
     23 C          -4.3867    7.1080   -0.0001 C.ar    1  LIG1        0.1902
     24 O          -3.1830    6.5354   -0.0004 O.2     1  LIG1       -0.4461
     25 S          -2.0772   10.3295    0.0018 S.3     1  LIG1       -0.1376
     26 H          -3.2558   10.9663    0.0034 H       1  LIG1        0.1073
     27 N          -5.9072   10.4261    0.0019 N.1     1  LIG1       -0.1907
     28 C          -5.2154    9.5095    0.0013 C.1     1  LIG1        0.1042
     29 C          -5.5122    6.1878   -0.0007 C.ar    1  LIG1        0.1854
     30 C          -6.8729    6.3098   -0.0005 C.ar    1  LIG1        0.0712
     31 C          -7.3569    4.9494   -0.0016 C.ar    1  LIG1        0.1033
     32 C          -6.2652    4.1399   -0.0023 C.ar    1  LIG1        0.1112
     33 O          -5.1593    4.8742   -0.0017 O.2     1  LIG1       -0.4573
     34 H          -6.1568    3.0694   -0.0031 H       1  LIG1        0.1043
     35 S          -7.8761    7.7524    0.0005 S.3     1  LIG1       -0.1376
     36 H          -9.0232    7.0617    0.0002 H       1  LIG1        0.1073
     37 N          -9.8493    4.2845   -0.0021 N.1     1  LIG1       -0.1907
     38 C          -8.7332    4.5522   -0.0019 C.1     1  LIG1        0.1034
@<TRIPOS>BOND
     1    34    32    1
     2    18    19    3
     3    32    33   ar
     4    32    31   ar
     5    37    38    3
     6    17    16    1
     7    19    13    1
     8    38    31    1
     9     9    10    3
    10    33    29   ar
    11    16    12    1
    12    31    30   ar
    13    13    12   ar
    14    13    14   ar
    15    10     3    1
    16    12    11   ar
    17    29    30   ar
    18    29    23    1
    19    30    35    1
    20    24    23   ar
    21    24    20   ar
    22    14    20    1
    23    14    15   ar
    24    11    15   ar
    25    11     4    1
    26    23    22   ar
    27    20    21   ar
    28     3     4   ar
    29     3     2   ar
    30    36    35    1
    31     4     5   ar
    32    22    21   ar
    33    22    28    1
    34    21    25    1
    35     8     7    1
    36     2     7    1
    37     2     1   ar
    38    28    27    3
    39     5     1   ar
    40    25    26    1
    41     1     6    1
