@<TRIPOS>MOLECULE
mol_data/opt/m06hf/geoms/mol2/12gd12gd-12gd-12gd.out
 38 41 0 0 0
SMALL
GASTEIGER

@<TRIPOS>ATOM
      1 C           0.8123    1.6707   -0.0583 C.ar    1  LIG1        0.1071
      2 C           2.0308    1.8841    0.4948 C.ar    1  LIG1        0.0607
      3 C           2.1763    3.3195    0.5423 C.ar    1  LIG1        0.1136
      4 C           1.0337    3.8372    0.0069 C.ar    1  LIG1        0.1892
      5 O           0.2137    2.8402   -0.3605 O.2     1  LIG1       -0.4573
      6 H           0.2727    0.7692   -0.2901 H       1  LIG1        0.1041
      7 S           3.2058    0.6531    0.9566 S.3     1  LIG1       -0.1383
      8 H           3.1861    0.9255    2.2673 H       1  LIG1        0.1072
      9 N           4.1098    4.6442    1.6196 N.1     1  LIG1       -0.1907
     10 C           3.2544    4.0581    1.1278 C.1     1  LIG1        0.1042
     11 C           0.5911    5.2042   -0.2172 C.ar    1  LIG1        0.1864
     12 C           1.2524    6.3332   -0.5979 C.ar    1  LIG1        0.0719
     13 C           0.2368    7.3556   -0.6379 C.ar    1  LIG1        0.1144
     14 C          -0.9383    6.7564   -0.2835 C.ar    1  LIG1        0.1902
     15 O          -0.7247    5.4622   -0.0225 O.2     1  LIG1       -0.4461
     16 S           2.9626    6.5209   -0.9664 S.3     1  LIG1       -0.1376
     17 H           2.7428    7.3449   -1.9988 H       1  LIG1        0.1073
     18 N           0.5741    9.7728   -1.4705 N.1     1  LIG1       -0.1907
     19 C           0.4120    8.7047   -1.0831 C.1     1  LIG1        0.1042
     20 C          -2.2882    7.2720   -0.1315 C.ar    1  LIG1        0.1864
     21 C          -2.7653    8.4609    0.3332 C.ar    1  LIG1        0.0719
     22 C          -4.1983    8.3438    0.2287 C.ar    1  LIG1        0.1144
     23 C          -4.4566    7.0929   -0.2539 C.ar    1  LIG1        0.1902
     24 O          -3.3060    6.4509   -0.4865 O.2     1  LIG1       -0.4461
     25 S          -1.8519    9.8482    0.9125 S.3     1  LIG1       -0.1376
     26 H          -2.6865   10.0892    1.9316 H       1  LIG1        0.1073
     27 N          -5.9069   10.1950    0.7778 N.1     1  LIG1       -0.1907
     28 C          -5.1561    9.3632    0.5306 C.1     1  LIG1        0.1042
     29 C          -5.7018    6.3903   -0.5149 C.ar    1  LIG1        0.1854
     30 C          -6.8891    6.3587    0.1518 C.ar    1  LIG1        0.0712
     31 C          -7.7121    5.4539   -0.6153 C.ar    1  LIG1        0.1033
     32 C          -6.9495    5.0175   -1.6533 C.ar    1  LIG1        0.1112
     33 O          -5.7438    5.5837   -1.6040 O.2     1  LIG1       -0.4573
     34 H          -7.1479    4.3347   -2.4611 H       1  LIG1        0.1043
     35 S          -7.3350    7.2244    1.6179 S.3     1  LIG1       -0.1376
     36 H          -8.0344    6.2006    2.1206 H       1  LIG1        0.1073
     37 N         -10.1297    4.7716   -0.0257 N.1     1  LIG1       -0.1907
     38 C          -9.0582    5.0694   -0.3077 C.1     1  LIG1        0.1034
@<TRIPOS>BOND
     1    34    32    1
     2    17    16    1
     3    32    33   ar
     4    32    31   ar
     5    33    29   ar
     6    18    19    3
     7    19    13    1
     8    16    12    1
     9    13    12   ar
    10    13    14   ar
    11    31    38    1
    12    31    30   ar
    13    12    11   ar
    14    29    23    1
    15    29    30   ar
    16    24    23   ar
    17    24    20   ar
    18     5     1   ar
    19     5     4   ar
    20    38    37    3
    21     6     1    1
    22    14    20    1
    23    14    15   ar
    24    23    22   ar
    25    11    15   ar
    26    11     4    1
    27    20    21   ar
    28     1     2   ar
    29     4     3   ar
    30    30    35    1
    31    22    21   ar
    32    22    28    1
    33    21    25    1
    34     2     3   ar
    35     2     7    1
    36    28    27    3
    37     3    10    1
    38    25    26    1
    39     7     8    1
    40    10     9    3
    41    35    36    1
