@<TRIPOS>MOLECULE
mol_data/opt/m06hf/geoms/mol2/12gd12gd12gd-.out
 29 31 0 0 0
SMALL
GASTEIGER

@<TRIPOS>ATOM
      1 C           0.6404    1.9374    1.1667 C.ar    1  LIG1        0.1071
      2 C           1.7899    1.8852    0.4508 C.ar    1  LIG1        0.0607
      3 C           1.9542    3.2118   -0.0935 C.ar    1  LIG1        0.1136
      4 C           0.8914    3.9421    0.3508 C.ar    1  LIG1        0.1892
      5 O           0.0995    3.1693    1.1124 O.2     1  LIG1       -0.4573
      6 H           0.1164    1.1958    1.7438 H       1  LIG1        0.1041
      7 S           2.8824    0.5061    0.3069 S.3     1  LIG1       -0.1383
      8 H           2.5498    0.1885   -0.9512 H       1  LIG1        0.1072
      9 N           3.7855    4.0186   -1.7209 N.1     1  LIG1       -0.1907
     10 C           2.9770    3.6622   -0.9890 C.1     1  LIG1        0.1042
     11 C           0.5143    5.3336    0.1586 C.ar    1  LIG1        0.1864
     12 C           1.2451    6.4820    0.1294 C.ar    1  LIG1        0.0719
     13 C           0.2812    7.5251   -0.1185 C.ar    1  LIG1        0.1144
     14 C          -0.9411    6.9202   -0.1861 C.ar    1  LIG1        0.1902
     15 O          -0.8005    5.5979   -0.0324 O.2     1  LIG1       -0.4461
     16 S           2.9875    6.6589    0.3084 S.3     1  LIG1       -0.1376
     17 H           2.8962    7.6795    1.1702 H       1  LIG1        0.1073
     18 N           0.8018   10.0293   -0.4465 N.1     1  LIG1       -0.1907
     19 C           0.5609    8.9166   -0.3027 C.1     1  LIG1        0.1042
     20 C          -2.2839    7.4411   -0.3794 C.ar    1  LIG1        0.1854
     21 C          -2.9054    8.5750    0.0494 C.ar    1  LIG1        0.0712
     22 C          -4.2435    8.4802   -0.4853 C.ar    1  LIG1        0.1033
     23 C          -4.3099    7.3050   -1.1664 C.ar    1  LIG1        0.1112
     24 O          -3.1336    6.6813   -1.1145 O.2     1  LIG1       -0.4573
     25 H          -5.1061    6.8255   -1.7084 H       1  LIG1        0.1043
     26 S          -2.2421    9.8780    1.0291 S.3     1  LIG1       -0.1376
     27 H          -3.3821   10.0763    1.7015 H       1  LIG1        0.1073
     28 N          -6.1349   10.1937   -0.1082 N.1     1  LIG1       -0.1907
     29 C          -5.3020    9.4268   -0.2926 C.1     1  LIG1        0.1034
@<TRIPOS>BOND
     1     9    10    3
     2    25    23    1
     3    23    24   ar
     4    23    22   ar
     5    24    20   ar
     6    10     3    1
     7     8     7    1
     8    22    29    1
     9    22    21   ar
    10    18    19    3
    11    20    14    1
    12    20    21   ar
    13    19    13    1
    14    29    28    3
    15    14    13   ar
    16    14    15   ar
    17    13    12   ar
    18     3     4   ar
    19     3     2   ar
    20    15    11   ar
    21    21    26    1
    22    12    11   ar
    23    12    16    1
    24    11     4    1
    25     7     2    1
    26    16    17    1
    27     4     5   ar
    28     2     1   ar
    29    26    27    1
    30     5     1   ar
    31     1     6    1
