@<TRIPOS>MOLECULE
mol_data/opt/m06hf/geoms/mol2/12gd.out
 11 11 0 0 0
SMALL
GASTEIGER

@<TRIPOS>ATOM
      1 C           0.1124    1.9199   -0.0000 C.ar    1  LIG1        0.1061
      2 C           1.4658    1.8887   -0.0000 C.ar    1  LIG1        0.0600
      3 C           1.8703    3.2764    0.0000 C.ar    1  LIG1        0.1025
      4 C           0.7266    4.0121   -0.0002 C.ar    1  LIG1        0.1101
      5 O          -0.3305    3.2013    0.0000 O.2     1  LIG1       -0.4686
      6 H          -0.6361    1.1484    0.0000 H       1  LIG1        0.1041
      7 H           0.5474    5.0732   -0.0003 H       1  LIG1        0.1043
      8 S           2.5022    0.4627    0.0001 S.3     1  LIG1       -0.1384
      9 H           3.6464    1.1574   -0.0000 H       1  LIG1        0.1072
     10 N           4.3155    4.0969    0.0001 N.1     1  LIG1       -0.1907
     11 C           3.2179    3.7616    0.0001 C.1     1  LIG1        0.1034
@<TRIPOS>BOND
     1     7     4    1
     2     4     3   ar
     3     4     5   ar
     4     1     2   ar
     5     1     6    1
     6     1     5   ar
     7     2     3   ar
     8     2     8    1
     9     9     8    1
    10     3    11    1
    11    10    11    3
