@<TRIPOS>MOLECULE
mol_data/opt/m06hf/geoms/mol2/12gd12gd-12gd.out
 29 31 0 0 0
SMALL
GASTEIGER

@<TRIPOS>ATOM
      1 C           0.6172    1.9319   -1.1686 C.ar    1  LIG1        0.1071
      2 C           1.7663    1.8725   -0.4527 C.ar    1  LIG1        0.0607
      3 C           1.9415    3.1991    0.0879 C.ar    1  LIG1        0.1136
      4 C           0.8845    3.9370   -0.3580 C.ar    1  LIG1        0.1892
      5 O           0.0882    3.1701   -1.1198 O.2     1  LIG1       -0.4573
      6 H           0.0850    1.1930   -1.7415 H       1  LIG1        0.1041
      7 S           2.8456    0.4842   -0.3040 S.3     1  LIG1       -0.1383
      8 H           2.6442    0.2925    1.0059 H       1  LIG1        0.1072
      9 N           3.7767    3.9748    1.7259 N.1     1  LIG1       -0.1907
     10 C           2.9659    3.6361    0.9881 C.1     1  LIG1        0.1042
     11 C           0.5125    5.3293   -0.1624 C.ar    1  LIG1        0.1864
     12 C           1.2474    6.4744   -0.1088 C.ar    1  LIG1        0.0719
     13 C           0.2831    7.5191    0.1313 C.ar    1  LIG1        0.1144
     14 C          -0.9428    6.9189    0.1695 C.ar    1  LIG1        0.1902
     15 O          -0.8045    5.5976    0.0062 O.2     1  LIG1       -0.4461
     16 S           2.9933    6.6469   -0.2549 S.3     1  LIG1       -0.1376
     17 H           2.9207    7.6771   -1.1070 H       1  LIG1        0.1073
     18 N           0.8094   10.0167    0.4982 N.1     1  LIG1       -0.1907
     19 C           0.5658    8.9071    0.3362 C.1     1  LIG1        0.1042
     20 C          -2.2875    7.4428    0.3399 C.ar    1  LIG1        0.1854
     21 C          -2.8956    8.5838   -0.0893 C.ar    1  LIG1        0.0712
     22 C          -4.2463    8.4864    0.4122 C.ar    1  LIG1        0.1033
     23 C          -4.3320    7.3029    1.0767 C.ar    1  LIG1        0.1112
     24 O          -3.1564    6.6764    1.0451 O.2     1  LIG1       -0.4573
     25 H          -5.1422    6.8189    1.5934 H       1  LIG1        0.1043
     26 S          -2.2052    9.8965   -1.0367 S.3     1  LIG1       -0.1376
     27 H          -3.3281   10.1077   -1.7336 H       1  LIG1        0.1073
     28 N          -6.1235   10.2100    0.0115 N.1     1  LIG1       -0.1907
     29 C          -5.2974    9.4385    0.2062 C.1     1  LIG1        0.1034
@<TRIPOS>BOND
     1     6     1    1
     2    27    26    1
     3     1     5   ar
     4     1     2   ar
     5     5     4   ar
     6    17    16    1
     7    26    21    1
     8     2     7    1
     9     2     3   ar
    10     4    11    1
    11     4     3   ar
    12     7     8    1
    13    16    12    1
    14    11    12   ar
    15    11    15   ar
    16    12    13   ar
    17    21    20   ar
    18    21    22   ar
    19    15    14   ar
    20    28    29    3
    21     3    10    1
    22    13    14   ar
    23    13    19    1
    24    14    20    1
    25    29    22    1
    26    19    18    3
    27    20    24   ar
    28    22    23   ar
    29    10     9    3
    30    24    23   ar
    31    23    25    1
