@<TRIPOS>MOLECULE
mol_data/opt/m06hf/geoms/mol2/12ge12ge12ge12ge.out
 42 45 0 0 0
SMALL
GASTEIGER

@<TRIPOS>ATOM
      1 C           0.9012    1.6157    0.2280 C.ar    1  LIG1        0.1071
      2 C           2.1813    1.8439   -0.1500 C.ar    1  LIG1        0.0587
      3 C           2.3213    3.2826   -0.2088 C.ar    1  LIG1        0.0866
      4 C           1.1043    3.7830    0.1546 C.ar    1  LIG1        0.1872
      5 O           0.2488    2.7776    0.4227 O.2     1  LIG1       -0.4574
      6 H           0.3477    0.7086    0.3948 H       1  LIG1        0.1041
      7 S           3.4218    0.6200   -0.4218 S.3     1  LIG1       -0.1384
      8 H           3.6746    0.9555   -1.6924 H       1  LIG1        0.1072
      9 C           3.4627    4.0231   -0.6437 C.1     1  LIG1       -0.0647
     10 C           4.4183    4.6416   -1.0286 C.1     1  LIG1       -0.1138
     11 H           5.2597    5.2017   -1.3662 H       1  LIG1        0.1232
     12 C           0.6160    5.1441    0.2955 C.ar    1  LIG1        0.1863
     13 C           1.1990    6.2883    0.7511 C.ar    1  LIG1        0.0699
     14 C           0.1784    7.3055    0.6472 C.ar    1  LIG1        0.0874
     15 C          -0.9251    6.6792    0.1385 C.ar    1  LIG1        0.1882
     16 O          -0.6631    5.3823   -0.0817 O.2     1  LIG1       -0.4461
     17 S           2.8254    6.4976    1.3861 S.3     1  LIG1       -0.1377
     18 H           2.4524    7.4366    2.2657 H       1  LIG1        0.1073
     19 C           0.2749    8.6570    1.0971 C.1     1  LIG1       -0.0646
     20 C           0.3659    9.7862    1.4983 C.1     1  LIG1       -0.1138
     21 H           0.4312   10.7910    1.8472 H       1  LIG1        0.1232
     22 C          -2.2555    7.1668   -0.1784 C.ar    1  LIG1        0.1863
     23 C          -2.7104    8.3526   -0.6729 C.ar    1  LIG1        0.0699
     24 C          -4.1441    8.2012   -0.7670 C.ar    1  LIG1        0.0874
     25 C          -4.4195    6.9387   -0.3221 C.ar    1  LIG1        0.1882
     26 O          -3.2879    6.3169    0.0395 O.2     1  LIG1       -0.4461
     27 S          -1.7828    9.7634   -1.1683 S.3     1  LIG1       -0.1377
     28 H          -2.6465   10.0798   -2.1403 H       1  LIG1        0.1073
     29 C          -5.0679    9.1415   -1.3167 C.1     1  LIG1       -0.0646
     30 C          -5.8312    9.9353   -1.7984 C.1     1  LIG1       -0.1138
     31 H          -6.5205   10.6309   -2.2190 H       1  LIG1        0.1232
     32 C          -5.6711    6.2158   -0.1769 C.ar    1  LIG1        0.1852
     33 C          -6.9172    6.6024    0.2123 C.ar    1  LIG1        0.0691
     34 C          -7.7243    5.4023    0.1531 C.ar    1  LIG1        0.0762
     35 C          -6.8863    4.4100   -0.2510 C.ar    1  LIG1        0.1092
     36 O          -5.6564    4.8901   -0.4612 O.2     1  LIG1       -0.4574
     37 H          -7.0426    3.3599   -0.4237 H       1  LIG1        0.1042
     38 S          -7.4557    8.1991    0.7197 S.3     1  LIG1       -0.1377
     39 H          -8.3234    7.7077    1.6134 H       1  LIG1        0.1073
     40 C          -9.1101    5.2908    0.4902 C.1     1  LIG1       -0.0654
     41 C         -10.2721    5.2208    0.7857 C.1     1  LIG1       -0.1138
     42 H         -11.3041    5.1525    1.0410 H       1  LIG1        0.1232
@<TRIPOS>BOND
     1    31    30    1
     2    28    27    1
     3    30    29    3
     4     8     7    1
     5    11    10    1
     6    29    24    1
     7    27    23    1
     8    10     9    3
     9    24    23   ar
    10    24    25   ar
    11    23    22   ar
    12     9     3    1
    13    36    35   ar
    14    36    32   ar
    15    37    35    1
    16     7     2    1
    17    25    32    1
    18    25    26   ar
    19    35    34   ar
    20     3     2   ar
    21     3     4   ar
    22    22    26   ar
    23    22    15    1
    24    32    33   ar
    25     2     1   ar
    26    16    15   ar
    27    16    12   ar
    28    15    14   ar
    29    34    33   ar
    30    34    40    1
    31     4    12    1
    32     4     5   ar
    33    33    38    1
    34     1     6    1
    35     1     5   ar
    36    12    13   ar
    37    40    41    3
    38    14    13   ar
    39    14    19    1
    40    38    39    1
    41    13    17    1
    42    41    42    1
    43    19    20    3
    44    17    18    1
    45    20    21    1
