@<TRIPOS>MOLECULE
mol_data/opt/m06hf/geoms/mol2/12ge12ge-12ge-12ge-.out
 42 45 0 0 0
SMALL
GASTEIGER

@<TRIPOS>ATOM
      1 C           0.9315    1.6000   -0.1162 C.ar    1  LIG1        0.1071
      2 C           2.2059    1.8538    0.2636 C.ar    1  LIG1        0.0587
      3 C           2.3332    3.2946    0.2673 C.ar    1  LIG1        0.0866
      4 C           1.1156    3.7707   -0.1256 C.ar    1  LIG1        0.1872
      5 O           0.2722    2.7495   -0.3645 O.2     1  LIG1       -0.4574
      6 H           0.3842    0.6839   -0.2501 H       1  LIG1        0.1041
      7 S           3.4573    0.6620    0.6143 S.3     1  LIG1       -0.1384
      8 H           3.8328    1.2108    1.7758 H       1  LIG1        0.1072
      9 C           3.4644    4.0575    0.6901 C.1     1  LIG1       -0.0647
     10 C           4.4136    4.6911    1.0668 C.1     1  LIG1       -0.1138
     11 H           5.2482    5.2663    1.3961 H       1  LIG1        0.1232
     12 C           0.6167    5.1231   -0.3077 C.ar    1  LIG1        0.1863
     13 C           1.1961    6.2626   -0.7797 C.ar    1  LIG1        0.0699
     14 C           0.1692    7.2753   -0.7001 C.ar    1  LIG1        0.0874
     15 C          -0.9341    6.6514   -0.1883 C.ar    1  LIG1        0.1882
     16 O          -0.6666    5.3600    0.0557 O.2     1  LIG1       -0.4461
     17 S           2.8265    6.4716   -1.4048 S.3     1  LIG1       -0.1377
     18 H           2.4553    7.3914   -2.3051 H       1  LIG1        0.1073
     19 C           0.2612    8.6213   -1.1675 C.1     1  LIG1       -0.0646
     20 C           0.3485    9.7462   -1.5815 C.1     1  LIG1       -0.1138
     21 H           0.4112   10.7472   -1.9414 H       1  LIG1        0.1232
     22 C          -2.2673    7.1409    0.1143 C.ar    1  LIG1        0.1863
     23 C          -2.7212    8.3276    0.6073 C.ar    1  LIG1        0.0699
     24 C          -4.1566    8.1842    0.6850 C.ar    1  LIG1        0.0874
     25 C          -4.4336    6.9245    0.2333 C.ar    1  LIG1        0.1882
     26 O          -3.3012    6.2972   -0.1176 O.2     1  LIG1       -0.4461
     27 S          -1.7861    9.7298    1.1122 S.3     1  LIG1       -0.1377
     28 H          -2.6210   10.0212    2.1184 H       1  LIG1        0.1073
     29 C          -5.0830    9.1267    1.2264 C.1     1  LIG1       -0.0646
     30 C          -5.8516    9.9193    1.7013 C.1     1  LIG1       -0.1138
     31 H          -6.5453   10.6140    2.1159 H       1  LIG1        0.1232
     32 C          -5.6883    6.2111    0.0698 C.ar    1  LIG1        0.1852
     33 C          -6.9246    6.6087   -0.3384 C.ar    1  LIG1        0.0691
     34 C          -7.7433    5.4158   -0.2915 C.ar    1  LIG1        0.0762
     35 C          -6.9207    4.4165    0.1261 C.ar    1  LIG1        0.1092
     36 O          -5.6899    4.8855    0.3550 O.2     1  LIG1       -0.4574
     37 H          -7.0888    3.3679    0.2967 H       1  LIG1        0.1042
     38 S          -7.4407    8.2098   -0.8551 S.3     1  LIG1       -0.1377
     39 H          -8.3024    7.7241   -1.7577 H       1  LIG1        0.1073
     40 C          -9.1245    5.3181   -0.6509 C.1     1  LIG1       -0.0654
     41 C         -10.2822    5.2621   -0.9657 C.1     1  LIG1       -0.1138
     42 H         -11.3106    5.2059   -1.2382 H       1  LIG1        0.1232
@<TRIPOS>BOND
     1    18    17    1
     2    21    20    1
     3    39    38    1
     4    20    19    3
     5    17    13    1
     6    42    41    1
     7    19    14    1
     8    41    40    3
     9    38    33    1
    10    13    14   ar
    11    13    12   ar
    12    14    15   ar
    13    40    34    1
    14     5     4   ar
    15     5     1   ar
    16    33    34   ar
    17    33    32   ar
    18    12     4    1
    19    12    16   ar
    20    34    35   ar
    21     6     1    1
    22    15    16   ar
    23    15    22    1
    24     4     3   ar
    25    26    22   ar
    26    26    25   ar
    27     1     2   ar
    28    32    25    1
    29    32    36   ar
    30    22    23   ar
    31    35    37    1
    32    35    36   ar
    33    25    24   ar
    34     2     3   ar
    35     2     7    1
    36     3     9    1
    37    23    24   ar
    38    23    27    1
    39     7     8    1
    40    24    29    1
    41     9    10    3
    42    10    11    1
    43    27    28    1
    44    29    30    3
    45    30    31    1
