@<TRIPOS>MOLECULE
mol_data/opt/m06hf/geoms/mol2/12ge12ge12ge12ge-.out
 42 45 0 0 0
SMALL
GASTEIGER

@<TRIPOS>ATOM
      1 C           0.9133    1.6236    0.2117 C.ar    1  LIG1        0.1071
      2 C           2.1943    1.8578   -0.1595 C.ar    1  LIG1        0.0587
      3 C           2.3303    3.2972   -0.2090 C.ar    1  LIG1        0.0866
      4 C           1.1103    3.7918    0.1523 C.ar    1  LIG1        0.1872
      5 O           0.2567    2.7824    0.4107 O.2     1  LIG1       -0.4574
      6 H           0.3619    0.7138    0.3708 H       1  LIG1        0.1041
      7 S           3.4397    0.6393   -0.4333 S.3     1  LIG1       -0.1384
      8 H           3.6967    0.9831   -1.7008 H       1  LIG1        0.1072
      9 C           3.4712    4.0437   -0.6349 C.1     1  LIG1       -0.0647
     10 C           4.4265    4.6671   -1.0125 C.1     1  LIG1       -0.1138
     11 H           5.2675    5.2316   -1.3436 H       1  LIG1        0.1232
     12 C           0.6174    5.1506    0.2995 C.ar    1  LIG1        0.1863
     13 C           1.1950    6.2939    0.7642 C.ar    1  LIG1        0.0699
     14 C           0.1718    7.3086    0.6623 C.ar    1  LIG1        0.0874
     15 C          -0.9278    6.6819    0.1456 C.ar    1  LIG1        0.1882
     16 O          -0.6610    5.3872   -0.0812 O.2     1  LIG1       -0.4461
     17 S           2.8183    6.5044    1.4070 S.3     1  LIG1       -0.1377
     18 H           2.4388    7.4369    2.2907 H       1  LIG1        0.1073
     19 C           0.2625    8.6576    1.1205 C.1     1  LIG1       -0.0646
     20 C           0.3486    9.7847    1.5288 C.1     1  LIG1       -0.1138
     21 H           0.4096   10.7876    1.8839 H       1  LIG1        0.1232
     22 C          -2.2584    7.1674   -0.1737 C.ar    1  LIG1        0.1863
     23 C          -2.7150    8.3547   -0.6631 C.ar    1  LIG1        0.0699
     24 C          -4.1478    8.1995   -0.7638 C.ar    1  LIG1        0.0874
     25 C          -4.4211    6.9337   -0.3274 C.ar    1  LIG1        0.1882
     26 O          -3.2891    6.3132    0.0352 O.2     1  LIG1       -0.4461
     27 S          -1.7897    9.7712   -1.1465 S.3     1  LIG1       -0.1377
     28 H          -2.6510   10.0913   -2.1194 H       1  LIG1        0.1073
     29 C          -5.0723    9.1402   -1.3117 C.1     1  LIG1       -0.0646
     30 C          -5.8361    9.9346   -1.7917 C.1     1  LIG1       -0.1138
     31 H          -6.5260   10.6304   -2.2109 H       1  LIG1        0.1232
     32 C          -5.6711    6.2061   -0.1917 C.ar    1  LIG1        0.1852
     33 C          -6.9199    6.5866    0.1948 C.ar    1  LIG1        0.0691
     34 C          -7.7232    5.3845    0.1250 C.ar    1  LIG1        0.0762
     35 C          -6.8806    4.3973   -0.2819 C.ar    1  LIG1        0.1092
     36 O          -5.6513    4.8822   -0.4840 O.2     1  LIG1       -0.4574
     37 H          -7.0330    3.3478   -0.4616 H       1  LIG1        0.1042
     38 S          -7.4651    8.1787    0.7097 S.3     1  LIG1       -0.1377
     39 H          -8.3349    7.6793    1.5970 H       1  LIG1        0.1073
     40 C          -9.1100    5.2668    0.4557 C.1     1  LIG1       -0.0654
     41 C         -10.2729    5.1915    0.7461 C.1     1  LIG1       -0.1138
     42 H         -11.3058    5.1185    0.9968 H       1  LIG1        0.1232
@<TRIPOS>BOND
     1    31    30    1
     2    28    27    1
     3    30    29    3
     4     8     7    1
     5    11    10    1
     6    29    24    1
     7    27    23    1
     8    10     9    3
     9    24    23   ar
    10    24    25   ar
    11    23    22   ar
    12     9     3    1
    13    36    35   ar
    14    36    32   ar
    15    37    35    1
    16     7     2    1
    17    25    32    1
    18    25    26   ar
    19    35    34   ar
    20     3     2   ar
    21     3     4   ar
    22    32    33   ar
    23    22    26   ar
    24    22    15    1
    25     2     1   ar
    26    16    15   ar
    27    16    12   ar
    28    34    33   ar
    29    34    40    1
    30    15    14   ar
    31     4    12    1
    32     4     5   ar
    33    33    38    1
    34     1     6    1
    35     1     5   ar
    36    12    13   ar
    37    40    41    3
    38    14    13   ar
    39    14    19    1
    40    38    39    1
    41    41    42    1
    42    13    17    1
    43    19    20    3
    44    17    18    1
    45    20    21    1
