@<TRIPOS>MOLECULE
mol_data/opt/m06hf/geoms/mol2/12ge12ge-.out
 22 23 0 0 0
SMALL
GASTEIGER

@<TRIPOS>ATOM
      1 C           0.2679    1.8463    0.5789 C.ar    1  LIG1        0.1071
      2 C           1.5941    1.8435    0.3069 C.ar    1  LIG1        0.0587
      3 C           1.9327    3.2153   -0.0044 C.ar    1  LIG1        0.0866
      4 C           0.7698    3.9183    0.1254 C.ar    1  LIG1        0.1872
      5 O          -0.2333    3.0943    0.4834 O.2     1  LIG1       -0.4574
      6 H          -0.4173    1.0621    0.8481 H       1  LIG1        0.1041
      7 S           2.6782    0.4575    0.4054 S.3     1  LIG1       -0.1384
      8 H           3.1831    0.5913   -0.8272 H       1  LIG1        0.1072
      9 C           3.1967    3.7140   -0.4439 C.1     1  LIG1       -0.0647
     10 C           4.2581    4.1260   -0.8287 C.1     1  LIG1       -0.1138
     11 H           5.1939    4.5064   -1.1675 H       1  LIG1        0.1232
     12 C           0.4632    5.3291   -0.0409 C.ar    1  LIG1        0.1852
     13 C           1.1570    6.4645    0.2470 C.ar    1  LIG1        0.0691
     14 C           0.2950    7.5532   -0.1626 C.ar    1  LIG1        0.0762
     15 C          -0.8378    6.9722   -0.6412 C.ar    1  LIG1        0.1092
     16 O          -0.7418    5.6400   -0.5818 O.2     1  LIG1       -0.4574
     17 H          -1.7482    7.3849   -1.0385 H       1  LIG1        0.1042
     18 S           2.7461    6.6163    0.9869 S.3     1  LIG1       -0.1377
     19 H           2.4532    7.7913    1.5583 H       1  LIG1        0.1073
     20 C           0.5784    8.9510   -0.0445 C.1     1  LIG1       -0.0654
     21 C           0.8401   10.1180    0.0723 C.1     1  LIG1       -0.1138
     22 H           1.0682   11.1548    0.1675 H       1  LIG1        0.1232
@<TRIPOS>BOND
     1    11    10    1
     2    17    15    1
     3    10     9    3
     4     8     7    1
     5    15    16   ar
     6    15    14   ar
     7    16    12   ar
     8     9     3    1
     9    14    20    1
    10    14    13   ar
    11    20    21    3
    12    12     4    1
    13    12    13   ar
    14     3     4   ar
    15     3     2   ar
    16    21    22    1
    17     4     5   ar
    18    13    18    1
    19     2     7    1
    20     2     1   ar
    21     5     1   ar
    22     1     6    1
    23    18    19    1
