@<TRIPOS>MOLECULE
mol_data/opt/m06hf/geoms/mol2/12ge12ge12ge-.out
 32 34 0 0 0
SMALL
GASTEIGER

@<TRIPOS>ATOM
      1 C           0.5187    1.8504    1.1591 C.ar    1  LIG1        0.1071
      2 C           1.7360    1.8293    0.5648 C.ar    1  LIG1        0.0587
      3 C           1.9660    3.1785    0.0979 C.ar    1  LIG1        0.0866
      4 C           0.8611    3.8885    0.4708 C.ar    1  LIG1        0.1872
      5 O          -0.0099    3.0883    1.1150 O.2     1  LIG1       -0.4574
      6 H          -0.0658    1.0839    1.6362 H       1  LIG1        0.1041
      7 S           2.8276    0.4476    0.4663 S.3     1  LIG1       -0.1384
      8 H           2.9167    0.4372   -0.8693 H       1  LIG1        0.1072
      9 C           3.0739    3.6524   -0.6693 C.1     1  LIG1       -0.0647
     10 C           3.9989    4.0403   -1.3307 C.1     1  LIG1       -0.1138
     11 H           4.8173    4.3944   -1.9142 H       1  LIG1        0.1232
     12 C           0.5062    5.2868    0.2972 C.ar    1  LIG1        0.1863
     13 C           1.2391    6.4323    0.3659 C.ar    1  LIG1        0.0699
     14 C           0.3117    7.4993    0.0695 C.ar    1  LIG1        0.0874
     15 C          -0.9012    6.8995   -0.1177 C.ar    1  LIG1        0.1882
     16 O          -0.7860    5.5677    0.0032 O.2     1  LIG1       -0.4461
     17 S           2.9515    6.6012    0.7341 S.3     1  LIG1       -0.1377
     18 H           2.7756    7.7109    1.4637 H       1  LIG1        0.1073
     19 C           0.6075    8.8918   -0.0419 C.1     1  LIG1       -0.0646
     20 C           0.8638   10.0616   -0.1407 C.1     1  LIG1       -0.1138
     21 H           1.0808   11.1003   -0.2378 H       1  LIG1        0.1232
     22 C          -2.2166    7.4483   -0.3991 C.ar    1  LIG1        0.1852
     23 C          -2.8612    8.5631    0.0426 C.ar    1  LIG1        0.0691
     24 C          -4.1515    8.5432   -0.6133 C.ar    1  LIG1        0.0762
     25 C          -4.1657    7.4149   -1.3720 C.ar    1  LIG1        0.1092
     26 O          -3.0064    6.7581   -1.2582 O.2     1  LIG1       -0.4574
     27 H          -4.9154    6.9862   -2.0132 H       1  LIG1        0.1042
     28 S          -2.2927    9.7721    1.1885 S.3     1  LIG1       -0.1377
     29 H          -3.5080    9.9491    1.7227 H       1  LIG1        0.1073
     30 C          -5.2029    9.4999   -0.4499 C.1     1  LIG1       -0.0654
     31 C          -6.0734   10.3114   -0.2874 C.1     1  LIG1       -0.1138
     32 H          -6.8488   11.0293   -0.1495 H       1  LIG1        0.1232
@<TRIPOS>BOND
     1    27    25    1
     2    11    10    1
     3    25    26   ar
     4    25    24   ar
     5    10     9    3
     6    26    22   ar
     7     8     7    1
     8     9     3    1
     9    24    30    1
    10    24    23   ar
    11    30    31    3
    12    22    15    1
    13    22    23   ar
    14    31    32    1
    15    21    20    1
    16    20    19    3
    17    15    16   ar
    18    15    14   ar
    19    19    14    1
    20    16    12   ar
    21    23    28    1
    22    14    13   ar
    23     3     4   ar
    24     3     2   ar
    25    12    13   ar
    26    12     4    1
    27    13    17    1
    28     7     2    1
    29     4     5   ar
    30     2     1   ar
    31    17    18    1
    32     5     1   ar
    33     1     6    1
    34    28    29    1
