@<TRIPOS>MOLECULE
mol_data/opt/m06hf/geoms/mol2/12ge.out
 12 12 0 0 0
SMALL
GASTEIGER

@<TRIPOS>ATOM
      1 C           0.1223    1.8884   -0.1188 C.ar    1  LIG1        0.1060
      2 C           1.4750    1.8821   -0.1252 C.ar    1  LIG1        0.0580
      3 C           1.8708    3.2673    0.0311 C.ar    1  LIG1        0.0755
      4 C           0.7115    3.9734    0.1164 C.ar    1  LIG1        0.1081
      5 O          -0.3410    3.1532    0.0241 O.2     1  LIG1       -0.4687
      6 H          -0.6136    1.1096   -0.2031 H       1  LIG1        0.1041
      7 H           0.5157    5.0239    0.2390 H       1  LIG1        0.1042
      8 S           2.5370    0.4879   -0.3082 S.3     1  LIG1       -0.1384
      9 H           3.6568    1.1833   -0.0779 H       1  LIG1        0.1072
     10 C           3.2095    3.7683    0.0917 C.1     1  LIG1       -0.0654
     11 C           4.3454    4.1577    0.1424 C.1     1  LIG1       -0.1138
     12 H           5.3476    4.5175    0.1885 H       1  LIG1        0.1232
@<TRIPOS>BOND
     1     8     2    1
     2     8     9    1
     3     6     1    1
     4     2     1   ar
     5     2     3   ar
     6     1     5   ar
     7     5     4   ar
     8     3    10    1
     9     3     4   ar
    10    10    11    3
    11     4     7    1
    12    11    12    1
