@<TRIPOS>MOLECULE
mol_data/opt/m06hf/geoms/mol2/12ge12ge-12ge12ge-.out
 42 45 0 0 0
SMALL
GASTEIGER

@<TRIPOS>ATOM
      1 C           1.3729    2.1718    1.9672 C.ar    1  LIG1        0.1071
      2 C           2.2473    1.9947    0.9476 C.ar    1  LIG1        0.0587
      3 C           2.1279    3.1753    0.1216 C.ar    1  LIG1        0.0866
      4 C           1.2004    3.9622    0.7402 C.ar    1  LIG1        0.1872
      5 O           0.7339    3.3509    1.8463 O.2     1  LIG1       -0.4574
      6 H           1.1143    1.5573    2.8118 H       1  LIG1        0.1041
      7 S           3.2229    0.5573    0.6420 S.3     1  LIG1       -0.1384
      8 H           4.4073    1.1762    0.6945 H       1  LIG1        0.1072
      9 C           2.7961    3.4452   -1.1121 C.1     1  LIG1       -0.0647
     10 C           3.3527    3.6687   -2.1533 C.1     1  LIG1       -0.1138
     11 H           3.8370    3.8736   -3.0801 H       1  LIG1        0.1232
     12 C           0.6810    5.2787    0.4081 C.ar    1  LIG1        0.1863
     13 C           1.2841    6.4001   -0.0741 C.ar    1  LIG1        0.0699
     14 C           0.2249    7.3693   -0.2300 C.ar    1  LIG1        0.0874
     15 C          -0.9135    6.7506    0.2043 C.ar    1  LIG1        0.1882
     16 O          -0.6462    5.4882    0.5746 O.2     1  LIG1       -0.4461
     17 S           2.9888    6.6334   -0.4434 S.3     1  LIG1       -0.1377
     18 H           3.0077    7.8964    0.0059 H       1  LIG1        0.1073
     19 C           0.3405    8.6872   -0.7674 C.1     1  LIG1       -0.0646
     20 C           0.4497    9.7915   -1.2281 C.1     1  LIG1       -0.1138
     21 H           0.5316   10.7702   -1.6416 H       1  LIG1        0.1232
     22 C          -2.2840    7.2182    0.3181 C.ar    1  LIG1        0.1863
     23 C          -2.8194    8.4156    0.6863 C.ar    1  LIG1        0.0699
     24 C          -4.2503    8.2346    0.6077 C.ar    1  LIG1        0.0874
     25 C          -4.4441    6.9459    0.1955 C.ar    1  LIG1        0.1882
     26 O          -3.2644    6.3341    0.0142 O.2     1  LIG1       -0.4461
     27 S          -1.9802    9.8732    1.2025 S.3     1  LIG1       -0.1377
     28 H          -2.9427   10.2176    2.0667 H       1  LIG1        0.1073
     29 C          -5.2515    9.1768    0.9942 C.1     1  LIG1       -0.0646
     30 C          -6.0841    9.9717    1.3412 C.1     1  LIG1       -0.1138
     31 H          -6.8351   10.6670    1.6392 H       1  LIG1        0.1232
     32 C          -5.6519    6.1874   -0.0804 C.ar    1  LIG1        0.1852
     33 C          -6.8488    6.5297   -0.6331 C.ar    1  LIG1        0.0691
     34 C          -7.6254    5.3086   -0.6456 C.ar    1  LIG1        0.0762
     35 C          -6.8199    4.3493   -0.1149 C.ar    1  LIG1        0.1092
     36 O          -5.6396    4.8689    0.2365 O.2     1  LIG1       -0.4574
     37 H          -6.9697    3.2990    0.0625 H       1  LIG1        0.1042
     38 S          -7.3608    8.0999   -1.2389 S.3     1  LIG1       -0.1377
     39 H          -8.1519    7.5713   -2.1815 H       1  LIG1        0.1073
     40 C          -8.9543    5.1507   -1.1515 C.1     1  LIG1       -0.0654
     41 C         -10.0676    5.0412   -1.5891 C.1     1  LIG1       -0.1138
     42 H         -11.0573    4.9380   -1.9701 H       1  LIG1        0.1232
@<TRIPOS>BOND
     1    11    10    1
     2    39    38    1
     3    10     9    3
     4    42    41    1
     5    21    20    1
     6    41    40    3
     7    38    33    1
     8    20    19    3
     9    40    34    1
    10     9     3    1
    11    19    14    1
    12    34    33   ar
    13    34    35   ar
    14    33    32   ar
    15    17    13    1
    16    17    18    1
    17    14    13   ar
    18    14    15   ar
    19    35    37    1
    20    35    36   ar
    21    32    25    1
    22    32    36   ar
    23    13    12   ar
    24    26    25   ar
    25    26    22   ar
    26     3     4   ar
    27     3     2   ar
    28    25    24   ar
    29    15    22    1
    30    15    16   ar
    31    22    23   ar
    32    12    16   ar
    33    12     4    1
    34    24    23   ar
    35    24    29    1
    36     7     8    1
    37     7     2    1
    38    23    27    1
    39     4     5   ar
    40     2     1   ar
    41    29    30    3
    42    27    28    1
    43    30    31    1
    44     5     1   ar
    45     1     6    1
