@<TRIPOS>MOLECULE
mol_data/opt/m06hf/geoms/mol2/12ge12ge-12ge12ge.out
 42 45 0 0 0
SMALL
GASTEIGER

@<TRIPOS>ATOM
      1 C           0.9242    1.6318    0.2546 C.ar    1  LIG1        0.1071
      2 C           2.1990    1.8633   -0.1390 C.ar    1  LIG1        0.0587
      3 C           2.3317    3.3023   -0.2084 C.ar    1  LIG1        0.0866
      4 C           1.1165    3.7994    0.1652 C.ar    1  LIG1        0.1872
      5 O           0.2686    2.7919    0.4491 O.2     1  LIG1       -0.4574
      6 H           0.3769    0.7232    0.4334 H       1  LIG1        0.1041
      7 S           3.4423    0.6436   -0.4169 S.3     1  LIG1       -0.1384
      8 H           3.6792    0.9722   -1.6924 H       1  LIG1        0.1072
      9 C           3.4646    4.0452   -0.6609 C.1     1  LIG1       -0.0647
     10 C           4.4131    4.6654   -1.0605 C.1     1  LIG1       -0.1138
     11 H           5.2480    5.2270   -1.4111 H       1  LIG1        0.1232
     12 C           0.6234    5.1592    0.3030 C.ar    1  LIG1        0.1863
     13 C           1.2061    6.3091    0.7444 C.ar    1  LIG1        0.0699
     14 C           0.1796    7.3208    0.6454 C.ar    1  LIG1        0.0874
     15 C          -0.9267    6.6860    0.1536 C.ar    1  LIG1        0.1882
     16 O          -0.6611    5.3889   -0.0611 O.2     1  LIG1       -0.4461
     17 S           2.8386    6.5301    1.3596 S.3     1  LIG1       -0.1377
     18 H           2.4710    7.4731    2.2372 H       1  LIG1        0.1073
     19 C           0.2749    8.6756    1.0854 C.1     1  LIG1       -0.0646
     20 C           0.3652    9.8078    1.4784 C.1     1  LIG1       -0.1138
     21 H           0.4298   10.8150    1.8202 H       1  LIG1        0.1232
     22 C          -2.2628    7.1653   -0.1515 C.ar    1  LIG1        0.1863
     23 C          -2.7289    8.3456   -0.6487 C.ar    1  LIG1        0.0699
     24 C          -4.1628    8.1869   -0.7259 C.ar    1  LIG1        0.0874
     25 C          -4.4272    6.9261   -0.2695 C.ar    1  LIG1        0.1882
     26 O          -3.2886    6.3121    0.0836 O.2     1  LIG1       -0.4461
     27 S          -1.8135    9.7574   -1.1636 S.3     1  LIG1       -0.1377
     28 H          -2.6898   10.0640   -2.1275 H       1  LIG1        0.1073
     29 C          -5.0971    9.1191   -1.2714 C.1     1  LIG1       -0.0646
     30 C          -5.8695    9.9061   -1.7498 C.1     1  LIG1       -0.1138
     31 H          -6.5669   10.5955   -2.1673 H       1  LIG1        0.1232
     32 C          -5.6737    6.1984   -0.1057 C.ar    1  LIG1        0.1852
     33 C          -6.9171    6.5818    0.2950 C.ar    1  LIG1        0.0691
     34 C          -7.7193    5.3778    0.2523 C.ar    1  LIG1        0.0762
     35 C          -6.8814    4.3868   -0.1550 C.ar    1  LIG1        0.1092
     36 O          -5.6561    4.8710   -0.3819 O.2     1  LIG1       -0.4574
     37 H          -7.0348    3.3349   -0.3194 H       1  LIG1        0.1042
     38 S          -7.4570    8.1793    0.7986 S.3     1  LIG1       -0.1377
     39 H          -8.3122    7.6897    1.7052 H       1  LIG1        0.1073
     40 C          -9.1007    5.2621    0.6057 C.1     1  LIG1       -0.0654
     41 C         -10.2590    5.1887    0.9148 C.1     1  LIG1       -0.1138
     42 H         -11.2877    5.1173    1.1822 H       1  LIG1        0.1232
@<TRIPOS>BOND
     1    31    30    1
     2    28    27    1
     3    30    29    3
     4     8     7    1
     5    11    10    1
     6    29    24    1
     7    27    23    1
     8    10     9    3
     9    24    23   ar
    10    24    25   ar
    11     9     3    1
    12    23    22   ar
    13     7     2    1
    14    36    35   ar
    15    36    32   ar
    16    37    35    1
    17    25    32    1
    18    25    26   ar
    19     3     2   ar
    20     3     4   ar
    21    35    34   ar
    22    22    26   ar
    23    22    15    1
    24     2     1   ar
    25    32    33   ar
    26    16    15   ar
    27    16    12   ar
    28    15    14   ar
    29     4    12    1
    30     4     5   ar
    31    34    33   ar
    32    34    40    1
    33     1     6    1
    34     1     5   ar
    35    33    38    1
    36    12    13   ar
    37    40    41    3
    38    14    13   ar
    39    14    19    1
    40    13    17    1
    41    38    39    1
    42    41    42    1
    43    19    20    3
    44    17    18    1
    45    20    21    1
