@<TRIPOS>MOLECULE
mol_data/opt/m06hf/geoms/mol2/12ge12ge12ge-12ge-.out
 42 45 0 0 0
SMALL
GASTEIGER

@<TRIPOS>ATOM
      1 C           1.0357    2.1900    2.1006 C.ar    1  LIG1        0.1071
      2 C           2.0784    2.0148    1.2546 C.ar    1  LIG1        0.0587
      3 C           2.1342    3.2146    0.4486 C.ar    1  LIG1        0.0866
      4 C           1.1177    4.0059    0.9007 C.ar    1  LIG1        0.1872
      5 O           0.4586    3.3901    1.9009 O.2     1  LIG1       -0.4574
      6 H           0.6146    1.5643    2.8679 H       1  LIG1        0.1041
      7 S           3.1734    0.6334    1.2188 S.3     1  LIG1       -0.1384
      8 H           2.9058    0.2770   -0.0431 H       1  LIG1        0.1072
      9 C           3.0076    3.4815   -0.6491 C.1     1  LIG1       -0.0647
     10 C           3.7325    3.6948   -1.5832 C.1     1  LIG1       -0.1138
     11 H           4.3712    3.8959   -2.4118 H       1  LIG1        0.1232
     12 C           0.6667    5.3279    0.5008 C.ar    1  LIG1        0.1863
     13 C           1.3361    6.4463    0.1032 C.ar    1  LIG1        0.0699
     14 C           0.3119    7.4256   -0.1763 C.ar    1  LIG1        0.0874
     15 C          -0.8772    6.8169    0.1098 C.ar    1  LIG1        0.1882
     16 O          -0.6698    5.5512    0.5024 O.2     1  LIG1       -0.4461
     17 S           3.0731    6.6848   -0.0425 S.3     1  LIG1       -0.1377
     18 H           3.0001    7.9830    0.2793 H       1  LIG1        0.1073
     19 C           0.5024    8.7473   -0.6821 C.1     1  LIG1       -0.0646
     20 C           0.6713    9.8566   -1.1123 C.1     1  LIG1       -0.1138
     21 H           0.8050   10.8403   -1.4995 H       1  LIG1        0.1232
     22 C          -2.2462    7.3026    0.0638 C.ar    1  LIG1        0.1863
     23 C          -2.8070    8.4981    0.3976 C.ar    1  LIG1        0.0699
     24 C          -4.2140    8.3566    0.1028 C.ar    1  LIG1        0.0874
     25 C          -4.3741    7.0785   -0.3536 C.ar    1  LIG1        0.1882
     26 O          -3.1909    6.4466   -0.3922 O.2     1  LIG1       -0.4461
     27 S          -2.0063    9.9257    1.0436 S.3     1  LIG1       -0.1377
     28 H          -3.0296   10.2505    1.8443 H       1  LIG1        0.1073
     29 C          -5.2209    9.3618    0.2284 C.1     1  LIG1       -0.0646
     30 C          -6.0577   10.2180    0.3351 C.1     1  LIG1       -0.1138
     31 H          -6.8086   10.9697    0.4210 H       1  LIG1        0.1232
     32 C          -5.5517    6.3413   -0.7795 C.ar    1  LIG1        0.1852
     33 C          -6.8330    6.3036   -0.3220 C.ar    1  LIG1        0.0691
     34 C          -7.5175    5.3616   -1.1820 C.ar    1  LIG1        0.0762
     35 C          -6.5832    4.9154   -2.0637 C.ar    1  LIG1        0.1092
     36 O          -5.4049    5.5046   -1.8361 O.2     1  LIG1       -0.4574
     37 H          -6.6324    4.2062   -2.8709 H       1  LIG1        0.1042
     38 S          -7.5338    7.1736    1.0377 S.3     1  LIG1       -0.1377
     39 H          -8.3675    6.1727    1.3532 H       1  LIG1        0.1073
     40 C          -8.8888    4.9654   -1.0860 C.1     1  LIG1       -0.0654
     41 C         -10.0412    4.6444   -0.9792 C.1     1  LIG1       -0.1138
     42 H         -11.0650    4.3619   -0.8934 H       1  LIG1        0.1232
@<TRIPOS>BOND
     1    37    35    1
     2    11    10    1
     3    35    36   ar
     4    35    34   ar
     5    36    32   ar
     6    10     9    3
     7    21    20    1
     8    34    40    1
     9    34    33   ar
    10    20    19    3
    11    40    41    3
    12    41    42    1
    13    32    25    1
    14    32    33   ar
    15    19    14    1
    16     9     3    1
    17    26    25   ar
    18    26    22   ar
    19    25    24   ar
    20    33    38    1
    21    14    13   ar
    22    14    15   ar
    23     8     7    1
    24    17    13    1
    25    17    18    1
    26    22    15    1
    27    22    23   ar
    28    24    29    1
    29    24    23   ar
    30    13    12   ar
    31    15    16   ar
    32    29    30    3
    33    30    31    1
    34    23    27    1
    35     3     4   ar
    36     3     2   ar
    37    12    16   ar
    38    12     4    1
    39     4     5   ar
    40    38    39    1
    41    27    28    1
    42     7     2    1
    43     2     1   ar
    44     5     1   ar
    45     1     6    1
