@<TRIPOS>MOLECULE
mol_data/opt/m06hf/geoms/mol2/12ge12ge-12ge.out
 32 34 0 0 0
SMALL
GASTEIGER

@<TRIPOS>ATOM
      1 C           0.5945    1.8576    1.1949 C.ar    1  LIG1        0.1071
      2 C           1.7822    1.8409    0.5431 C.ar    1  LIG1        0.0587
      3 C           1.9806    3.1897    0.0598 C.ar    1  LIG1        0.0866
      4 C           0.8890    3.8932    0.4799 C.ar    1  LIG1        0.1872
      5 O           0.0524    3.0880    1.1650 O.2     1  LIG1       -0.4574
      6 H           0.0424    1.0889    1.7067 H       1  LIG1        0.1041
      7 S           2.8746    0.4628    0.3945 S.3     1  LIG1       -0.1384
      8 H           2.6281    0.2174   -0.8986 H       1  LIG1        0.1072
      9 C           3.0534    3.6783   -0.7471 C.1     1  LIG1       -0.0647
     10 C           3.9492    4.0856   -1.4362 C.1     1  LIG1       -0.1138
     11 H           4.7428    4.4549   -2.0438 H       1  LIG1        0.1232
     12 C           0.5224    5.2906    0.3217 C.ar    1  LIG1        0.1863
     13 C           1.2532    6.4373    0.3844 C.ar    1  LIG1        0.0699
     14 C           0.3194    7.5034    0.1054 C.ar    1  LIG1        0.0874
     15 C          -0.8948    6.9016   -0.0680 C.ar    1  LIG1        0.1882
     16 O          -0.7746    5.5694    0.0471 O.2     1  LIG1       -0.4461
     17 S           2.9715    6.6071    0.7232 S.3     1  LIG1       -0.1377
     18 H           2.8060    7.7115    1.4633 H       1  LIG1        0.1073
     19 C           0.6135    8.8961   -0.0047 C.1     1  LIG1       -0.0646
     20 C           0.8685   10.0663   -0.1007 C.1     1  LIG1       -0.1138
     21 H           1.0829   11.1058   -0.1955 H       1  LIG1        0.1232
     22 C          -2.2150    7.4435   -0.3387 C.ar    1  LIG1        0.1852
     23 C          -2.8584    8.5671    0.0833 C.ar    1  LIG1        0.0691
     24 C          -4.1578    8.5241   -0.5537 C.ar    1  LIG1        0.0762
     25 C          -4.1776    7.3767   -1.2837 C.ar    1  LIG1        0.1092
     26 O          -3.0149    6.7280   -1.1688 O.2     1  LIG1       -0.4574
     27 H          -4.9345    6.9293   -1.9032 H       1  LIG1        0.1042
     28 S          -2.2880    9.8116    1.1886 S.3     1  LIG1       -0.1377
     29 H          -3.5229   10.1021    1.6147 H       1  LIG1        0.1073
     30 C          -5.2103    9.4806   -0.3973 C.1     1  LIG1       -0.0654
     31 C          -6.0793   10.2946   -0.2372 C.1     1  LIG1       -0.1138
     32 H          -6.8546   11.0131   -0.1020 H       1  LIG1        0.1232
@<TRIPOS>BOND
     1    11    10    1
     2    27    25    1
     3    10     9    3
     4    25    26   ar
     5    25    24   ar
     6    26    22   ar
     7     8     7    1
     8     9     3    1
     9    24    30    1
    10    24    23   ar
    11    30    31    3
    12    22    15    1
    13    22    23   ar
    14    31    32    1
    15    21    20    1
    16    20    19    3
    17    15    16   ar
    18    15    14   ar
    19    19    14    1
    20    16    12   ar
    21     3     4   ar
    22     3     2   ar
    23    23    28    1
    24    14    13   ar
    25    12    13   ar
    26    12     4    1
    27    13    17    1
    28     7     2    1
    29     4     5   ar
    30     2     1   ar
    31    17    18    1
    32     5     1   ar
    33    28    29    1
    34     1     6    1
