@<TRIPOS>MOLECULE
mol_data/opt/m06hf/geoms/mol2/12ge12ge12ge.out
 32 34 0 0 0
SMALL
GASTEIGER

@<TRIPOS>ATOM
      1 C           0.6616    1.7352    0.7586 C.ar    1  LIG1        0.1071
      2 C           1.8244    1.8390    0.0713 C.ar    1  LIG1        0.0587
      3 C           1.9922    3.2494   -0.2021 C.ar    1  LIG1        0.0866
      4 C           0.9102    3.8623    0.3614 C.ar    1  LIG1        0.1872
      5 O           0.1096    2.9491    0.9446 O.2     1  LIG1       -0.4574
      6 H           0.1349    0.8893    1.1635 H       1  LIG1        0.1041
      7 S           2.9259    0.5185   -0.3247 S.3     1  LIG1       -0.1384
      8 H           2.8025    0.6192   -1.6544 H       1  LIG1        0.1072
      9 C           3.0262    3.8691   -0.9681 C.1     1  LIG1       -0.0647
     10 C           3.8884    4.3877   -1.6243 C.1     1  LIG1       -0.1138
     11 H           4.6524    4.8589   -2.1982 H       1  LIG1        0.1232
     12 C           0.5151    5.2591    0.4246 C.ar    1  LIG1        0.1863
     13 C           1.2300    6.4061    0.5964 C.ar    1  LIG1        0.0699
     14 C           0.2570    7.4729    0.5566 C.ar    1  LIG1        0.0874
     15 C          -0.9540    6.8694    0.3652 C.ar    1  LIG1        0.1882
     16 O          -0.8021    5.5389    0.2759 O.2     1  LIG1       -0.4461
     17 S           2.9622    6.5708    0.8525 S.3     1  LIG1       -0.1377
     18 H           2.8311    7.5900    1.7122 H       1  LIG1        0.1073
     19 C           0.4990    8.8628    0.7769 C.1     1  LIG1       -0.0646
     20 C           0.7093   10.0287    0.9787 C.1     1  LIG1       -0.1138
     21 H           0.8816   11.0660    1.1521 H       1  LIG1        0.1232
     22 C          -2.2951    7.4108    0.2316 C.ar    1  LIG1        0.1852
     23 C          -2.7817    8.5275   -0.3773 C.ar    1  LIG1        0.0691
     24 C          -4.2126    8.4851   -0.1630 C.ar    1  LIG1        0.0762
     25 C          -4.4504    7.3457    0.5406 C.ar    1  LIG1        0.1092
     26 O          -3.3066    6.7010    0.7909 O.2     1  LIG1       -0.4574
     27 H          -5.3582    6.9027    0.9098 H       1  LIG1        0.1042
     28 S          -1.8984    9.7604   -1.2699 S.3     1  LIG1       -0.1377
     29 H          -2.9296   10.0173   -2.0845 H       1  LIG1        0.1073
     30 C          -5.1706    9.4337   -0.6421 C.1     1  LIG1       -0.0654
     31 C          -5.9529   10.2400   -1.0678 C.1     1  LIG1       -0.1138
     32 H          -6.6532   10.9517   -1.4402 H       1  LIG1        0.1232
@<TRIPOS>BOND
     1    11    10    1
     2    29    28    1
     3     8     7    1
     4    10     9    3
     5    32    31    1
     6    28    23    1
     7    31    30    3
     8     9     3    1
     9    30    24    1
    10    23    24   ar
    11    23    22   ar
    12     7     2    1
    13     3     2   ar
    14     3     4   ar
    15    24    25   ar
    16     2     1   ar
    17    22    15    1
    18    22    26   ar
    19    16    15   ar
    20    16    12   ar
    21     4    12    1
    22     4     5   ar
    23    15    14   ar
    24    12    13   ar
    25    25    26   ar
    26    25    27    1
    27    14    13   ar
    28    14    19    1
    29    13    17    1
    30     1     5   ar
    31     1     6    1
    32    19    20    3
    33    17    18    1
    34    20    21    1
