@<TRIPOS>MOLECULE
mol_data/opt/m06hf/geoms/mol2/12ge12ge.out
 22 23 0 0 0
SMALL
GASTEIGER

@<TRIPOS>ATOM
      1 C           0.2712    1.8437    0.5751 C.ar    1  LIG1        0.1071
      2 C           1.6020    1.8458    0.3267 C.ar    1  LIG1        0.0587
      3 C           1.9404    3.2181    0.0177 C.ar    1  LIG1        0.0866
      4 C           0.7725    3.9165    0.1248 C.ar    1  LIG1        0.1872
      5 O          -0.2333    3.0893    0.4674 O.2     1  LIG1       -0.4574
      6 H          -0.4154    1.0573    0.8344 H       1  LIG1        0.1041
      7 S           2.6898    0.4642    0.4467 S.3     1  LIG1       -0.1384
      8 H           3.2143    0.5970   -0.7778 H       1  LIG1        0.1072
      9 C           3.2101    3.7208   -0.4003 C.1     1  LIG1       -0.0647
     10 C           4.2766    4.1360   -0.7670 C.1     1  LIG1       -0.1138
     11 H           5.2168    4.5193   -1.0900 H       1  LIG1        0.1232
     12 C           0.4630    5.3254   -0.0519 C.ar    1  LIG1        0.1852
     13 C           1.1468    6.4647    0.2444 C.ar    1  LIG1        0.0691
     14 C           0.2881    7.5483   -0.1850 C.ar    1  LIG1        0.0762
     15 C          -0.8334    6.9610   -0.6820 C.ar    1  LIG1        0.1092
     16 O          -0.7332    5.6294   -0.6157 O.2     1  LIG1       -0.4574
     17 H          -1.7382    7.3684   -1.0973 H       1  LIG1        0.1042
     18 S           2.7217    6.6257    1.0123 S.3     1  LIG1       -0.1377
     19 H           2.4136    7.8011    1.5746 H       1  LIG1        0.1073
     20 C           0.5638    8.9477   -0.0672 C.1     1  LIG1       -0.0654
     21 C           0.8186   10.1162    0.0498 C.1     1  LIG1       -0.1138
     22 H           1.0409   11.1543    0.1450 H       1  LIG1        0.1232
@<TRIPOS>BOND
     1    17    15    1
     2    11    10    1
     3     8     7    1
     4    10     9    3
     5    15    16   ar
     6    15    14   ar
     7    16    12   ar
     8     9     3    1
     9    14    20    1
    10    14    13   ar
    11    20    21    3
    12    12     4    1
    13    12    13   ar
    14     3     4   ar
    15     3     2   ar
    16    21    22    1
    17     4     5   ar
    18    13    18    1
    19     2     7    1
    20     2     1   ar
    21     5     1   ar
    22     1     6    1
    23    18    19    1
