@<TRIPOS>MOLECULE
mol_data/opt/m06hf/geoms/mol2/12ge12ge-12ge-12ge.out
 42 45 0 0 0
SMALL
GASTEIGER

@<TRIPOS>ATOM
      1 C           0.8711    1.5903   -0.0761 C.ar    1  LIG1        0.1071
      2 C           2.1042    1.8222    0.4348 C.ar    1  LIG1        0.0587
      3 C           2.2491    3.2608    0.4685 C.ar    1  LIG1        0.0866
      4 C           1.0839    3.7576   -0.0412 C.ar    1  LIG1        0.1872
      5 O           0.2554    2.7506   -0.3757 O.2     1  LIG1       -0.4574
      6 H           0.3303    0.6822   -0.2771 H       1  LIG1        0.1041
      7 S           3.2963    0.6058    0.8898 S.3     1  LIG1       -0.1384
      8 H           3.4494    1.0302    2.1502 H       1  LIG1        0.1072
      9 C           3.3407    4.0073    1.0071 C.1     1  LIG1       -0.0647
     10 C           4.2545    4.6309    1.4760 C.1     1  LIG1       -0.1138
     11 H           5.0597    5.1963    1.8849 H       1  LIG1        0.1232
     12 C           0.6252    5.1200   -0.2531 C.ar    1  LIG1        0.1863
     13 C           1.2689    6.2561   -0.6433 C.ar    1  LIG1        0.0699
     14 C           0.2569    7.2865   -0.6441 C.ar    1  LIG1        0.0874
     15 C          -0.9026    6.6752   -0.2586 C.ar    1  LIG1        0.1882
     16 O          -0.6834    5.3743   -0.0148 O.2     1  LIG1       -0.4461
     17 S           2.9548    6.4506   -1.1092 S.3     1  LIG1       -0.1377
     18 H           2.6684    7.3590   -2.0503 H       1  LIG1        0.1073
     19 C           0.4130    8.6411   -1.0688 C.1     1  LIG1       -0.0646
     20 C           0.5488    9.7740   -1.4463 C.1     1  LIG1       -0.1138
     21 H           0.6543   10.7820   -1.7754 H       1  LIG1        0.1232
     22 C          -2.2478    7.1934   -0.0783 C.ar    1  LIG1        0.1863
     23 C          -2.7120    8.3679    0.4321 C.ar    1  LIG1        0.0699
     24 C          -4.1492    8.2942    0.3130 C.ar    1  LIG1        0.0874
     25 C          -4.4186    7.0695   -0.2289 C.ar    1  LIG1        0.1882
     26 O          -3.2772    6.4099   -0.4800 O.2     1  LIG1       -0.4461
     27 S          -1.7829    9.7052    1.0972 S.3     1  LIG1       -0.1377
     28 H          -2.6851    9.9724    2.0484 H       1  LIG1        0.1073
     29 C          -5.0914    9.3107    0.6554 C.1     1  LIG1       -0.0646
     30 C          -5.8793   10.1714    0.9422 C.1     1  LIG1       -0.1138
     31 H          -6.5896   10.9266    1.1879 H       1  LIG1        0.1232
     32 C          -5.6758    6.4146   -0.5491 C.ar    1  LIG1        0.1852
     33 C          -6.8825    6.3872    0.0810 C.ar    1  LIG1        0.0691
     34 C          -7.7296    5.5624   -0.7536 C.ar    1  LIG1        0.0762
     35 C          -6.9501    5.1617   -1.7939 C.ar    1  LIG1        0.1092
     36 O          -5.7206    5.6752   -1.6846 O.2     1  LIG1       -0.4574
     37 H          -7.1502    4.5357   -2.6456 H       1  LIG1        0.1042
     38 S          -7.3372    7.1537    1.5989 S.3     1  LIG1       -0.1377
     39 H          -8.1589    6.1544    1.9487 H       1  LIG1        0.1073
     40 C          -9.0967    5.2224   -0.5029 C.1     1  LIG1       -0.0654
     41 C         -10.2424    4.9485   -0.2670 C.1     1  LIG1       -0.1138
     42 H         -11.2618    4.7101   -0.0678 H       1  LIG1        0.1232
@<TRIPOS>BOND
     1    37    35    1
     2    18    17    1
     3    35    36   ar
     4    35    34   ar
     5    21    20    1
     6    36    32   ar
     7    20    19    3
     8    17    13    1
     9    19    14    1
    10    34    40    1
    11    34    33   ar
    12    14    13   ar
    13    14    15   ar
    14    13    12   ar
    15    32    25    1
    16    32    33   ar
    17    40    41    3
    18    26    25   ar
    19    26    22   ar
    20     5     1   ar
    21     5     4   ar
    22     6     1    1
    23    41    42    1
    24    15    22    1
    25    15    16   ar
    26    12     4    1
    27    12    16   ar
    28    25    24   ar
    29    22    23   ar
    30     1     2   ar
    31     4     3   ar
    32    33    38    1
    33    24    23   ar
    34    24    29    1
    35    23    27    1
    36     2     3   ar
    37     2     7    1
    38     3     9    1
    39    29    30    3
    40     7     8    1
    41    30    31    1
    42     9    10    3
    43    27    28    1
    44    10    11    1
    45    38    39    1
