@<TRIPOS>MOLECULE
mol_data/opt/m06hf/geoms/mol2/12ge12ge12ge-12ge.out
 42 45 0 0 0
SMALL
GASTEIGER

@<TRIPOS>ATOM
      1 C           1.0402    2.1790    2.0730 C.ar    1  LIG1        0.1071
      2 C           2.0802    2.0078    1.2228 C.ar    1  LIG1        0.0587
      3 C           2.1342    3.2120    0.4232 C.ar    1  LIG1        0.0866
      4 C           1.1196    4.0015    0.8827 C.ar    1  LIG1        0.1872
      5 O           0.4632    3.3806    1.8817 O.2     1  LIG1       -0.4574
      6 H           0.6212    1.5494    2.8382 H       1  LIG1        0.1041
      7 S           3.1742    0.6260    1.1760 S.3     1  LIG1       -0.1384
      8 H           2.9014    0.2755   -0.0864 H       1  LIG1        0.1072
      9 C           3.0044    3.4845   -0.6757 C.1     1  LIG1       -0.0647
     10 C           3.7266    3.7025   -1.6108 C.1     1  LIG1       -0.1138
     11 H           4.3629    3.9079   -2.4402 H       1  LIG1        0.1232
     12 C           0.6683    5.3259    0.4915 C.ar    1  LIG1        0.1863
     13 C           1.3372    6.4462    0.0984 C.ar    1  LIG1        0.0699
     14 C           0.3128    7.4274   -0.1734 C.ar    1  LIG1        0.0874
     15 C          -0.8760    6.8176    0.1121 C.ar    1  LIG1        0.1882
     16 O          -0.6681    5.5498    0.4975 O.2     1  LIG1       -0.4461
     17 S           3.0739    6.6844   -0.0506 S.3     1  LIG1       -0.1377
     18 H           3.0028    7.9810    0.2780 H       1  LIG1        0.1073
     19 C           0.5027    8.7516   -0.6726 C.1     1  LIG1       -0.0646
     20 C           0.6709    9.8633   -1.0971 C.1     1  LIG1       -0.1138
     21 H           0.8038   10.8490   -1.4794 H       1  LIG1        0.1232
     22 C          -2.2450    7.3037    0.0713 C.ar    1  LIG1        0.1863
     23 C          -2.8052    8.4982    0.4098 C.ar    1  LIG1        0.0699
     24 C          -4.2130    8.3568    0.1188 C.ar    1  LIG1        0.0874
     25 C          -4.3741    7.0798   -0.3403 C.ar    1  LIG1        0.1882
     26 O          -3.1909    6.4484   -0.3840 O.2     1  LIG1       -0.4461
     27 S          -2.0048    9.9248    1.0582 S.3     1  LIG1       -0.1377
     28 H          -3.0366   10.2572    1.8458 H       1  LIG1        0.1073
     29 C          -5.2198    9.3613    0.2504 C.1     1  LIG1       -0.0646
     30 C          -6.0561   10.2174    0.3624 C.1     1  LIG1       -0.1138
     31 H          -6.8067   10.9688    0.4529 H       1  LIG1        0.1232
     32 C          -5.5528    6.3432   -0.7641 C.ar    1  LIG1        0.1852
     33 C          -6.8324    6.3037   -0.3020 C.ar    1  LIG1        0.0691
     34 C          -7.5195    5.3633   -1.1617 C.ar    1  LIG1        0.0762
     35 C          -6.5881    4.9197   -2.0479 C.ar    1  LIG1        0.1092
     36 O          -5.4094    5.5091   -1.8231 O.2     1  LIG1       -0.4574
     37 H          -6.6398    4.2125   -2.8566 H       1  LIG1        0.1042
     38 S          -7.5289    7.1698    1.0624 S.3     1  LIG1       -0.1377
     39 H          -8.3619    6.1682    1.3773 H       1  LIG1        0.1073
     40 C          -8.8902    4.9660   -1.0616 C.1     1  LIG1       -0.0654
     41 C         -10.0420    4.6440   -0.9514 C.1     1  LIG1       -0.1138
     42 H         -11.0652    4.3605   -0.8626 H       1  LIG1        0.1232
@<TRIPOS>BOND
     1    37    35    1
     2    11    10    1
     3    35    36   ar
     4    35    34   ar
     5    36    32   ar
     6    10     9    3
     7    21    20    1
     8    34    40    1
     9    34    33   ar
    10    20    19    3
    11    40    41    3
    12    41    42    1
    13    32    25    1
    14    32    33   ar
    15     9     3    1
    16    19    14    1
    17    26    25   ar
    18    26    22   ar
    19    25    24   ar
    20    33    38    1
    21    14    13   ar
    22    14    15   ar
    23     8     7    1
    24    17    13    1
    25    17    18    1
    26    22    15    1
    27    22    23   ar
    28    13    12   ar
    29    15    16   ar
    30    24    29    1
    31    24    23   ar
    32    29    30    3
    33    30    31    1
    34    23    27    1
    35     3     4   ar
    36     3     2   ar
    37    12    16   ar
    38    12     4    1
    39     4     5   ar
    40    27    28    1
    41    38    39    1
    42     7     2    1
    43     2     1   ar
    44     5     1   ar
    45     1     6    1
