@<TRIPOS>MOLECULE
mol_data/opt/m06hf/geoms/mol2/12gf12gf-12gf.out
 29 31 0 0 0
SMALL
GASTEIGER

@<TRIPOS>ATOM
      1 C           0.3894    1.7654    0.3845 C.ar    1  LIG1        0.1096
      2 C           1.6907    1.8217    0.0076 C.ar    1  LIG1        0.0849
      3 C           1.9787    3.2179   -0.1882 C.ar    1  LIG1        0.1792
      4 C           0.8201    3.8876    0.0949 C.ar    1  LIG1        0.2131
      5 O          -0.1468    2.9925    0.4349 O.2     1  LIG1       -0.4549
      6 H          -0.2517    0.9389    0.6363 H       1  LIG1        0.1042
      7 S           2.7852    0.4747   -0.2915 S.3     1  LIG1       -0.1361
      8 H           3.7968    0.9715    0.4292 H       1  LIG1        0.1073
      9 O           3.1907    3.6471   -0.5727 O.3     1  LIG1       -0.5024
     10 H           3.2820    4.6038   -0.4226 H       1  LIG1        0.2923
     11 C           0.4299    5.2868    0.0706 C.ar    1  LIG1        0.1912
     12 C           1.1300    6.4615    0.0709 C.ar    1  LIG1        0.0962
     13 C           0.1477    7.5066    0.0225 C.ar    1  LIG1        0.1800
     14 C          -1.0679    6.8876    0.0125 C.ar    1  LIG1        0.2141
     15 O          -0.8878    5.5388    0.0507 O.2     1  LIG1       -0.4435
     16 S           2.8649    6.7064    0.2413 S.3     1  LIG1       -0.1353
     17 H           3.0484    7.3727   -0.9042 H       1  LIG1        0.1073
     18 O           0.4818    8.8067   -0.0366 O.3     1  LIG1       -0.5024
     19 H          -0.2406    9.3588    0.3083 H       1  LIG1        0.2923
     20 C          -2.4318    7.3814   -0.0581 C.ar    1  LIG1        0.1901
     21 C          -3.0070    8.5615    0.3134 C.ar    1  LIG1        0.0954
     22 C          -4.3929    8.4461   -0.0490 C.ar    1  LIG1        0.1686
     23 C          -4.5484    7.2164   -0.5950 C.ar    1  LIG1        0.1352
     24 O          -3.3548    6.5694   -0.5975 O.2     1  LIG1       -0.4548
     25 H          -5.3924    6.6885   -0.9999 H       1  LIG1        0.1068
     26 S          -2.2698    9.8868    1.2089 S.3     1  LIG1       -0.1354
     27 H          -2.6413   10.8640    0.3736 H       1  LIG1        0.1073
     28 O          -5.2735    9.4536    0.1622 O.3     1  LIG1       -0.5029
     29 H          -6.1602    9.1956   -0.1103 H       1  LIG1        0.2923
@<TRIPOS>BOND
     1    25    23    1
     2    17    16    1
     3    24    23   ar
     4    24    20   ar
     5    23    22   ar
     6     9    10    1
     7     9     3    1
     8     7     2    1
     9     7     8    1
    10     3     2   ar
    11     3     4   ar
    12    29    28    1
    13    20    14    1
    14    20    21   ar
    15    22    28    1
    16    22    21   ar
    17    18    13    1
    18    18    19    1
    19     2     1   ar
    20    14    13   ar
    21    14    15   ar
    22    13    12   ar
    23    15    11   ar
    24    11    12   ar
    25    11     4    1
    26    12    16    1
    27     4     5   ar
    28    21    26    1
    29    27    26    1
    30     1     5   ar
    31     1     6    1
