@<TRIPOS>MOLECULE
mol_data/opt/m06hf/geoms/mol2/12gf12gf-12gf-12gf-.out
 38 41 0 0 0
SMALL
GASTEIGER

@<TRIPOS>ATOM
      1 C           0.3885    1.8300    0.0432 C.ar    1  LIG1        0.1096
      2 C           1.7430    1.8776    0.0038 C.ar    1  LIG1        0.0849
      3 C           2.0843    3.2742    0.0344 C.ar    1  LIG1        0.1792
      4 C           0.8971    3.9556    0.0881 C.ar    1  LIG1        0.2131
      5 O          -0.1314    3.0632    0.0835 O.2     1  LIG1       -0.4549
      6 H          -0.3040    1.0065    0.0445 H       1  LIG1        0.1042
      7 S           2.8654    0.5311   -0.1631 S.3     1  LIG1       -0.1361
      8 H           3.7112    0.9559    0.7814 H       1  LIG1        0.1073
      9 O           3.3600    3.6844    0.0304 O.3     1  LIG1       -0.5024
     10 H           3.4164    4.6499    0.1446 H       1  LIG1        0.2923
     11 C           0.5203    5.3582    0.1098 C.ar    1  LIG1        0.1912
     12 C           1.2203    6.5356    0.1379 C.ar    1  LIG1        0.0962
     13 C           0.2380    7.5819    0.1303 C.ar    1  LIG1        0.1800
     14 C          -0.9821    6.9619    0.0970 C.ar    1  LIG1        0.2142
     15 O          -0.7925    5.6106    0.0913 O.2     1  LIG1       -0.4435
     16 S           2.9558    6.8000    0.2598 S.3     1  LIG1       -0.1353
     17 H           3.1784    7.1117   -1.0226 H       1  LIG1        0.1073
     18 O           0.5903    8.8721    0.1416 O.3     1  LIG1       -0.5024
     19 H          -0.1930    9.4474    0.2145 H       1  LIG1        0.2923
     20 C          -2.3619    7.4078    0.0440 C.ar    1  LIG1        0.1912
     21 C          -2.9689    8.6359    0.0451 C.ar    1  LIG1        0.0962
     22 C          -4.3795    8.3802   -0.0392 C.ar    1  LIG1        0.1800
     23 C          -4.5204    7.0217   -0.0761 C.ar    1  LIG1        0.2141
     24 O          -3.2869    6.4430   -0.0186 O.2     1  LIG1       -0.4435
     25 S          -2.2470   10.2334    0.1997 S.3     1  LIG1       -0.1353
     26 H          -2.3436   10.5961   -1.0863 H       1  LIG1        0.1073
     27 O          -5.2754    9.3736   -0.1034 O.3     1  LIG1       -0.5024
     28 H          -6.1772    9.0400    0.0507 H       1  LIG1        0.2923
     29 C          -5.6534    6.1196   -0.1839 C.ar    1  LIG1        0.1901
     30 C          -6.9946    6.2648    0.0406 C.ar    1  LIG1        0.0954
     31 C          -7.5772    4.9855   -0.2661 C.ar    1  LIG1        0.1686
     32 C          -6.5565    4.1744   -0.6328 C.ar    1  LIG1        0.1352
     33 O          -5.3895    4.8701   -0.5866 O.2     1  LIG1       -0.4548
     34 H          -6.4978    3.1444   -0.9330 H       1  LIG1        0.1068
     35 S          -7.8801    7.6978    0.5531 S.3     1  LIG1       -0.1354
     36 H          -7.7633    7.5244    1.8758 H       1  LIG1        0.1073
     37 O          -8.9041    4.7495   -0.1505 O.3     1  LIG1       -0.5029
     38 H          -9.1213    3.8630   -0.4574 H       1  LIG1        0.2923
@<TRIPOS>BOND
     1    26    25    1
     2    17    16    1
     3    34    32    1
     4    32    33   ar
     5    32    31   ar
     6    33    29   ar
     7    38    37    1
     8    31    37    1
     9    31    30   ar
    10    29    23    1
    11    29    30   ar
    12     7     2    1
    13     7     8    1
    14    27    22    1
    15    27    28    1
    16    23    22   ar
    17    23    24   ar
    18    22    21   ar
    19    24    20   ar
    20     2     3   ar
    21     2     1   ar
    22     9     3    1
    23     9    10    1
    24     3     4   ar
    25    30    35    1
    26     1     6    1
    27     1     5   ar
    28    20    21   ar
    29    20    14    1
    30    21    25    1
    31     5     4   ar
    32     4    11    1
    33    15    14   ar
    34    15    11   ar
    35    14    13   ar
    36    11    12   ar
    37    13    12   ar
    38    13    18    1
    39    12    16    1
    40    18    19    1
    41    35    36    1
