@<TRIPOS>MOLECULE
mol_data/opt/m06hf/geoms/mol2/12gf12gf-12gf-.out
 29 31 0 0 0
SMALL
GASTEIGER

@<TRIPOS>ATOM
      1 C           0.3053    1.8411   -0.0270 C.ar    1  LIG1        0.1096
      2 C           1.6605    1.8755   -0.0010 C.ar    1  LIG1        0.0849
      3 C           2.0142    3.2702    0.0310 C.ar    1  LIG1        0.1792
      4 C           0.8319    3.9619    0.0196 C.ar    1  LIG1        0.2131
      5 O          -0.2048    3.0773   -0.0069 O.2     1  LIG1       -0.4549
      6 H          -0.3911    1.0212   -0.0555 H       1  LIG1        0.1042
      7 S           2.7673    0.5074    0.0781 S.3     1  LIG1       -0.1361
      8 H           3.4454    0.8204   -1.0306 H       1  LIG1        0.1073
      9 O           3.2917    3.6713    0.0427 O.3     1  LIG1       -0.5024
     10 H           3.3537    4.6427    0.0459 H       1  LIG1        0.2923
     11 C           0.4626    5.3672    0.0459 C.ar    1  LIG1        0.1912
     12 C           1.1651    6.5413    0.0935 C.ar    1  LIG1        0.0962
     13 C           0.1847    7.5904    0.1113 C.ar    1  LIG1        0.1800
     14 C          -1.0350    6.9751    0.0662 C.ar    1  LIG1        0.2141
     15 O          -0.8503    5.6242    0.0186 O.2     1  LIG1       -0.4435
     16 S           2.9053    6.7996    0.0557 S.3     1  LIG1       -0.1353
     17 H           3.0621    7.1413    1.3404 H       1  LIG1        0.1073
     18 O           0.5379    8.8791    0.1981 O.3     1  LIG1       -0.5024
     19 H          -0.2293    9.4622    0.0576 H       1  LIG1        0.2923
     20 C          -2.4140    7.4317    0.0755 C.ar    1  LIG1        0.1901
     21 C          -3.0097    8.6507   -0.1028 C.ar    1  LIG1        0.0954
     22 C          -4.4214    8.4145    0.0436 C.ar    1  LIG1        0.1686
     23 C          -4.5699    7.0905    0.2830 C.ar    1  LIG1        0.1352
     24 O          -3.3460    6.4980    0.3066 O.2     1  LIG1       -0.4548
     25 H          -5.4224    6.4576    0.4487 H       1  LIG1        0.1068
     26 S          -2.2610   10.2184   -0.3903 S.3     1  LIG1       -0.1354
     27 H          -2.3067   10.2004   -1.7284 H       1  LIG1        0.1073
     28 O          -5.3355    9.4050   -0.0754 O.3     1  LIG1       -0.5029
     29 H          -6.2213    9.0739    0.1059 H       1  LIG1        0.2923
@<TRIPOS>BOND
     1    27    26    1
     2     8     7    1
     3    26    21    1
     4    21    22   ar
     5    21    20   ar
     6    28    22    1
     7    28    29    1
     8     6     1    1
     9     1     5   ar
    10     1     2   ar
    11     5     4   ar
    12     2     3   ar
    13     2     7    1
    14    15    11   ar
    15    15    14   ar
    16     4     3   ar
    17     4    11    1
    18     3     9    1
    19     9    10    1
    20    22    23   ar
    21    11    12   ar
    22    16    12    1
    23    16    17    1
    24    19    18    1
    25    14    20    1
    26    14    13   ar
    27    20    24   ar
    28    12    13   ar
    29    13    18    1
    30    23    24   ar
    31    23    25    1
