@<TRIPOS>MOLECULE
mol_data/opt/m06hf/geoms/mol2/12gf12gf12gf12gf.out
 38 41 0 0 0
SMALL
GASTEIGER

@<TRIPOS>ATOM
      1 C           0.4979    1.8399    0.3710 C.ar    1  LIG1        0.1096
      2 C           1.8048    1.8910    0.0110 C.ar    1  LIG1        0.0849
      3 C           2.0932    3.2838   -0.2093 C.ar    1  LIG1        0.1792
      4 C           0.9284    3.9570    0.0463 C.ar    1  LIG1        0.2131
      5 O          -0.0405    3.0642    0.3923 O.2     1  LIG1       -0.4549
      6 H          -0.1441    1.0156    0.6278 H       1  LIG1        0.1042
      7 S           2.8994    0.5340   -0.2397 S.3     1  LIG1       -0.1361
      8 H           3.8037    0.9211    0.6657 H       1  LIG1        0.1073
      9 O           3.3079    3.7068   -0.5849 O.3     1  LIG1       -0.5024
     10 H           3.3785    4.6743   -0.5101 H       1  LIG1        0.2923
     11 C           0.5252    5.3515   -0.0077 C.ar    1  LIG1        0.1912
     12 C           1.2068    6.5328   -0.1185 C.ar    1  LIG1        0.0962
     13 C           0.2122    7.5664   -0.1299 C.ar    1  LIG1        0.1800
     14 C          -0.9964    6.9360   -0.0113 C.ar    1  LIG1        0.2142
     15 O          -0.7901    5.5898    0.0660 O.2     1  LIG1       -0.4435
     16 S           2.9430    6.8178   -0.1073 S.3     1  LIG1       -0.1353
     17 H           3.0366    7.3182   -1.3457 H       1  LIG1        0.1073
     18 O           0.5464    8.8551   -0.2656 O.3     1  LIG1       -0.5024
     19 H          -0.2237    9.4334   -0.1144 H       1  LIG1        0.2923
     20 C          -2.3758    7.3792    0.0576 C.ar    1  LIG1        0.1912
     21 C          -2.9697    8.6020    0.2257 C.ar    1  LIG1        0.0962
     22 C          -4.3853    8.3594    0.2174 C.ar    1  LIG1        0.1800
     23 C          -4.5400    7.0115    0.0469 C.ar    1  LIG1        0.2141
     24 O          -3.3106    6.4297   -0.0557 O.2     1  LIG1       -0.4435
     25 S          -2.2215   10.1869    0.3935 S.3     1  LIG1       -0.1353
     26 H          -2.1892   10.2330    1.7320 H       1  LIG1        0.1073
     27 O          -5.2734    9.3443    0.3985 O.3     1  LIG1       -0.5024
     28 H          -6.1769    9.0408    0.1989 H       1  LIG1        0.2923
     29 C          -5.6821    6.1163   -0.0190 C.ar    1  LIG1        0.1901
     30 C          -7.0203    6.3084   -0.2279 C.ar    1  LIG1        0.0954
     31 C          -7.6115    4.9980   -0.1654 C.ar    1  LIG1        0.1686
     32 C          -6.5986    4.1274    0.0584 C.ar    1  LIG1        0.1352
     33 O          -5.4283    4.8129    0.1526 O.2     1  LIG1       -0.4548
     34 H          -6.5481    3.0596    0.1692 H       1  LIG1        0.1068
     35 S          -7.8926    7.8159   -0.4865 S.3     1  LIG1       -0.1354
     36 H          -7.7956    7.8588   -1.8213 H       1  LIG1        0.1073
     37 O          -8.9383    4.7953   -0.3336 O.3     1  LIG1       -0.5029
     38 H          -9.1578    3.8637   -0.2261 H       1  LIG1        0.2923
@<TRIPOS>BOND
     1    36    35    1
     2    17    16    1
     3     9    10    1
     4     9     3    1
     5    35    30    1
     6    37    38    1
     7    37    31    1
     8    18    13    1
     9    18    19    1
    10     7     2    1
    11     7     8    1
    12    30    31   ar
    13    30    29   ar
    14     3     2   ar
    15     3     4   ar
    16    31    32   ar
    17    13    12   ar
    18    13    14   ar
    19    12    16    1
    20    12    11   ar
    21    24    23   ar
    22    24    20   ar
    23    29    23    1
    24    29    33   ar
    25    14    20    1
    26    14    15   ar
    27    11     4    1
    28    11    15   ar
    29     2     1   ar
    30     4     5   ar
    31    23    22   ar
    32    20    21   ar
    33    32    33   ar
    34    32    34    1
    35    28    27    1
    36    22    21   ar
    37    22    27    1
    38    21    25    1
    39     1     5   ar
    40     1     6    1
    41    25    26    1
