@<TRIPOS>MOLECULE
mol_data/opt/m06hf/geoms/mol2/12gf12gf12gf-.out
 29 31 0 0 0
SMALL
GASTEIGER

@<TRIPOS>ATOM
      1 C           0.3072    1.8418    0.0447 C.ar    1  LIG1        0.1096
      2 C           1.6627    1.8769    0.0380 C.ar    1  LIG1        0.0849
      3 C           2.0159    3.2718    0.0048 C.ar    1  LIG1        0.1792
      4 C           0.8332    3.9628   -0.0038 C.ar    1  LIG1        0.2131
      5 O          -0.2032    3.0776    0.0119 O.2     1  LIG1       -0.4549
      6 H          -0.3890    1.0216    0.0670 H       1  LIG1        0.1042
      7 S           2.7712    0.5092   -0.0192 S.3     1  LIG1       -0.1361
      8 H           3.4334    0.8276    1.0976 H       1  LIG1        0.1073
      9 O           3.2933    3.6736    0.0096 O.3     1  LIG1       -0.5024
     10 H           3.3547    4.6450    0.0030 H       1  LIG1        0.2923
     11 C           0.4636    5.3676   -0.0416 C.ar    1  LIG1        0.1912
     12 C           1.1660    6.5420   -0.0844 C.ar    1  LIG1        0.0962
     13 C           0.1854    7.5904   -0.1209 C.ar    1  LIG1        0.1800
     14 C          -1.0345    6.9746   -0.0904 C.ar    1  LIG1        0.2141
     15 O          -0.8497    5.6240   -0.0342 O.2     1  LIG1       -0.4435
     16 S           2.9053    6.8015   -0.0231 S.3     1  LIG1       -0.1353
     17 H           3.0803    7.1376   -1.3069 H       1  LIG1        0.1073
     18 O           0.5391    8.8789   -0.2084 O.3     1  LIG1       -0.5024
     19 H          -0.2304    9.4621   -0.0815 H       1  LIG1        0.2923
     20 C          -2.4135    7.4302   -0.1213 C.ar    1  LIG1        0.1901
     21 C          -3.0124    8.6496    0.0429 C.ar    1  LIG1        0.0954
     22 C          -4.4218    8.4118   -0.1223 C.ar    1  LIG1        0.1686
     23 C          -4.5660    7.0867   -0.3579 C.ar    1  LIG1        0.1352
     24 O          -3.3416    6.4949   -0.3614 O.2     1  LIG1       -0.4548
     25 H          -5.4157    6.4524   -0.5327 H       1  LIG1        0.1068
     26 S          -2.2687   10.2191    0.3340 S.3     1  LIG1       -0.1354
     27 H          -2.3335   10.2070    1.6714 H       1  LIG1        0.1073
     28 O          -5.3380    9.4022   -0.0207 O.3     1  LIG1       -0.5029
     29 H          -6.2210    9.0698   -0.2131 H       1  LIG1        0.2923
@<TRIPOS>BOND
     1    17    16    1
     2    25    23    1
     3    24    23   ar
     4    24    20   ar
     5    23    22   ar
     6    29    28    1
     7    18    13    1
     8    18    19    1
     9    22    28    1
    10    22    21   ar
    11    20    14    1
    12    20    21   ar
    13    13    14   ar
    14    13    12   ar
    15    14    15   ar
    16    12    11   ar
    17    12    16    1
    18    11    15   ar
    19    11     4    1
    20     7     2    1
    21     7     8    1
    22     4     3   ar
    23     4     5   ar
    24    10     9    1
    25     3     9    1
    26     3     2   ar
    27     5     1   ar
    28     2     1   ar
    29    21    26    1
    30     1     6    1
    31    26    27    1
