@<TRIPOS>MOLECULE
mol_data/opt/m06hf/geoms/mol2/12gf12gf12gf-12gf.out
 38 41 0 0 0
SMALL
GASTEIGER

@<TRIPOS>ATOM
      1 C           0.4902    1.8657    0.6321 C.ar    1  LIG1        0.1096
      2 C           1.7991    1.8945    0.2770 C.ar    1  LIG1        0.0849
      3 C           2.0899    3.2717   -0.0241 C.ar    1  LIG1        0.1792
      4 C           0.9246    3.9593    0.1850 C.ar    1  LIG1        0.2131
      5 O          -0.0469    3.0898    0.5794 O.2     1  LIG1       -0.4549
      6 H          -0.1538    1.0584    0.9340 H       1  LIG1        0.1042
      7 S           2.8925    0.5234    0.1119 S.3     1  LIG1       -0.1361
      8 H           3.7807    0.9489    1.0162 H       1  LIG1        0.1073
      9 O           3.3053    3.6719   -0.4221 O.3     1  LIG1       -0.5024
     10 H           3.3816    4.6411   -0.3860 H       1  LIG1        0.2923
     11 C           0.5248    5.3481    0.0387 C.ar    1  LIG1        0.1912
     12 C           1.2139    6.5199   -0.1156 C.ar    1  LIG1        0.0962
     13 C           0.2236    7.5519   -0.2260 C.ar    1  LIG1        0.1800
     14 C          -0.9904    6.9310   -0.1131 C.ar    1  LIG1        0.2142
     15 O          -0.7919    5.5915    0.0510 O.2     1  LIG1       -0.4435
     16 S           2.9495    6.8015   -0.0524 S.3     1  LIG1       -0.1353
     17 H           3.0854    7.2697   -1.2989 H       1  LIG1        0.1073
     18 O           0.5663    8.8294   -0.4298 O.3     1  LIG1       -0.5024
     19 H          -0.2048    9.4176   -0.3312 H       1  LIG1        0.2923
     20 C          -2.3686    7.3825   -0.1249 C.ar    1  LIG1        0.1912
     21 C          -2.9583    8.6146   -0.0267 C.ar    1  LIG1        0.0962
     22 C          -4.3737    8.3837   -0.1027 C.ar    1  LIG1        0.1800
     23 C          -4.5334    7.0307   -0.2259 C.ar    1  LIG1        0.2141
     24 O          -3.3053    6.4360   -0.2421 O.2     1  LIG1       -0.4435
     25 S          -2.2045   10.1994    0.1176 S.3     1  LIG1       -0.1353
     26 H          -2.1916   10.2745    1.4551 H       1  LIG1        0.1073
     27 O          -5.2568    9.3871   -0.0460 O.3     1  LIG1       -0.5024
     28 H          -6.1691    9.0468   -0.0053 H       1  LIG1        0.2923
     29 C          -5.6756    6.1408   -0.3482 C.ar    1  LIG1        0.1901
     30 C          -7.0255    6.3019   -0.1904 C.ar    1  LIG1        0.0954
     31 C          -7.6029    5.0149   -0.4737 C.ar    1  LIG1        0.1686
     32 C          -6.5742    4.1849   -0.7672 C.ar    1  LIG1        0.1352
     33 O          -5.4055    4.8758   -0.6943 O.2     1  LIG1       -0.4548
     34 H          -6.5095    3.1448   -1.0285 H       1  LIG1        0.1068
     35 S          -7.9329    7.7572    0.2101 S.3     1  LIG1       -0.1354
     36 H          -7.9878    7.5798    1.5364 H       1  LIG1        0.1073
     37 O          -8.9356    4.7939   -0.4037 O.3     1  LIG1       -0.5029
     38 H          -9.1486    3.8974   -0.6829 H       1  LIG1        0.2923
@<TRIPOS>BOND
     1    17    16    1
     2    34    32    1
     3    32    33   ar
     4    32    31   ar
     5    33    29   ar
     6    38    37    1
     7    31    37    1
     8    31    30   ar
     9    18    19    1
    10    18    13    1
    11     9    10    1
    12     9     3    1
    13    29    23    1
    14    29    30   ar
    15    24    23   ar
    16    24    20   ar
    17    13    12   ar
    18    13    14   ar
    19    23    22   ar
    20    30    35    1
    21    20    14    1
    22    20    21   ar
    23    12    16    1
    24    12    11   ar
    25    14    15   ar
    26    22    27    1
    27    22    21   ar
    28    27    28    1
    29    21    25    1
    30     3     4   ar
    31     3     2   ar
    32    11    15   ar
    33    11     4    1
    34     7     2    1
    35     7     8    1
    36    25    26    1
    37     4     5   ar
    38    35    36    1
    39     2     1   ar
    40     5     1   ar
    41     1     6    1
