@<TRIPOS>MOLECULE
mol_data/opt/m06hf/geoms/mol2/12gf12gf-12gf12gf-.out
 38 41 0 0 0
SMALL
GASTEIGER

@<TRIPOS>ATOM
      1 C           0.7725    1.8324    1.0073 C.ar    1  LIG1        0.1096
      2 C           1.9012    1.8474    0.2557 C.ar    1  LIG1        0.0849
      3 C           2.0501    3.2068   -0.1926 C.ar    1  LIG1        0.1792
      4 C           0.9970    3.8973    0.3373 C.ar    1  LIG1        0.2131
      5 O           0.2176    3.0514    1.0630 O.2     1  LIG1       -0.4549
      6 H           0.2721    1.0407    1.5370 H       1  LIG1        0.1042
      7 S           2.9013    0.4716   -0.2018 S.3     1  LIG1       -0.1361
      8 H           4.0649    1.0264    0.1520 H       1  LIG1        0.1073
      9 O           3.0616    3.6002   -0.9830 O.3     1  LIG1       -0.5024
     10 H           3.1686    4.5658   -0.9497 H       1  LIG1        0.2923
     11 C           0.5590    5.2764    0.2204 C.ar    1  LIG1        0.1912
     12 C           1.2248    6.4422   -0.0306 C.ar    1  LIG1        0.0962
     13 C           0.2246    7.4688   -0.0688 C.ar    1  LIG1        0.1800
     14 C          -0.9677    6.8490    0.1794 C.ar    1  LIG1        0.2142
     15 O          -0.7532    5.5172    0.3618 O.2     1  LIG1       -0.4435
     16 S           2.9607    6.7019   -0.1780 S.3     1  LIG1       -0.1353
     17 H           2.8934    7.4037   -1.3151 H       1  LIG1        0.1073
     18 O           0.5280    8.7468   -0.3449 O.3     1  LIG1       -0.5024
     19 H          -0.1804    9.3406   -0.0403 H       1  LIG1        0.2923
     20 C          -2.3442    7.3064    0.2187 C.ar    1  LIG1        0.1912
     21 C          -2.9196    8.5343    0.3929 C.ar    1  LIG1        0.0962
     22 C          -4.3353    8.3247    0.2900 C.ar    1  LIG1        0.1800
     23 C          -4.5081    6.9870    0.0747 C.ar    1  LIG1        0.2141
     24 O          -3.2925    6.3760    0.0416 O.2     1  LIG1       -0.4435
     25 S          -2.1418   10.0612    0.7978 S.3     1  LIG1       -0.1353
     26 H          -2.5647   10.7418   -0.2742 H       1  LIG1        0.1073
     27 O          -5.2171    9.3337    0.3754 O.3     1  LIG1       -0.5024
     28 H          -6.0963    8.9960    0.6195 H       1  LIG1        0.2923
     29 C          -5.6704    6.1456   -0.1563 C.ar    1  LIG1        0.1901
     30 C          -7.0011    6.2901    0.1133 C.ar    1  LIG1        0.0954
     31 C          -7.6281    5.0989   -0.3909 C.ar    1  LIG1        0.1686
     32 C          -6.6410    4.3332   -0.9142 C.ar    1  LIG1        0.1352
     33 O          -5.4513    4.9714   -0.7664 O.2     1  LIG1       -0.4548
     34 H          -6.6224    3.3702   -1.3909 H       1  LIG1        0.1068
     35 S          -7.7995    7.5652    1.0289 S.3     1  LIG1       -0.1354
     36 H          -8.6235    7.9696    0.0554 H       1  LIG1        0.1073
     37 O          -8.9651    4.9060   -0.3038 O.3     1  LIG1       -0.5029
     38 H          -9.2079    4.0320   -0.6268 H       1  LIG1        0.2923
@<TRIPOS>BOND
     1    34    32    1
     2    17    16    1
     3     9    10    1
     4     9     3    1
     5    32    33   ar
     6    32    31   ar
     7    33    29   ar
     8    38    37    1
     9    31    37    1
    10    31    30   ar
    11    18    13    1
    12    18    19    1
    13    26    25    1
    14     7     8    1
    15     7     2    1
    16     3     2   ar
    17     3     4   ar
    18    16    12    1
    19    29    23    1
    20    29    30   ar
    21    13    12   ar
    22    13    14   ar
    23    12    11   ar
    24    24    23   ar
    25    24    20   ar
    26    36    35    1
    27    23    22   ar
    28    30    35    1
    29    14    20    1
    30    14    15   ar
    31    20    21   ar
    32    11     4    1
    33    11    15   ar
    34     2     1   ar
    35    22    27    1
    36    22    21   ar
    37     4     5   ar
    38    27    28    1
    39    21    25    1
    40     1     5   ar
    41     1     6    1
