@<TRIPOS>MOLECULE
mol_data/opt/m06hf/geoms/mol2/12gf12gf12gf-12gf-.out
 38 41 0 0 0
SMALL
GASTEIGER

@<TRIPOS>ATOM
      1 C           0.4851    1.8671    0.6566 C.ar    1  LIG1        0.1096
      2 C           1.7918    1.8887    0.2933 C.ar    1  LIG1        0.0849
      3 C           2.0841    3.2618   -0.0245 C.ar    1  LIG1        0.1792
      4 C           0.9217    3.9546    0.1844 C.ar    1  LIG1        0.2131
      5 O          -0.0495    3.0918    0.5939 O.2     1  LIG1       -0.4549
      6 H          -0.1590    1.0647    0.9712 H       1  LIG1        0.1042
      7 S           2.8810    0.5133    0.1363 S.3     1  LIG1       -0.1361
      8 H           3.7759    0.9467    1.0303 H       1  LIG1        0.1073
      9 O           3.2980    3.6547   -0.4341 O.3     1  LIG1       -0.5024
     10 H           3.3767    4.6241   -0.4094 H       1  LIG1        0.2923
     11 C           0.5244    5.3427    0.0253 C.ar    1  LIG1        0.1912
     12 C           1.2151    6.5111   -0.1462 C.ar    1  LIG1        0.0962
     13 C           0.2265    7.5442   -0.2616 C.ar    1  LIG1        0.1800
     14 C          -0.9881    6.9274   -0.1342 C.ar    1  LIG1        0.2142
     15 O          -0.7917    5.5893    0.0433 O.2     1  LIG1       -0.4435
     16 S           2.9518    6.7892   -0.0968 S.3     1  LIG1       -0.1353
     17 H           3.0811    7.2438   -1.3490 H       1  LIG1        0.1073
     18 O           0.5709    8.8186   -0.4815 O.3     1  LIG1       -0.5024
     19 H          -0.1983    9.4096   -0.3848 H       1  LIG1        0.2923
     20 C          -2.3653    7.3821   -0.1424 C.ar    1  LIG1        0.1912
     21 C          -2.9516    8.6166   -0.0542 C.ar    1  LIG1        0.0962
     22 C          -4.3679    8.3883   -0.1187 C.ar    1  LIG1        0.1800
     23 C          -4.5315    7.0344   -0.2258 C.ar    1  LIG1        0.2141
     24 O          -3.3050    6.4366   -0.2431 O.2     1  LIG1       -0.4435
     25 S          -2.1931   10.2011    0.0681 S.3     1  LIG1       -0.1353
     26 H          -2.1714   10.2908    1.4045 H       1  LIG1        0.1073
     27 O          -5.2484    9.3943   -0.0674 O.3     1  LIG1       -0.5024
     28 H          -6.1611    9.0566   -0.0167 H       1  LIG1        0.2923
     29 C          -5.6766    6.1460   -0.3314 C.ar    1  LIG1        0.1901
     30 C          -7.0250    6.3119   -0.1663 C.ar    1  LIG1        0.0954
     31 C          -7.6073    5.0234   -0.4322 C.ar    1  LIG1        0.1686
     32 C          -6.5825    4.1880   -0.7238 C.ar    1  LIG1        0.1352
     33 O          -5.4117    4.8768   -0.6660 O.2     1  LIG1       -0.4548
     34 H          -6.5219    3.1451   -0.9744 H       1  LIG1        0.1068
     35 S          -7.9264    7.7736    0.2247 S.3     1  LIG1       -0.1354
     36 H          -7.9733    7.6103    1.5531 H       1  LIG1        0.1073
     37 O          -8.9399    4.8063   -0.3510 O.3     1  LIG1       -0.5029
     38 H          -9.1570    3.9076   -0.6197 H       1  LIG1        0.2923
@<TRIPOS>BOND
     1    17    16    1
     2    34    32    1
     3    32    33   ar
     4    32    31   ar
     5    33    29   ar
     6    38    37    1
     7    18    19    1
     8    18    13    1
     9     9    10    1
    10     9     3    1
    11    31    37    1
    12    31    30   ar
    13    29    23    1
    14    29    30   ar
    15    13    12   ar
    16    13    14   ar
    17    24    23   ar
    18    24    20   ar
    19    23    22   ar
    20    30    35    1
    21    12    16    1
    22    12    11   ar
    23    20    14    1
    24    20    21   ar
    25    14    15   ar
    26    22    27    1
    27    22    21   ar
    28    27    28    1
    29    21    25    1
    30     3     4   ar
    31     3     2   ar
    32    11    15   ar
    33    11     4    1
    34    25    26    1
    35     7     2    1
    36     7     8    1
    37     4     5   ar
    38    35    36    1
    39     2     1   ar
    40     5     1   ar
    41     1     6    1
