@<TRIPOS>MOLECULE
mol_data/opt/m06hf/geoms/mol2/12gf12gf12gf.out
 29 31 0 0 0
SMALL
GASTEIGER

@<TRIPOS>ATOM
      1 C           0.3038    1.8414    0.0598 C.ar    1  LIG1        0.1096
      2 C           1.6593    1.8752    0.0487 C.ar    1  LIG1        0.0849
      3 C           2.0136    3.2696    0.0079 C.ar    1  LIG1        0.1792
      4 C           0.8315    3.9616   -0.0003 C.ar    1  LIG1        0.2131
      5 O          -0.2057    3.0775    0.0226 O.2     1  LIG1       -0.4549
      6 H          -0.3931    1.0219    0.0881 H       1  LIG1        0.1042
      7 S           2.7664    0.5063   -0.0054 S.3     1  LIG1       -0.1361
      8 H           3.4322    0.8293    1.1079 H       1  LIG1        0.1073
      9 O           3.2914    3.6702    0.0068 O.3     1  LIG1       -0.5024
     10 H           3.3536    4.6416   -0.0046 H       1  LIG1        0.2923
     11 C           0.4630    5.3666   -0.0437 C.ar    1  LIG1        0.1912
     12 C           1.1663    6.5401   -0.0942 C.ar    1  LIG1        0.0962
     13 C           0.1865    7.5892   -0.1327 C.ar    1  LIG1        0.1800
     14 C          -1.0338    6.9746   -0.0956 C.ar    1  LIG1        0.2141
     15 O          -0.8501    5.6242   -0.0335 O.2     1  LIG1       -0.4435
     16 S           2.9061    6.7984   -0.0393 S.3     1  LIG1       -0.1353
     17 H           3.0774    7.1282   -1.3253 H       1  LIG1        0.1073
     18 O           0.5411    8.8770   -0.2273 O.3     1  LIG1       -0.5024
     19 H          -0.2275    9.4615   -0.1008 H       1  LIG1        0.2923
     20 C          -2.4125    7.4314   -0.1246 C.ar    1  LIG1        0.1901
     21 C          -3.0098    8.6521    0.0358 C.ar    1  LIG1        0.0954
     22 C          -4.4199    8.4148   -0.1242 C.ar    1  LIG1        0.1686
     23 C          -4.5660    7.0888   -0.3531 C.ar    1  LIG1        0.1352
     24 O          -3.3421    6.4958   -0.3575 O.2     1  LIG1       -0.4548
     25 H          -5.4168    6.4545   -0.5225 H       1  LIG1        0.1068
     26 S          -2.2638   10.2222    0.3174 S.3     1  LIG1       -0.1354
     27 H          -2.3246   10.2164    1.6549 H       1  LIG1        0.1073
     28 O          -5.3349    9.4065   -0.0245 O.3     1  LIG1       -0.5029
     29 H          -6.2187    9.0740   -0.2127 H       1  LIG1        0.2923
@<TRIPOS>BOND
     1    17    16    1
     2    25    23    1
     3    24    23   ar
     4    24    20   ar
     5    23    22   ar
     6    18    13    1
     7    18    19    1
     8    29    28    1
     9    13    14   ar
    10    13    12   ar
    11    20    14    1
    12    20    21   ar
    13    22    28    1
    14    22    21   ar
    15    14    15   ar
    16    12    11   ar
    17    12    16    1
    18    11    15   ar
    19    11     4    1
    20     7     2    1
    21     7     8    1
    22    10     9    1
    23     4     3   ar
    24     4     5   ar
    25     9     3    1
    26     3     2   ar
    27     5     1   ar
    28    21    26    1
    29     2     1   ar
    30     1     6    1
    31    26    27    1
