@<TRIPOS>MOLECULE
mol_data/opt/m06hf/geoms/mol2/12gf12gf12gf12gf-.out
 38 41 0 0 0
SMALL
GASTEIGER

@<TRIPOS>ATOM
      1 C           0.4978    1.8422    0.3923 C.ar    1  LIG1        0.1096
      2 C           1.8045    1.8908    0.0312 C.ar    1  LIG1        0.0849
      3 C           2.0929    3.2820   -0.1985 C.ar    1  LIG1        0.1792
      4 C           0.9283    3.9570    0.0532 C.ar    1  LIG1        0.2131
      5 O          -0.0405    3.0667    0.4057 O.2     1  LIG1       -0.4549
      6 H          -0.1442    1.0197    0.6550 H       1  LIG1        0.1042
      7 S           2.8988    0.5320   -0.2112 S.3     1  LIG1       -0.1361
      8 H           3.8041    0.9256    0.6904 H       1  LIG1        0.1073
      9 O           3.3074    3.7023   -0.5774 O.3     1  LIG1       -0.5024
     10 H           3.3781    4.6704   -0.5097 H       1  LIG1        0.2923
     11 C           0.5252    5.3512   -0.0098 C.ar    1  LIG1        0.1912
     12 C           1.2069    6.5316   -0.1297 C.ar    1  LIG1        0.0962
     13 C           0.2124    7.5653   -0.1471 C.ar    1  LIG1        0.1800
     14 C          -0.9961    6.9358   -0.0225 C.ar    1  LIG1        0.2142
     15 O          -0.7900    5.5901    0.0640 O.2     1  LIG1       -0.4435
     16 S           2.9431    6.8163   -0.1220 S.3     1  LIG1       -0.1353
     17 H           3.0361    7.3079   -1.3639 H       1  LIG1        0.1073
     18 O           0.5465    8.8529   -0.2924 O.3     1  LIG1       -0.5024
     19 H          -0.2231    9.4324   -0.1435 H       1  LIG1        0.2923
     20 C          -2.3754    7.3797    0.0453 C.ar    1  LIG1        0.1912
     21 C          -2.9690    8.6036    0.2062 C.ar    1  LIG1        0.0962
     22 C          -4.3845    8.3612    0.2014 C.ar    1  LIG1        0.1800
     23 C          -4.5396    7.0122    0.0398 C.ar    1  LIG1        0.2141
     24 O          -3.3104    6.4296   -0.0607 O.2     1  LIG1       -0.4435
     25 S          -2.2204   10.1895    0.3631 S.3     1  LIG1       -0.1353
     26 H          -2.1863   10.2439    1.7011 H       1  LIG1        0.1073
     27 O          -5.2723    9.3473    0.3775 O.3     1  LIG1       -0.5024
     28 H          -6.1760    9.0428    0.1801 H       1  LIG1        0.2923
     29 C          -5.6820    6.1169   -0.0186 C.ar    1  LIG1        0.1901
     30 C          -7.0205    6.3080   -0.2268 C.ar    1  LIG1        0.0954
     31 C          -7.6121    4.9983   -0.1547 C.ar    1  LIG1        0.1686
     32 C          -6.5991    4.1289    0.0734 C.ar    1  LIG1        0.1352
     33 O          -5.4285    4.8146    0.1614 O.2     1  LIG1       -0.4548
     34 H          -6.5488    3.0618    0.1912 H       1  LIG1        0.1068
     35 S          -7.8928    7.8140   -0.4944 S.3     1  LIG1       -0.1354
     36 H          -7.7979    7.8477   -1.8297 H       1  LIG1        0.1073
     37 O          -8.9392    4.7951   -0.3199 O.3     1  LIG1       -0.5029
     38 H          -9.1598    3.8651   -0.2013 H       1  LIG1        0.2923
@<TRIPOS>BOND
     1    36    35    1
     2    17    16    1
     3     9    10    1
     4     9     3    1
     5    35    30    1
     6    37    38    1
     7    37    31    1
     8    18    13    1
     9    18    19    1
    10    30    31   ar
    11    30    29   ar
    12     7     2    1
    13     7     8    1
    14     3     2   ar
    15     3     4   ar
    16    31    32   ar
    17    13    12   ar
    18    13    14   ar
    19    12    16    1
    20    12    11   ar
    21    24    23   ar
    22    24    20   ar
    23    14    20    1
    24    14    15   ar
    25    29    23    1
    26    29    33   ar
    27    11     4    1
    28    11    15   ar
    29     2     1   ar
    30    23    22   ar
    31    20    21   ar
    32     4     5   ar
    33    32    33   ar
    34    32    34    1
    35    28    27    1
    36    22    21   ar
    37    22    27    1
    38    21    25    1
    39    25    26    1
    40     1     5   ar
    41     1     6    1
