@<TRIPOS>MOLECULE
mol_data/opt/m06hf/geoms/mol2/12gf12gf-12gf-12gf.out
 38 41 0 0 0
SMALL
GASTEIGER

@<TRIPOS>ATOM
      1 C           0.3918    1.8322    0.0509 C.ar    1  LIG1        0.1096
      2 C           1.7463    1.8809    0.0128 C.ar    1  LIG1        0.0849
      3 C           2.0864    3.2778    0.0423 C.ar    1  LIG1        0.1792
      4 C           0.8985    3.9583    0.0943 C.ar    1  LIG1        0.2131
      5 O          -0.1292    3.0650    0.0896 O.2     1  LIG1       -0.4549
      6 H          -0.3000    1.0081    0.0523 H       1  LIG1        0.1042
      7 S           2.8700    0.5352   -0.1517 S.3     1  LIG1       -0.1361
      8 H           3.7145    0.9616    0.7932 H       1  LIG1        0.1073
      9 O           3.3617    3.6890    0.0392 O.3     1  LIG1       -0.5024
     10 H           3.4172    4.6547    0.1525 H       1  LIG1        0.2923
     11 C           0.5206    5.3606    0.1143 C.ar    1  LIG1        0.1912
     12 C           1.2195    6.5386    0.1418 C.ar    1  LIG1        0.0962
     13 C           0.2363    7.5841    0.1322 C.ar    1  LIG1        0.1800
     14 C          -0.9832    6.9630    0.0983 C.ar    1  LIG1        0.2142
     15 O          -0.7924    5.6119    0.0942 O.2     1  LIG1       -0.4435
     16 S           2.9546    6.8046    0.2652 S.3     1  LIG1       -0.1353
     17 H           3.1783    7.1152   -1.0173 H       1  LIG1        0.1073
     18 O           0.5875    8.8746    0.1426 O.3     1  LIG1       -0.5024
     19 H          -0.1963    9.4493    0.2142 H       1  LIG1        0.2923
     20 C          -2.3634    7.4076    0.0436 C.ar    1  LIG1        0.1912
     21 C          -2.9714    8.6352    0.0428 C.ar    1  LIG1        0.0962
     22 C          -4.3817    8.3782   -0.0425 C.ar    1  LIG1        0.1800
     23 C          -4.5214    7.0196   -0.0782 C.ar    1  LIG1        0.2141
     24 O          -3.2874    6.4420   -0.0190 O.2     1  LIG1       -0.4435
     25 S          -2.2510   10.2335    0.1966 S.3     1  LIG1       -0.1353
     26 H          -2.3466   10.5948   -1.0898 H       1  LIG1        0.1073
     27 O          -5.2784    9.3708   -0.1086 O.3     1  LIG1       -0.5024
     28 H          -6.1800    9.0366    0.0452 H       1  LIG1        0.2923
     29 C          -5.6535    6.1164   -0.1863 C.ar    1  LIG1        0.1901
     30 C          -6.9951    6.2607    0.0368 C.ar    1  LIG1        0.0954
     31 C          -7.5763    4.9806   -0.2693 C.ar    1  LIG1        0.1686
     32 C          -6.5545    4.1701   -0.6344 C.ar    1  LIG1        0.1352
     33 O          -5.3882    4.8668   -0.5877 O.2     1  LIG1       -0.4548
     34 H          -6.4947    3.1399   -0.9337 H       1  LIG1        0.1068
     35 S          -7.8822    7.6934    0.5474 S.3     1  LIG1       -0.1354
     36 H          -7.7666    7.5212    1.8703 H       1  LIG1        0.1073
     37 O          -8.9031    4.7436   -0.1548 O.3     1  LIG1       -0.5029
     38 H          -9.1193    3.8566   -0.4611 H       1  LIG1        0.2923
@<TRIPOS>BOND
     1    26    25    1
     2    17    16    1
     3    34    32    1
     4    32    33   ar
     5    32    31   ar
     6    33    29   ar
     7    38    37    1
     8    31    37    1
     9    31    30   ar
    10    29    23    1
    11    29    30   ar
    12     7     2    1
    13     7     8    1
    14    27    22    1
    15    27    28    1
    16    23    22   ar
    17    23    24   ar
    18    22    21   ar
    19    24    20   ar
    20     2     3   ar
    21     2     1   ar
    22    30    35    1
    23     9     3    1
    24     9    10    1
    25     3     4   ar
    26    21    20   ar
    27    21    25    1
    28    20    14    1
    29     1     6    1
    30     1     5   ar
    31     5     4   ar
    32    15    14   ar
    33    15    11   ar
    34     4    11    1
    35    14    13   ar
    36    11    12   ar
    37    13    12   ar
    38    13    18    1
    39    12    16    1
    40    18    19    1
    41    35    36    1
