@<TRIPOS>MOLECULE
mol_data/opt/m06hf/geoms/mol2/12gf12gf-.out
 20 21 0 0 0
SMALL
GASTEIGER

@<TRIPOS>ATOM
      1 C           0.2455    1.8257    0.3063 C.ar    1  LIG1        0.1096
      2 C           1.5804    1.8771    0.0792 C.ar    1  LIG1        0.0849
      3 C           1.8993    3.2745   -0.0430 C.ar    1  LIG1        0.1792
      4 C           0.7254    3.9498    0.1293 C.ar    1  LIG1        0.2131
      5 O          -0.2778    3.0619    0.3566 O.2     1  LIG1       -0.4549
      6 H          -0.4311    1.0027    0.4567 H       1  LIG1        0.1042
      7 S           2.7250    0.5389    0.0287 S.3     1  LIG1       -0.1361
      8 H           3.4989    1.0799   -0.9188 H       1  LIG1        0.1073
      9 O           3.1425    3.7041   -0.3263 O.3     1  LIG1       -0.5024
     10 H           3.2489    4.6357   -0.0687 H       1  LIG1        0.2923
     11 C           0.3626    5.3575    0.0803 C.ar    1  LIG1        0.1901
     12 C           1.0753    6.5132    0.2220 C.ar    1  LIG1        0.0954
     13 C           0.1268    7.5781    0.0390 C.ar    1  LIG1        0.1686
     14 C          -1.0730    6.9930   -0.1878 C.ar    1  LIG1        0.1352
     15 O          -0.9274    5.6425   -0.1588 O.2     1  LIG1       -0.4548
     16 H          -2.0611    7.3734   -0.3724 H       1  LIG1        0.1068
     17 S           2.7640    6.7062    0.6838 S.3     1  LIG1       -0.1354
     18 H           3.1332    7.4277   -0.3819 H       1  LIG1        0.1073
     19 O           0.4951    8.8801    0.0975 O.3     1  LIG1       -0.5029
     20 H          -0.2649    9.4592   -0.0227 H       1  LIG1        0.2923
@<TRIPOS>BOND
     1     8     7    1
     2    18    17    1
     3    16    14    1
     4     9    10    1
     5     9     3    1
     6    14    15   ar
     7    14    13   ar
     8    15    11   ar
     9     3     2   ar
    10     3     4   ar
    11    20    19    1
    12     7     2    1
    13    13    19    1
    14    13    12   ar
    15     2     1   ar
    16    11     4    1
    17    11    12   ar
    18     4     5   ar
    19    12    17    1
    20     1     5   ar
    21     1     6    1
