@<TRIPOS>MOLECULE
mol_data/opt/m06hf/geoms/mol2/12gf12gf.out
 20 21 0 0 0
SMALL
GASTEIGER

@<TRIPOS>ATOM
      1 C           0.2468    1.8798   -0.2499 C.ar    1  LIG1        0.1096
      2 C           1.5945    1.9057   -0.1058 C.ar    1  LIG1        0.0849
      3 C           1.9454    3.2952    0.0300 C.ar    1  LIG1        0.1792
      4 C           0.7712    3.9934   -0.0473 C.ar    1  LIG1        0.2131
      5 O          -0.2585    3.1198   -0.2290 O.2     1  LIG1       -0.4549
      6 H          -0.4485    1.0686   -0.3798 H       1  LIG1        0.1042
      7 S           2.7084    0.5437   -0.1736 S.3     1  LIG1       -0.1361
      8 H           3.3332    0.8253    0.9744 H       1  LIG1        0.1073
      9 O           3.2137    3.6839    0.2256 O.3     1  LIG1       -0.5024
     10 H           3.2853    4.6546    0.2259 H       1  LIG1        0.2923
     11 C           0.4045    5.4003    0.0210 C.ar    1  LIG1        0.1901
     12 C           1.1127    6.5703    0.0556 C.ar    1  LIG1        0.0954
     13 C           0.1272    7.6171    0.1215 C.ar    1  LIG1        0.1686
     14 C          -1.0828    7.0112    0.1132 C.ar    1  LIG1        0.1352
     15 O          -0.9091    5.6636    0.0583 O.2     1  LIG1       -0.4548
     16 H          -2.0952    7.3711    0.1387 H       1  LIG1        0.1068
     17 S           2.8564    6.8136    0.0815 S.3     1  LIG1       -0.1354
     18 H           3.0233    7.0559   -1.2236 H       1  LIG1        0.1073
     19 O           0.4693    8.9258    0.1581 O.3     1  LIG1       -0.5029
     20 H          -0.3105    9.4822    0.2569 H       1  LIG1        0.2923
@<TRIPOS>BOND
     1    18    17    1
     2     6     1    1
     3     1     5   ar
     4     1     2   ar
     5     5     4   ar
     6     7     2    1
     7     7     8    1
     8     2     3   ar
     9     4    11    1
    10     4     3   ar
    11    11    12   ar
    12    11    15   ar
    13     3     9    1
    14    12    17    1
    15    12    13   ar
    16    15    14   ar
    17    14    13   ar
    18    14    16    1
    19    13    19    1
    20    19    20    1
    21     9    10    1
