@<TRIPOS>MOLECULE
mol_data/opt/m06hf/geoms/mol2/12gf.out
 11 11 0 0 0
SMALL
GASTEIGER

@<TRIPOS>ATOM
      1 C           0.1073    1.9254   -0.0001 C.ar    1  LIG1        0.1085
      2 C           1.4611    1.9022    0.0000 C.ar    1  LIG1        0.0842
      3 C           1.8624    3.2846   -0.0000 C.ar    1  LIG1        0.1679
      4 C           0.7263    4.0219   -0.0001 C.ar    1  LIG1        0.1341
      5 O          -0.3455    3.1949   -0.0001 O.2     1  LIG1       -0.4662
      6 H          -0.6316    1.1442   -0.0001 H       1  LIG1        0.1042
      7 H           0.5344    5.0796   -0.0001 H       1  LIG1        0.1068
      8 S           2.5510    0.5149    0.0001 S.3     1  LIG1       -0.1361
      9 H           3.6568    1.2687    0.0002 H       1  LIG1        0.1073
     10 O           3.1726    3.6455    0.0000 O.3     1  LIG1       -0.5029
     11 H           3.2676    4.6034   -0.0000 H       1  LIG1        0.2923
@<TRIPOS>BOND
     1     7     4    1
     2     4     5   ar
     3     4     3   ar
     4     5     1   ar
     5     6     1    1
     6     1     2   ar
     7     3    10    1
     8     3     2   ar
     9    11    10    1
    10     2     8    1
    11     8     9    1
