@<TRIPOS>MOLECULE
mol_data/opt/m06hf/geoms/mol2/12gf12gf-12gf12gf.out
 38 41 0 0 0
SMALL
GASTEIGER

@<TRIPOS>ATOM
      1 C           0.4928    1.8684   -0.6760 C.ar    1  LIG1        0.1096
      2 C           1.7929    1.8864   -0.2896 C.ar    1  LIG1        0.0849
      3 C           2.0809    3.2572    0.0418 C.ar    1  LIG1        0.1792
      4 C           0.9230    3.9525   -0.1832 C.ar    1  LIG1        0.2131
      5 O          -0.0416    3.0932   -0.6152 O.2     1  LIG1       -0.4549
      6 H          -0.1464    1.0686   -1.0068 H       1  LIG1        0.1042
      7 S           2.8778    0.5089   -0.1219 S.3     1  LIG1       -0.1361
      8 H           3.7891    0.9470   -0.9968 H       1  LIG1        0.1073
      9 O           3.2877    3.6464    0.4751 O.3     1  LIG1       -0.5024
     10 H           3.3678    4.6158    0.4575 H       1  LIG1        0.2923
     11 C           0.5243    5.3400   -0.0228 C.ar    1  LIG1        0.1912
     12 C           1.2131    6.5066    0.1681 C.ar    1  LIG1        0.0962
     13 C           0.2236    7.5401    0.2720 C.ar    1  LIG1        0.1800
     14 C          -0.9892    6.9255    0.1192 C.ar    1  LIG1        0.2142
     15 O          -0.7910    5.5882   -0.0628 O.2     1  LIG1       -0.4435
     16 S           2.9506    6.7830    0.1513 S.3     1  LIG1       -0.1353
     17 H           3.0582    7.2294    1.4085 H       1  LIG1        0.1073
     18 O           0.5653    8.8127    0.5055 O.3     1  LIG1       -0.5024
     19 H          -0.2014    9.4053    0.3987 H       1  LIG1        0.2923
     20 C          -2.3658    7.3817    0.1055 C.ar    1  LIG1        0.1912
     21 C          -2.9491    8.6173    0.0145 C.ar    1  LIG1        0.0962
     22 C          -4.3667    8.3903    0.0523 C.ar    1  LIG1        0.1800
     23 C          -4.5335    7.0359    0.1482 C.ar    1  LIG1        0.2141
     24 O          -3.3081    6.4366    0.1836 O.2     1  LIG1       -0.4435
     25 S          -2.1870   10.2017   -0.0846 S.3     1  LIG1       -0.1353
     26 H          -2.1414   10.2994   -1.4200 H       1  LIG1        0.1073
     27 O          -5.2450    9.3976   -0.0084 O.3     1  LIG1       -0.5024
     28 H          -6.1570    9.0613   -0.0776 H       1  LIG1        0.2923
     29 C          -5.6812    6.1481    0.2275 C.ar    1  LIG1        0.1901
     30 C          -7.0263    6.3165    0.0391 C.ar    1  LIG1        0.0954
     31 C          -7.6145    5.0270    0.2865 C.ar    1  LIG1        0.1686
     32 C          -6.5959    4.1887    0.5912 C.ar    1  LIG1        0.1352
     33 O          -5.4236    4.8766    0.5589 O.2     1  LIG1       -0.4548
     34 H          -6.5409    3.1441    0.8365 H       1  LIG1        0.1068
     35 S          -7.9190    7.7815   -0.3589 S.3     1  LIG1       -0.1354
     36 H          -7.9420    7.6267   -1.6890 H       1  LIG1        0.1073
     37 O          -8.9456    4.8118    0.1797 O.3     1  LIG1       -0.5029
     38 H          -9.1683    3.9117    0.4392 H       1  LIG1        0.2923
@<TRIPOS>BOND
     1    36    35    1
     2    26    25    1
     3     6     1    1
     4     8     7    1
     5     1     5   ar
     6     1     2   ar
     7     5     4   ar
     8    35    30    1
     9     2     7    1
    10     2     3   ar
    11     4    11    1
    12     4     3   ar
    13    25    21    1
    14    28    27    1
    15    15    11   ar
    16    15    14   ar
    17    11    12   ar
    18    27    22    1
    19    21    22   ar
    20    21    20   ar
    21    30    29   ar
    22    30    31   ar
    23     3     9    1
    24    22    23   ar
    25    20    14    1
    26    20    24   ar
    27    14    13   ar
    28    23    24   ar
    29    23    29    1
    30    16    12    1
    31    16    17    1
    32    12    13   ar
    33    37    31    1
    34    37    38    1
    35    29    33   ar
    36    13    18    1
    37    31    32   ar
    38    19    18    1
    39    10     9    1
    40    33    32   ar
    41    32    34    1
