@<TRIPOS>MOLECULE
mol_data/opt/m06hf/geoms/mol2/12gg12gg12gg.out
 29 31 0 0 0
SMALL
GASTEIGER

@<TRIPOS>ATOM
      1 C           0.7845    1.6745    0.5548 C.ar    1  LIG1        0.1069
      2 C           1.8888    1.8835   -0.2046 C.ar    1  LIG1        0.0565
      3 C           1.9723    3.3114   -0.3950 C.ar    1  LIG1        0.0669
      4 C           0.9085    3.8317    0.2771 C.ar    1  LIG1        0.1850
      5 O           0.1887    2.8349    0.8557 O.2     1  LIG1       -0.4575
      6 H           0.3361    0.7731    0.9355 H       1  LIG1        0.1041
      7 S           3.0168    0.6520   -0.7745 S.3     1  LIG1       -0.1385
      8 H           2.6893    0.7353   -2.0708 H       1  LIG1        0.1072
      9 S           3.2051    4.0768   -1.3873 S.3     1  LIG1       -0.1378
     10 H           2.6946    5.3091   -1.2911 H       1  LIG1        0.1072
     11 C           0.4230    5.1941    0.4459 C.ar    1  LIG1        0.1860
     12 C           1.0408    6.3541    0.8107 C.ar    1  LIG1        0.0677
     13 C           0.0138    7.3678    0.7852 C.ar    1  LIG1        0.0677
     14 C          -1.1306    6.7245    0.4150 C.ar    1  LIG1        0.1860
     15 O          -0.8902    5.4224    0.1979 O.2     1  LIG1       -0.4463
     16 S           2.7229    6.5505    1.2885 S.3     1  LIG1       -0.1378
     17 H           2.6050    7.8737    1.4600 H       1  LIG1        0.1072
     18 S           0.1875    9.0460    1.3022 S.3     1  LIG1       -0.1378
     19 H           0.0256    9.6010    0.0940 H       1  LIG1        0.1072
     20 C          -2.4766    7.2365    0.1878 C.ar    1  LIG1        0.1850
     21 C          -2.9232    8.2492   -0.6020 C.ar    1  LIG1        0.0669
     22 C          -4.3502    8.3050   -0.3904 C.ar    1  LIG1        0.0565
     23 C          -4.6306    7.3031    0.4828 C.ar    1  LIG1        0.1069
     24 O          -3.5151    6.6581    0.8399 O.2     1  LIG1       -0.4575
     25 H          -5.5582    6.9628    0.9096 H       1  LIG1        0.1041
     26 S          -1.9571    9.1911   -1.7288 S.3     1  LIG1       -0.1378
     27 H          -2.9555   10.0244   -2.0481 H       1  LIG1        0.1072
     28 S          -5.5101    9.3881   -1.1657 S.3     1  LIG1       -0.1385
     29 H          -5.4414   10.3684   -0.2566 H       1  LIG1        0.1072
@<TRIPOS>BOND
     1     8     7    1
     2    27    26    1
     3    26    21    1
     4     9    10    1
     5     9     3    1
     6    28    22    1
     7    28    29    1
     8     7     2    1
     9    21    22   ar
    10    21    20   ar
    11     3     2   ar
    12     3     4   ar
    13    22    23   ar
    14     2     1   ar
    15    19    18    1
    16    20    14    1
    17    20    24   ar
    18    15    14   ar
    19    15    11   ar
    20     4    11    1
    21     4     5   ar
    22    14    13   ar
    23    11    12   ar
    24    23    24   ar
    25    23    25    1
    26     1     5   ar
    27     1     6    1
    28    13    12   ar
    29    13    18    1
    30    12    16    1
    31    16    17    1
