@<TRIPOS>MOLECULE
mol_data/opt/m06hf/geoms/mol2/12gg12gg-.out
 20 21 0 0 0
SMALL
GASTEIGER

@<TRIPOS>ATOM
      1 C           0.4049    1.8275    0.6707 C.ar    1  LIG1        0.1069
      2 C           1.6763    1.8952    0.2023 C.ar    1  LIG1        0.0565
      3 C           1.8947    3.2786   -0.1425 C.ar    1  LIG1        0.0669
      4 C           0.7330    3.9201    0.1608 C.ar    1  LIG1        0.1849
      5 O          -0.1718    3.0366    0.6542 O.2     1  LIG1       -0.4575
      6 H          -0.1834    1.0037    1.0357 H       1  LIG1        0.1041
      7 S           2.8305    0.5629    0.1122 S.3     1  LIG1       -0.1385
      8 H           2.8905    0.5072   -1.2253 H       1  LIG1        0.1072
      9 S           3.3784    3.8876   -0.8685 S.3     1  LIG1       -0.1378
     10 H           2.8420    5.0504   -1.2611 H       1  LIG1        0.1072
     11 C           0.3290    5.3128    0.0404 C.ar    1  LIG1        0.1849
     12 C           0.9394    6.4781    0.3946 C.ar    1  LIG1        0.0669
     13 C           0.0341    7.5287   -0.0152 C.ar    1  LIG1        0.0565
     14 C          -1.0439    6.9014   -0.5497 C.ar    1  LIG1        0.1069
     15 O          -0.8751    5.5745   -0.5320 O.2     1  LIG1       -0.4575
     16 H          -1.9647    7.2792   -0.9591 H       1  LIG1        0.1041
     17 S           2.4937    6.6717    1.1993 S.3     1  LIG1       -0.1378
     18 H           2.2311    7.9319    1.5699 H       1  LIG1        0.1072
     19 S           0.2003    9.2638    0.2563 S.3     1  LIG1       -0.1385
     20 H           1.0573    9.5087   -0.7442 H       1  LIG1        0.1072
@<TRIPOS>BOND
     1    10     9    1
     2     8     7    1
     3    16    14    1
     4     9     3    1
     5    20    19    1
     6    14    15   ar
     7    14    13   ar
     8    15    11   ar
     9     3     4   ar
    10     3     2   ar
    11    13    19    1
    12    13    12   ar
    13    11     4    1
    14    11    12   ar
    15     7     2    1
    16     4     5   ar
    17     2     1   ar
    18    12    17    1
    19     5     1   ar
    20     1     6    1
    21    17    18    1
