@<TRIPOS>MOLECULE
mol_data/opt/m06hf/geoms/mol2/12gg12gg12gg12gg.out
 38 41 0 0 0
SMALL
GASTEIGER

@<TRIPOS>ATOM
      1 C           1.1703    1.6607    0.1563 C.ar    1  LIG1        0.1069
      2 C           2.3791    1.9864   -0.3671 C.ar    1  LIG1        0.0565
      3 C           2.4296    3.4297   -0.3813 C.ar    1  LIG1        0.0669
      4 C           1.2372    3.8384    0.1363 C.ar    1  LIG1        0.1850
      5 O           0.4803    2.7624    0.4736 O.2     1  LIG1       -0.4575
      6 H           0.7050    0.7108    0.3548 H       1  LIG1        0.1041
      7 S           3.6396    0.8521   -0.8576 S.3     1  LIG1       -0.1385
      8 H           3.5304    1.0644   -2.1749 H       1  LIG1        0.1072
      9 S           3.7757    4.3352   -1.0575 S.3     1  LIG1       -0.1378
     10 H           3.4807    5.4947   -0.4514 H       1  LIG1        0.1072
     11 C           0.6350    5.1499    0.3433 C.ar    1  LIG1        0.1860
     12 C           1.0797    6.3021    0.9197 C.ar    1  LIG1        0.0677
     13 C          -0.0040    7.2469    0.8097 C.ar    1  LIG1        0.0677
     14 C          -1.0091    6.5750    0.1790 C.ar    1  LIG1        0.1860
     15 O          -0.6298    5.3171   -0.1061 O.2     1  LIG1       -0.4463
     16 S           2.6182    6.5358    1.7463 S.3     1  LIG1       -0.1378
     17 H           2.6202    7.8654    1.5864 H       1  LIG1        0.1072
     18 S          -0.0161    8.8717    1.4971 S.3     1  LIG1       -0.1378
     19 H          -0.3171    9.5086    0.3539 H       1  LIG1        0.1072
     20 C          -2.3540    6.9834   -0.2107 C.ar    1  LIG1        0.1860
     21 C          -2.8212    8.0719   -0.8844 C.ar    1  LIG1        0.0677
     22 C          -4.2518    7.9095   -0.9554 C.ar    1  LIG1        0.0677
     23 C          -4.5152    6.7301   -0.3241 C.ar    1  LIG1        0.1860
     24 O          -3.3760    6.1706    0.1269 O.2     1  LIG1       -0.4463
     25 S          -1.8464    9.3029   -1.6820 S.3     1  LIG1       -0.1378
     26 H          -2.7197   10.2974   -1.4827 H       1  LIG1        0.1072
     27 S          -5.3553    8.9947   -1.8029 S.3     1  LIG1       -0.1378
     28 H          -6.2368    9.1139   -0.7956 H       1  LIG1        0.1072
     29 C          -5.7681    6.0325   -0.0649 C.ar    1  LIG1        0.1850
     30 C          -6.9322    6.4392    0.5089 C.ar    1  LIG1        0.0669
     31 C          -7.8112    5.2942    0.4596 C.ar    1  LIG1        0.0565
     32 C          -7.0838    4.2993   -0.1106 C.ar    1  LIG1        0.1069
     33 O          -5.8597    4.7306   -0.4317 O.2     1  LIG1       -0.4575
     34 H          -7.3199    3.2728   -0.3320 H       1  LIG1        0.1041
     35 S          -7.2323    7.9961    1.2726 S.3     1  LIG1       -0.1378
     36 H          -8.5576    7.8280    1.3272 H       1  LIG1        0.1072
     37 S          -9.4535    5.1720    1.0964 S.3     1  LIG1       -0.1385
     38 H         -10.0910    5.5305   -0.0249 H       1  LIG1        0.1072
@<TRIPOS>BOND
     1     8     7    1
     2    27    22    1
     3    27    28    1
     4    25    26    1
     5    25    21    1
     6     9    10    1
     7     9     3    1
     8    22    21   ar
     9    22    23   ar
    10    21    20   ar
    11     7     2    1
    12    33    32   ar
    13    33    29   ar
    14     3     2   ar
    15     3     4   ar
    16     2     1   ar
    17    34    32    1
    18    23    29    1
    19    23    24   ar
    20    20    24   ar
    21    20    14    1
    22    32    31   ar
    23    15    14   ar
    24    15    11   ar
    25    29    30   ar
    26    38    37    1
    27     4    11    1
    28     4     5   ar
    29     1     6    1
    30     1     5   ar
    31    14    13   ar
    32    11    12   ar
    33    19    18    1
    34    31    30   ar
    35    31    37    1
    36    30    35    1
    37    13    12   ar
    38    13    18    1
    39    12    16    1
    40    35    36    1
    41    17    16    1
