@<TRIPOS>MOLECULE
mol_data/opt/m06hf/geoms/mol2/12gg12gg-12gg-.out
 29 31 0 0 0
SMALL
GASTEIGER

@<TRIPOS>ATOM
      1 C           0.7297    1.9717    1.2839 C.ar    1  LIG1        0.1069
      2 C           1.6864    1.8474    0.3303 C.ar    1  LIG1        0.0565
      3 C           1.7660    3.1329   -0.3216 C.ar    1  LIG1        0.0669
      4 C           0.8502    3.9168    0.3112 C.ar    1  LIG1        0.1850
      5 O           0.2220    3.2128    1.2848 O.2     1  LIG1       -0.4575
      6 H           0.3331    1.2742    2.0010 H       1  LIG1        0.1041
      7 S           2.5393    0.3622   -0.0976 S.3     1  LIG1       -0.1385
      8 H           3.7686    0.8135    0.1761 H       1  LIG1        0.1072
      9 S           2.8157    3.4774   -1.6928 S.3     1  LIG1       -0.1378
     10 H           3.0346    4.7581   -1.3590 H       1  LIG1        0.1072
     11 C           0.4229    5.2980    0.1158 C.ar    1  LIG1        0.1860
     12 C           1.0974    6.4764    0.0164 C.ar    1  LIG1        0.0677
     13 C           0.0947    7.4925   -0.1848 C.ar    1  LIG1        0.0677
     14 C          -1.1002    6.8377   -0.1680 C.ar    1  LIG1        0.1860
     15 O          -0.9087    5.5202    0.0137 O.2     1  LIG1       -0.4463
     16 S           2.8276    6.7290    0.2264 S.3     1  LIG1       -0.1378
     17 H           2.9048    7.7158   -0.6754 H       1  LIG1        0.1072
     18 S           0.3694    9.1937   -0.5571 S.3     1  LIG1       -0.1378
     19 H           0.6034    9.5867    0.7010 H       1  LIG1        0.1072
     20 C          -2.4751    7.3009   -0.3036 C.ar    1  LIG1        0.1850
     21 C          -3.1442    8.3668    0.2141 C.ar    1  LIG1        0.0669
     22 C          -4.4895    8.2641   -0.3025 C.ar    1  LIG1        0.0565
     23 C          -4.5104    7.1402   -1.0612 C.ar    1  LIG1        0.1069
     24 O          -3.3042    6.5568   -1.0739 O.2     1  LIG1       -0.4575
     25 H          -5.2962    6.6637   -1.6215 H       1  LIG1        0.1041
     26 S          -2.5208    9.6178    1.2832 S.3     1  LIG1       -0.1378
     27 H          -3.6538    9.7050    1.9915 H       1  LIG1        0.1072
     28 S          -5.8727    9.2896    0.0791 S.3     1  LIG1       -0.1385
     29 H          -5.4292   10.3802   -0.5592 H       1  LIG1        0.1072
@<TRIPOS>BOND
     1     9    10    1
     2     9     3    1
     3    25    23    1
     4    24    23   ar
     5    24    20   ar
     6    23    22   ar
     7    17    16    1
     8    29    28    1
     9    18    13    1
    10    18    19    1
    11     3     4   ar
    12     3     2   ar
    13    20    14    1
    14    20    21   ar
    15    22    28    1
    16    22    21   ar
    17    13    14   ar
    18    13    12   ar
    19    14    15   ar
    20     7     8    1
    21     7     2    1
    22    15    11   ar
    23    12    11   ar
    24    12    16    1
    25    11     4    1
    26    21    26    1
    27     4     5   ar
    28     2     1   ar
    29    26    27    1
    30     1     5   ar
    31     1     6    1
