@<TRIPOS>MOLECULE
mol_data/opt/m06hf/geoms/mol2/12gg12gg12gg12gg-.out
 38 41 0 0 0
SMALL
GASTEIGER

@<TRIPOS>ATOM
      1 C           1.1741    1.6650    0.1768 C.ar    1  LIG1        0.1069
      2 C           2.3837    1.9901   -0.3451 C.ar    1  LIG1        0.0565
      3 C           2.4328    3.4334   -0.3643 C.ar    1  LIG1        0.0669
      4 C           1.2389    3.8428    0.1494 C.ar    1  LIG1        0.1850
      5 O           0.4823    2.7672    0.4887 O.2     1  LIG1       -0.4575
      6 H           0.7093    0.7154    0.3777 H       1  LIG1        0.1041
      7 S           3.6465    0.8554   -0.8288 S.3     1  LIG1       -0.1385
      8 H           3.5398    1.0627   -2.1471 H       1  LIG1        0.1072
      9 S           3.7795    4.3379   -1.0408 S.3     1  LIG1       -0.1378
     10 H           3.4816    5.4993   -0.4398 H       1  LIG1        0.1072
     11 C           0.6349    5.1544    0.3505 C.ar    1  LIG1        0.1860
     12 C           1.0770    6.3090    0.9240 C.ar    1  LIG1        0.0677
     13 C          -0.0075    7.2523    0.8083 C.ar    1  LIG1        0.0677
     14 C          -1.0103    6.5771    0.1774 C.ar    1  LIG1        0.1860
     15 O          -0.6290    5.3187   -0.1024 O.2     1  LIG1       -0.4463
     16 S           2.6133    6.5471    1.7535 S.3     1  LIG1       -0.1378
     17 H           2.6139    7.8762    1.5895 H       1  LIG1        0.1072
     18 S          -0.0229    8.8793    1.4901 S.3     1  LIG1       -0.1378
     19 H          -0.3218    9.5120    0.3440 H       1  LIG1        0.1072
     20 C          -2.3548    6.9827   -0.2168 C.ar    1  LIG1        0.1860
     21 C          -2.8217    8.0685   -0.8953 C.ar    1  LIG1        0.0677
     22 C          -4.2519    7.9041   -0.9690 C.ar    1  LIG1        0.0677
     23 C          -4.5154    6.7266   -0.3343 C.ar    1  LIG1        0.1860
     24 O          -3.3767    6.1699    0.1212 O.2     1  LIG1       -0.4463
     25 S          -1.8464    9.2979   -1.6946 S.3     1  LIG1       -0.1378
     26 H          -2.7213   10.2920   -1.5006 H       1  LIG1        0.1072
     27 S          -5.3547    8.9854   -1.8224 S.3     1  LIG1       -0.1378
     28 H          -6.2384    9.1070   -0.8173 H       1  LIG1        0.1072
     29 C          -5.7681    6.0285   -0.0755 C.ar    1  LIG1        0.1850
     30 C          -6.9340    6.4357    0.4942 C.ar    1  LIG1        0.0669
     31 C          -7.8116    5.2896    0.4467 C.ar    1  LIG1        0.0565
     32 C          -7.0817    4.2936   -0.1185 C.ar    1  LIG1        0.1069
     33 O          -5.8575    4.7253   -0.4382 O.2     1  LIG1       -0.4575
     34 H          -7.3162    3.2661   -0.3370 H       1  LIG1        0.1041
     35 S          -7.2376    7.9949    1.2520 S.3     1  LIG1       -0.1378
     36 H          -8.5629    7.8254    1.3043 H       1  LIG1        0.1072
     37 S          -9.4552    5.1676    1.0802 S.3     1  LIG1       -0.1385
     38 H         -10.0906    5.5217   -0.0437 H       1  LIG1        0.1072
@<TRIPOS>BOND
     1     8     7    1
     2    27    22    1
     3    27    28    1
     4    25    26    1
     5    25    21    1
     6     9    10    1
     7     9     3    1
     8    22    21   ar
     9    22    23   ar
    10    21    20   ar
    11     7     2    1
    12    33    32   ar
    13    33    29   ar
    14     3     2   ar
    15     3     4   ar
    16     2     1   ar
    17    34    32    1
    18    23    29    1
    19    23    24   ar
    20    20    24   ar
    21    20    14    1
    22    32    31   ar
    23    15    14   ar
    24    15    11   ar
    25    29    30   ar
    26    38    37    1
    27     4    11    1
    28     4     5   ar
    29     1     6    1
    30     1     5   ar
    31    14    13   ar
    32    19    18    1
    33    11    12   ar
    34    31    30   ar
    35    31    37    1
    36    30    35    1
    37    13    12   ar
    38    13    18    1
    39    12    16    1
    40    35    36    1
    41    17    16    1
