@<TRIPOS>MOLECULE
mol_data/opt/m06hf/geoms/mol2/12gg12gg.out
 20 21 0 0 0
SMALL
GASTEIGER

@<TRIPOS>ATOM
      1 C           0.4028    1.8275    0.6718 C.ar    1  LIG1        0.1069
      2 C           1.6764    1.8955    0.2093 C.ar    1  LIG1        0.0565
      3 C           1.8959    3.2788   -0.1351 C.ar    1  LIG1        0.0669
      4 C           0.7326    3.9201    0.1627 C.ar    1  LIG1        0.1849
      5 O          -0.1742    3.0365    0.6523 O.2     1  LIG1       -0.4575
      6 H          -0.1868    1.0036    1.0345 H       1  LIG1        0.1041
      7 S           2.8314    0.5635    0.1249 S.3     1  LIG1       -0.1385
      8 H           2.8975    0.5074   -1.2123 H       1  LIG1        0.1072
      9 S           3.3826    3.8881   -0.8545 S.3     1  LIG1       -0.1378
     10 H           2.8477    5.0506   -1.2501 H       1  LIG1        0.1072
     11 C           0.3287    5.3126    0.0400 C.ar    1  LIG1        0.1849
     12 C           0.9371    6.4783    0.3965 C.ar    1  LIG1        0.0669
     13 C           0.0333    7.5284   -0.0178 C.ar    1  LIG1        0.0565
     14 C          -1.0420    6.9005   -0.5570 C.ar    1  LIG1        0.1069
     15 O          -0.8729    5.5737   -0.5380 O.2     1  LIG1       -0.4575
     16 H          -1.9612    7.2779   -0.9707 H       1  LIG1        0.1041
     17 S           2.4877    6.6727    1.2081 S.3     1  LIG1       -0.1378
     18 H           2.2229    7.9329    1.5771 H       1  LIG1        0.1072
     19 S           0.1977    9.2636    0.2538 S.3     1  LIG1       -0.1385
     20 H           1.0590    9.5085   -0.7430 H       1  LIG1        0.1072
@<TRIPOS>BOND
     1    10     9    1
     2     8     7    1
     3    16    14    1
     4     9     3    1
     5    20    19    1
     6    14    15   ar
     7    14    13   ar
     8    15    11   ar
     9     3     4   ar
    10     3     2   ar
    11    13    19    1
    12    13    12   ar
    13    11     4    1
    14    11    12   ar
    15     7     2    1
    16     4     5   ar
    17     2     1   ar
    18    12    17    1
    19     5     1   ar
    20     1     6    1
    21    17    18    1
