@<TRIPOS>MOLECULE
mol_data/opt/m06hf/geoms/mol2/12gg12gg12gg-.out
 29 31 0 0 0
SMALL
GASTEIGER

@<TRIPOS>ATOM
      1 C           0.7494    1.7280    0.6392 C.ar    1  LIG1        0.1069
      2 C           1.8590    1.9151   -0.1189 C.ar    1  LIG1        0.0565
      3 C           1.9374    3.3356   -0.3561 C.ar    1  LIG1        0.0669
      4 C           0.8688    3.8738    0.2918 C.ar    1  LIG1        0.1850
      5 O           0.1458    2.8959    0.8949 O.2     1  LIG1       -0.4575
      6 H           0.3016    0.8387    1.0479 H       1  LIG1        0.1041
      7 S           2.9977    0.6699   -0.6359 S.3     1  LIG1       -0.1385
      8 H           2.6763    0.7068   -1.9350 H       1  LIG1        0.1072
      9 S           3.1682    4.0953   -1.3597 S.3     1  LIG1       -0.1378
     10 H           2.5159    5.2585   -1.4753 H       1  LIG1        0.1072
     11 C           0.4010    5.2454    0.4244 C.ar    1  LIG1        0.1860
     12 C           1.0420    6.4002    0.7610 C.ar    1  LIG1        0.0677
     13 C           0.0366    7.4347    0.7071 C.ar    1  LIG1        0.0677
     14 C          -1.1211    6.8078    0.3511 C.ar    1  LIG1        0.1860
     15 O          -0.9065    5.4949    0.1694 O.2     1  LIG1       -0.4463
     16 S           2.7385    6.5811    1.1906 S.3     1  LIG1       -0.1378
     17 H           2.5259    7.6887    1.9137 H       1  LIG1        0.1072
     18 S           0.2143    9.1097    1.2260 S.3     1  LIG1       -0.1378
     19 H           0.7682    9.5703    0.0985 H       1  LIG1        0.1072
     20 C          -2.4789    7.2934    0.1348 C.ar    1  LIG1        0.1850
     21 C          -2.9777    8.3833   -0.5093 C.ar    1  LIG1        0.0669
     22 C          -4.4132    8.2810   -0.3842 C.ar    1  LIG1        0.0565
     23 C          -4.6434    7.1342    0.3025 C.ar    1  LIG1        0.1069
     24 O          -3.4874    6.5377    0.6274 O.2     1  LIG1       -0.4575
     25 H          -5.5532    6.6501    0.6118 H       1  LIG1        0.1041
     26 S          -2.0698    9.6615   -1.3117 S.3     1  LIG1       -0.1378
     27 H          -2.8056    9.6305   -2.4296 H       1  LIG1        0.1072
     28 S          -5.6370    9.3407   -1.0864 S.3     1  LIG1       -0.1385
     29 H          -5.4892   10.3400   -0.2088 H       1  LIG1        0.1072
@<TRIPOS>BOND
     1    27    26    1
     2     8     7    1
     3    10     9    1
     4     9     3    1
     5    26    21    1
     6    28    22    1
     7    28    29    1
     8     7     2    1
     9    21    22   ar
    10    21    20   ar
    11    22    23   ar
    12     3     2   ar
    13     3     4   ar
    14     2     1   ar
    15    19    18    1
    16    20    14    1
    17    20    24   ar
    18    15    14   ar
    19    15    11   ar
    20     4    11    1
    21     4     5   ar
    22    23    25    1
    23    23    24   ar
    24    14    13   ar
    25    11    12   ar
    26     1     5   ar
    27     1     6    1
    28    13    12   ar
    29    13    18    1
    30    12    16    1
    31    16    17    1
