@<TRIPOS>MOLECULE
mol_data/opt/m06hf/geoms/mol2/12gg12gg-12gg12gg-.out
 38 41 0 0 0
SMALL
GASTEIGER

@<TRIPOS>ATOM
      1 C           1.3337    2.3723   -2.2178 C.ar    1  LIG1        0.1069
      2 C           2.1099    2.0384   -1.1568 C.ar    1  LIG1        0.0565
      3 C           2.0057    3.1399   -0.2307 C.ar    1  LIG1        0.0669
      4 C           1.1786    4.0414   -0.8271 C.ar    1  LIG1        0.1850
      5 O           0.7709    3.5737   -2.0342 O.2     1  LIG1       -0.4575
      6 H           1.1113    1.8575   -3.1362 H       1  LIG1        0.1041
      7 S           3.0908    0.5807   -0.9961 S.3     1  LIG1       -0.1385
      8 H           2.3628    0.0234   -0.0203 H       1  LIG1        0.1072
      9 S           2.7787    3.1525    1.3493 S.3     1  LIG1       -0.1378
     10 H           2.0677    4.1813    1.8285 H       1  LIG1        0.1072
     11 C           0.6737    5.3373   -0.3996 C.ar    1  LIG1        0.1860
     12 C           1.2893    6.4304    0.1344 C.ar    1  LIG1        0.0677
     13 C           0.2395    7.3906    0.3809 C.ar    1  LIG1        0.0677
     14 C          -0.9082    6.7990   -0.0573 C.ar    1  LIG1        0.1860
     15 O          -0.6542    5.5637   -0.5233 O.2     1  LIG1       -0.4463
     16 S           3.0128    6.6277    0.4384 S.3     1  LIG1       -0.1378
     17 H           2.9268    7.9613    0.5358 H       1  LIG1        0.1072
     18 S           0.4591    8.9485    1.1781 S.3     1  LIG1       -0.1378
     19 H          -0.1204    9.6787    0.2138 H       1  LIG1        0.1072
     20 C          -2.2992    7.2409   -0.0906 C.ar    1  LIG1        0.1860
     21 C          -2.9028    8.3933   -0.4966 C.ar    1  LIG1        0.0677
     22 C          -4.3112    8.2070   -0.2582 C.ar    1  LIG1        0.0677
     23 C          -4.4363    6.9451    0.2393 C.ar    1  LIG1        0.1860
     24 O          -3.2221    6.3627    0.3458 O.2     1  LIG1       -0.4463
     25 S          -2.1523    9.7722   -1.3008 S.3     1  LIG1       -0.1378
     26 H          -2.7449   10.6959   -0.5326 H       1  LIG1        0.1072
     27 S          -5.5313    9.4486   -0.5301 S.3     1  LIG1       -0.1378
     28 H          -6.3772    8.9875    0.3983 H       1  LIG1        0.1072
     29 C          -5.5922    6.1694    0.6607 C.ar    1  LIG1        0.1850
     30 C          -6.8338    5.9959    0.1250 C.ar    1  LIG1        0.0669
     31 C          -7.5166    5.0933    1.0251 C.ar    1  LIG1        0.0565
     32 C          -6.6198    4.7889    1.9974 C.ar    1  LIG1        0.1069
     33 O          -5.4674    5.4373    1.7966 O.2     1  LIG1       -0.4575
     34 H          -6.6815    4.1435    2.8568 H       1  LIG1        0.1041
     35 S          -7.4742    6.6944   -1.3573 S.3     1  LIG1       -0.1378
     36 H          -8.4177    5.7506   -1.4889 H       1  LIG1        0.1072
     37 S          -9.1269    4.3992    0.8368 S.3     1  LIG1       -0.1385
     38 H          -9.8090    5.4512    1.3075 H       1  LIG1        0.1072
@<TRIPOS>BOND
     1     6     1    1
     2     1     5   ar
     3     1     2   ar
     4     5     4   ar
     5    36    35    1
     6    35    30    1
     7    25    26    1
     8    25    21    1
     9     2     7    1
    10     2     3   ar
    11     7     8    1
    12     4    11    1
    13     4     3   ar
    14    27    22    1
    15    27    28    1
    16    15    11   ar
    17    15    14   ar
    18    21    22   ar
    19    21    20   ar
    20    11    12   ar
    21    22    23   ar
    22     3     9    1
    23    20    14    1
    24    20    24   ar
    25    14    13   ar
    26    30    29   ar
    27    30    31   ar
    28    12    13   ar
    29    12    16    1
    30    19    18    1
    31    23    24   ar
    32    23    29    1
    33    13    18    1
    34    16    17    1
    35    29    33   ar
    36    37    31    1
    37    37    38    1
    38    31    32   ar
    39     9    10    1
    40    33    32   ar
    41    32    34    1
