@<TRIPOS>MOLECULE
mol_data/opt/m06hf/geoms/mol2/12gg12gg-12gg-12gg.out
 38 41 0 0 0
SMALL
GASTEIGER

@<TRIPOS>ATOM
      1 C           1.1597    1.6304   -0.0684 C.ar    1  LIG1        0.1069
      2 C           2.3337    1.9691    0.5205 C.ar    1  LIG1        0.0565
      3 C           2.3551    3.4123    0.5623 C.ar    1  LIG1        0.0669
      4 C           1.1885    3.8078   -0.0190 C.ar    1  LIG1        0.1850
      5 O           0.4646    2.7278   -0.4011 O.2     1  LIG1       -0.4575
      6 H           0.7175    0.6774   -0.3007 H       1  LIG1        0.1041
      7 S           3.5196    0.8532    1.2029 S.3     1  LIG1       -0.1385
      8 H           4.5190    1.1906    0.3801 H       1  LIG1        0.1072
      9 S           3.6361    4.3553    1.3173 S.3     1  LIG1       -0.1378
     10 H           3.5970    5.3631    0.4319 H       1  LIG1        0.1072
     11 C           0.5975    5.1199   -0.2595 C.ar    1  LIG1        0.1860
     12 C           1.0715    6.2610   -0.8338 C.ar    1  LIG1        0.0677
     13 C          -0.0051    7.2176   -0.7720 C.ar    1  LIG1        0.0677
     14 C          -1.0355    6.5635   -0.1637 C.ar    1  LIG1        0.1860
     15 O          -0.6774    5.3028    0.1459 O.2     1  LIG1       -0.4463
     16 S           2.6313    6.4696   -1.6286 S.3     1  LIG1       -0.1378
     17 H           2.7702    7.7488   -1.2619 H       1  LIG1        0.1072
     18 S           0.0388    8.8306   -1.4833 S.3     1  LIG1       -0.1378
     19 H          -0.4149    9.4777   -0.3963 H       1  LIG1        0.1072
     20 C          -2.3861    6.9885    0.1862 C.ar    1  LIG1        0.1860
     21 C          -2.8611    8.0936    0.8271 C.ar    1  LIG1        0.0677
     22 C          -4.2937    7.9414    0.8702 C.ar    1  LIG1        0.0677
     23 C          -4.5511    6.7506    0.2585 C.ar    1  LIG1        0.1860
     24 O          -3.4062    6.1751   -0.1565 O.2     1  LIG1       -0.4463
     25 S          -1.8977    9.3367    1.6195 S.3     1  LIG1       -0.1378
     26 H          -2.7671   10.3283    1.3887 H       1  LIG1        0.1072
     27 S          -5.4081    9.0510    1.6707 S.3     1  LIG1       -0.1378
     28 H          -6.2650    9.1574    0.6410 H       1  LIG1        0.1072
     29 C          -5.8036    6.0560   -0.0100 C.ar    1  LIG1        0.1850
     30 C          -6.9530    6.4586   -0.6152 C.ar    1  LIG1        0.0669
     31 C          -7.8435    5.3231   -0.5540 C.ar    1  LIG1        0.0565
     32 C          -7.1360    4.3362    0.0540 C.ar    1  LIG1        0.1069
     33 O          -5.9142    4.7646    0.3873 O.2     1  LIG1       -0.4575
     34 H          -7.3858    3.3177    0.2964 H       1  LIG1        0.1041
     35 S          -7.2259    7.9997   -1.4203 S.3     1  LIG1       -0.1378
     36 H          -8.5506    7.8375   -1.5017 H       1  LIG1        0.1072
     37 S          -9.4744    5.2006   -1.2193 S.3     1  LIG1       -0.1385
     38 H         -10.1309    5.5826   -0.1167 H       1  LIG1        0.1072
@<TRIPOS>BOND
     1    16    17    1
     2    16    12    1
     3    36    35    1
     4    18    13    1
     5    18    19    1
     6    35    30    1
     7    37    31    1
     8    37    38    1
     9    12    13   ar
    10    12    11   ar
    11    13    14   ar
    12    30    31   ar
    13    30    29   ar
    14    31    32   ar
    15     5     1   ar
    16     5     4   ar
    17     6     1    1
    18    11     4    1
    19    11    15   ar
    20    14    15   ar
    21    14    20    1
    22    24    20   ar
    23    24    23   ar
    24     1     2   ar
    25     4     3   ar
    26    29    23    1
    27    29    33   ar
    28    32    34    1
    29    32    33   ar
    30    20    21   ar
    31    23    22   ar
    32     8     7    1
    33    10     9    1
    34     2     3   ar
    35     2     7    1
    36     3     9    1
    37    28    27    1
    38    21    22   ar
    39    21    25    1
    40    22    27    1
    41    26    25    1
