@<TRIPOS>MOLECULE
mol_data/opt/m06hf/geoms/mol2/12gg.out
 11 11 0 0 0
SMALL
GASTEIGER

@<TRIPOS>ATOM
      1 C           0.0843    1.9052   -0.0000 C.ar    1  LIG1        0.1059
      2 C           1.4389    1.8918    0.0000 C.ar    1  LIG1        0.0557
      3 C           1.8403    3.2797   -0.0000 C.ar    1  LIG1        0.0557
      4 C           0.6907    3.9957   -0.0001 C.ar    1  LIG1        0.1059
      5 O          -0.3749    3.1721   -0.0001 O.2     1  LIG1       -0.4688
      6 H          -0.6488    1.1186   -0.0000 H       1  LIG1        0.1041
      7 H           0.4915    5.0526   -0.0002 H       1  LIG1        0.1041
      8 S           2.4621    0.4484    0.0001 S.3     1  LIG1       -0.1386
      9 H           3.6207    1.1116    0.0002 H       1  LIG1        0.1072
     10 S           3.5209    3.8272   -0.0000 S.3     1  LIG1       -0.1386
     11 H           3.2394    5.1323    0.0000 H       1  LIG1        0.1072
@<TRIPOS>BOND
     1     7     4    1
     2     4     5   ar
     3     4     3   ar
     4     5     1   ar
     5     3    10    1
     6     3     2   ar
     7     1     6    1
     8     1     2   ar
     9    10    11    1
    10     2     8    1
    11     8     9    1
