@<TRIPOS>MOLECULE
mol_data/opt/m06hf/geoms/mol2/12gg12gg-12gg-12gg-.out
 38 41 0 0 0
SMALL
GASTEIGER

@<TRIPOS>ATOM
      1 C           1.1649    1.6570   -0.2100 C.ar    1  LIG1        0.1069
      2 C           2.3724    1.9783    0.3190 C.ar    1  LIG1        0.0565
      3 C           2.4250    3.4215    0.3409 C.ar    1  LIG1        0.0669
      4 C           1.2348    3.8346   -0.1784 C.ar    1  LIG1        0.1850
      5 O           0.4775    2.7614   -0.5238 O.2     1  LIG1       -0.4575
      6 H           0.6989    0.7089   -0.4150 H       1  LIG1        0.1041
      7 S           3.6298    0.8397    0.8078 S.3     1  LIG1       -0.1385
      8 H           3.5165    1.0453    2.1258 H       1  LIG1        0.1072
      9 S           3.7702    4.3214    1.0262 S.3     1  LIG1       -0.1378
     10 H           3.4787    5.4845    0.4253 H       1  LIG1        0.1072
     11 C           0.6352    5.1480   -0.3805 C.ar    1  LIG1        0.1860
     12 C           1.0834    6.3026   -0.9493 C.ar    1  LIG1        0.0677
     13 C           0.0006    7.2484   -0.8379 C.ar    1  LIG1        0.0677
     14 C          -1.0074    6.5745   -0.2140 C.ar    1  LIG1        0.1860
     15 O          -0.6308    5.3146    0.0657 O.2     1  LIG1       -0.4463
     16 S           2.6249    6.5384   -1.7696 S.3     1  LIG1       -0.1378
     17 H           2.6282    7.8672   -1.6028 H       1  LIG1        0.1072
     18 S          -0.0069    8.8768   -1.5167 S.3     1  LIG1       -0.1378
     19 H          -0.3109    9.5080   -0.3711 H       1  LIG1        0.1072
     20 C          -2.3530    6.9828    0.1734 C.ar    1  LIG1        0.1860
     21 C          -2.8209    8.0684    0.8515 C.ar    1  LIG1        0.0677
     22 C          -4.2519    7.9076    0.9170 C.ar    1  LIG1        0.0677
     23 C          -4.5150    6.7320    0.2787 C.ar    1  LIG1        0.1860
     24 O          -3.3751    6.1732   -0.1717 O.2     1  LIG1       -0.4463
     25 S          -1.8469    9.2938    1.6586 S.3     1  LIG1       -0.1378
     26 H          -2.7182   10.2905    1.4618 H       1  LIG1        0.1072
     27 S          -5.3566    8.9899    1.7666 S.3     1  LIG1       -0.1378
     28 H          -6.2347    9.1156    0.7572 H       1  LIG1        0.1072
     29 C          -5.7680    6.0375    0.0118 C.ar    1  LIG1        0.1850
     30 C          -6.9296    6.4488   -0.5636 C.ar    1  LIG1        0.0669
     31 C          -7.8104    5.3048   -0.5231 C.ar    1  LIG1        0.0565
     32 C          -7.0862    4.3059    0.0442 C.ar    1  LIG1        0.1069
     33 O          -5.8626    4.7339    0.3715 O.2     1  LIG1       -0.4575
     34 H          -7.3245    3.2786    0.2594 H       1  LIG1        0.1041
     35 S          -7.2252    8.0101   -1.3202 S.3     1  LIG1       -0.1378
     36 H          -8.5506    7.8442   -1.3798 H       1  LIG1        0.1072
     37 S          -9.4508    5.1882   -1.1658 S.3     1  LIG1       -0.1385
     38 H         -10.0914    5.5416   -0.0445 H       1  LIG1        0.1072
@<TRIPOS>BOND
     1    16    17    1
     2    16    12    1
     3    18    13    1
     4    18    19    1
     5    36    35    1
     6    35    30    1
     7    37    31    1
     8    37    38    1
     9    12    13   ar
    10    12    11   ar
    11    13    14   ar
    12    30    31   ar
    13    30    29   ar
    14     5     1   ar
    15     5     4   ar
    16    31    32   ar
    17     6     1    1
    18    11     4    1
    19    11    15   ar
    20    14    15   ar
    21    14    20    1
    22     1     2   ar
    23     4     3   ar
    24    24    20   ar
    25    24    23   ar
    26    29    23    1
    27    29    33   ar
    28    32    34    1
    29    32    33   ar
    30    20    21   ar
    31    23    22   ar
    32     2     3   ar
    33     2     7    1
    34     3     9    1
    35    10     9    1
    36    28    27    1
    37     7     8    1
    38    21    22   ar
    39    21    25    1
    40    22    27    1
    41    26    25    1
