@<TRIPOS>MOLECULE
mol_data/opt/m06hf/geoms/mol2/12gg12gg-12gg.out
 29 31 0 0 0
SMALL
GASTEIGER

@<TRIPOS>ATOM
      1 C           0.7166    1.9572    1.2860 C.ar    1  LIG1        0.1069
      2 C           1.7842    1.8748    0.4525 C.ar    1  LIG1        0.0565
      3 C           1.9363    3.1889   -0.1276 C.ar    1  LIG1        0.0669
      4 C           0.9384    3.9410    0.4152 C.ar    1  LIG1        0.1850
      5 O           0.2085    3.1957    1.2820 O.2     1  LIG1       -0.4575
      6 H           0.2441    1.2297    1.9230 H       1  LIG1        0.1041
      7 S           2.8141    0.4576    0.2377 S.3     1  LIG1       -0.1385
      8 H           2.4159    0.1516   -1.0035 H       1  LIG1        0.1072
      9 S           3.1316    3.5884   -1.3566 S.3     1  LIG1       -0.1378
     10 H           3.2959    4.8597   -0.9605 H       1  LIG1        0.1072
     11 C           0.5070    5.3234    0.2323 C.ar    1  LIG1        0.1860
     12 C           1.1650    6.5177    0.2226 C.ar    1  LIG1        0.0677
     13 C           0.1592    7.5234    0.0012 C.ar    1  LIG1        0.0677
     14 C          -1.0225    6.8518   -0.0753 C.ar    1  LIG1        0.1860
     15 O          -0.8150    5.5243    0.0573 O.2     1  LIG1       -0.4463
     16 S           2.8726    6.8020    0.5587 S.3     1  LIG1       -0.1378
     17 H           3.0498    7.6622   -0.4518 H       1  LIG1        0.1072
     18 S           0.4944    9.2444   -0.1714 S.3     1  LIG1       -0.1378
     19 H          -0.5659    9.4922   -0.9502 H       1  LIG1        0.1072
     20 C          -2.3868    7.3166   -0.2729 C.ar    1  LIG1        0.1850
     21 C          -3.0932    8.3371    0.2880 C.ar    1  LIG1        0.0669
     22 C          -4.3937    8.2964   -0.3424 C.ar    1  LIG1        0.0565
     23 C          -4.3570    7.2464   -1.2007 C.ar    1  LIG1        0.1069
     24 O          -3.1553    6.6562   -1.1750 O.2     1  LIG1       -0.4575
     25 H          -5.0989    6.8313   -1.8608 H       1  LIG1        0.1041
     26 S          -2.5506    9.4610    1.5289 S.3     1  LIG1       -0.1378
     27 H          -3.7876    9.6589    2.0025 H       1  LIG1        0.1072
     28 S          -5.8003    9.2976    0.0202 S.3     1  LIG1       -0.1385
     29 H          -5.3461   10.4149   -0.5624 H       1  LIG1        0.1072
@<TRIPOS>BOND
     1    25    23    1
     2     9    10    1
     3     9     3    1
     4    23    24   ar
     5    23    22   ar
     6    24    20   ar
     7     8     7    1
     8    19    18    1
     9    29    28    1
    10    17    16    1
    11    22    28    1
    12    22    21   ar
    13    20    14    1
    14    20    21   ar
    15    18    13    1
    16     3     4   ar
    17     3     2   ar
    18    14    13   ar
    19    14    15   ar
    20    13    12   ar
    21    15    11   ar
    22    12    11   ar
    23    12    16    1
    24    11     4    1
    25     7     2    1
    26    21    26    1
    27     4     5   ar
    28     2     1   ar
    29     5     1   ar
    30     1     6    1
    31    26    27    1
