@<TRIPOS>MOLECULE
mol_data/opt/m06hf/geoms/mol2/12gh12gh-12gh-12gh.out
 42 45 0 0 0
SMALL
GASTEIGER

@<TRIPOS>ATOM
      1 C           0.5034    2.0437   -1.4157 C.ar    1  LIG1        0.1077
      2 C           1.6756    1.9047   -0.7472 C.ar    1  LIG1        0.0640
      3 C           1.9938    3.2081   -0.2094 C.ar    1  LIG1        0.0874
      4 C           0.9656    4.0204   -0.6084 C.ar    1  LIG1        0.1924
      5 O           0.0681    3.2995   -1.3461 O.2     1  LIG1       -0.4568
      6 H          -0.0945    1.3399   -1.9689 H       1  LIG1        0.1041
      7 S           2.6663    0.4521   -0.6167 S.3     1  LIG1       -0.1378
      8 H           2.3160    0.1286    0.6349 H       1  LIG1        0.1073
      9 N           3.0869    3.4610    0.5969 N.pl3   1  LIG1       -0.3541
     10 H           3.8092    2.7580    0.4945 H       1  LIG1        0.1425
     11 H           3.4452    4.4054    0.5277 H       1  LIG1        0.1425
     12 C           0.6058    5.4092   -0.3725 C.ar    1  LIG1        0.1875
     13 C           1.3066    6.5468   -0.0764 C.ar    1  LIG1        0.0752
     14 C           0.3391    7.6114    0.0280 C.ar    1  LIG1        0.0882
     15 C          -0.8730    7.0287   -0.2229 C.ar    1  LIG1        0.1935
     16 O          -0.6962    5.6953   -0.4641 O.2     1  LIG1       -0.4455
     17 S           3.0480    6.7833    0.0390 S.3     1  LIG1       -0.1371
     18 H           3.0995    6.9998    1.3628 H       1  LIG1        0.1073
     19 N           0.6668    8.9076    0.3819 N.pl3   1  LIG1       -0.3541
     20 H           1.6330    9.1292    0.1703 H       1  LIG1        0.1425
     21 H           0.0249    9.6043    0.0251 H       1  LIG1        0.1425
     22 C          -2.2547    7.4793   -0.2178 C.ar    1  LIG1        0.1875
     23 C          -2.8787    8.6891   -0.3712 C.ar    1  LIG1        0.0752
     24 C          -4.2939    8.4399   -0.2458 C.ar    1  LIG1        0.0882
     25 C          -4.4098    7.0950   -0.0403 C.ar    1  LIG1        0.1934
     26 O          -3.1698    6.5238   -0.0216 O.2     1  LIG1       -0.4455
     27 S          -2.1920   10.2613   -0.7733 S.3     1  LIG1       -0.1371
     28 H          -2.3360   10.8268    0.4340 H       1  LIG1        0.1073
     29 N          -5.2604    9.4308   -0.2664 N.pl3   1  LIG1       -0.3541
     30 H          -4.9666   10.2455   -0.7926 H       1  LIG1        0.1425
     31 H          -6.1765    9.1035   -0.5488 H       1  LIG1        0.1425
     32 C          -5.5336    6.2038    0.1960 C.ar    1  LIG1        0.1865
     33 C          -6.8318    6.1825   -0.2249 C.ar    1  LIG1        0.0745
     34 C          -7.4345    5.0183    0.3778 C.ar    1  LIG1        0.0769
     35 C          -6.4514    4.4339    1.1052 C.ar    1  LIG1        0.1144
     36 O          -5.3047    5.1515    1.0012 O.2     1  LIG1       -0.4567
     37 H          -6.4182    3.5534    1.7206 H       1  LIG1        0.1049
     38 S          -7.6462    7.2448   -1.3739 S.3     1  LIG1       -0.1371
     39 H          -8.6747    7.5406   -0.5672 H       1  LIG1        0.1073
     40 N          -8.7897    4.6871    0.2317 N.pl3   1  LIG1       -0.3547
     41 H          -9.0733    4.6908   -0.7429 H       1  LIG1        0.1424
     42 H          -9.0273    3.8018    0.6618 H       1  LIG1        0.1424
@<TRIPOS>BOND
     1     6     1    1
     2     1     5   ar
     3     1     2   ar
     4    38    39    1
     5    38    33    1
     6     5     4   ar
     7    30    29    1
     8    27    23    1
     9    27    28    1
    10     2     7    1
    11     2     3   ar
    12    41    40    1
    13     7     8    1
    14     4    12    1
    15     4     3   ar
    16    31    29    1
    17    16    12   ar
    18    16    15   ar
    19    12    13   ar
    20    23    24   ar
    21    23    22   ar
    22    29    24    1
    23    24    25   ar
    24    33    32   ar
    25    33    34   ar
    26    15    22    1
    27    15    14   ar
    28    22    26   ar
    29     3     9    1
    30    13    14   ar
    31    13    17    1
    32    25    26   ar
    33    25    32    1
    34    21    19    1
    35    14    19    1
    36    17    18    1
    37    20    19    1
    38    32    36   ar
    39    40    34    1
    40    40    42    1
    41    34    35   ar
    42    10     9    1
    43    11     9    1
    44    36    35   ar
    45    35    37    1
