@<TRIPOS>MOLECULE
mol_data/opt/m06hf/geoms/mol2/12gh12gh12gh12gh.out
 42 45 0 0 0
SMALL
GASTEIGER

@<TRIPOS>ATOM
      1 C           0.5075    2.0473   -1.4395 C.ar    1  LIG1        0.1077
      2 C           1.6801    1.9091   -0.7715 C.ar    1  LIG1        0.0640
      3 C           1.9970    3.2125   -0.2330 C.ar    1  LIG1        0.0874
      4 C           0.9678    4.0239   -0.6310 C.ar    1  LIG1        0.1924
      5 O           0.0707    3.3026   -1.3688 O.2     1  LIG1       -0.4568
      6 H          -0.0899    1.3432   -1.9929 H       1  LIG1        0.1041
      7 S           2.6723    0.4574   -0.6425 S.3     1  LIG1       -0.1378
      8 H           2.3231    0.1329    0.6092 H       1  LIG1        0.1073
      9 N           3.0902    3.4660    0.5731 N.pl3   1  LIG1       -0.3541
     10 H           3.8133    2.7640    0.4695 H       1  LIG1        0.1425
     11 H           3.4472    4.4109    0.5046 H       1  LIG1        0.1425
     12 C           0.6065    5.4121   -0.3940 C.ar    1  LIG1        0.1875
     13 C           1.3062    6.5504   -0.0979 C.ar    1  LIG1        0.0752
     14 C           0.3376    7.6138    0.0077 C.ar    1  LIG1        0.0882
     15 C          -0.8740    7.0299   -0.2428 C.ar    1  LIG1        0.1935
     16 O          -0.6959    5.6968   -0.4849 O.2     1  LIG1       -0.4455
     17 S           3.0474    6.7888    0.0171 S.3     1  LIG1       -0.1371
     18 H           3.0990    7.0048    1.3410 H       1  LIG1        0.1073
     19 N           0.6640    8.9102    0.3622 N.pl3   1  LIG1       -0.3541
     20 H           1.6298    9.1330    0.1502 H       1  LIG1        0.1425
     21 H           0.0212    9.6064    0.0060 H       1  LIG1        0.1425
     22 C          -2.2562    7.4790   -0.2366 C.ar    1  LIG1        0.1875
     23 C          -2.8816    8.6881   -0.3895 C.ar    1  LIG1        0.0752
     24 C          -4.2965    8.4374   -0.2630 C.ar    1  LIG1        0.0882
     25 C          -4.4108    7.0924   -0.0576 C.ar    1  LIG1        0.1934
     26 O          -3.1701    6.5225   -0.0400 O.2     1  LIG1       -0.4455
     27 S          -2.1969   10.2611   -0.7917 S.3     1  LIG1       -0.1371
     28 H          -2.3406   10.8262    0.4159 H       1  LIG1        0.1073
     29 N          -5.2639    9.4273   -0.2827 N.pl3   1  LIG1       -0.3541
     30 H          -4.9714   10.2424   -0.8090 H       1  LIG1        0.1425
     31 H          -6.1800    9.0992   -0.5642 H       1  LIG1        0.1425
     32 C          -5.5334    6.1998    0.1790 C.ar    1  LIG1        0.1865
     33 C          -6.8319    6.1772   -0.2408 C.ar    1  LIG1        0.0745
     34 C          -7.4327    5.0120    0.3619 C.ar    1  LIG1        0.0769
     35 C          -6.4484    4.4284    1.0882 C.ar    1  LIG1        0.1144
     36 O          -5.3026    5.1474    0.9837 O.2     1  LIG1       -0.4567
     37 H          -6.4137    3.5477    1.7032 H       1  LIG1        0.1049
     38 S          -7.6484    7.2389   -1.3888 S.3     1  LIG1       -0.1371
     39 H          -8.6766    7.5335   -0.5811 H       1  LIG1        0.1073
     40 N          -8.7877    4.6793    0.2168 N.pl3   1  LIG1       -0.3547
     41 H          -9.0721    4.6832   -0.7576 H       1  LIG1        0.1424
     42 H          -9.0238    3.7934    0.6464 H       1  LIG1        0.1424
@<TRIPOS>BOND
     1     6     1    1
     2     1     5   ar
     3     1     2   ar
     4    38    39    1
     5    38    33    1
     6     5     4   ar
     7    30    29    1
     8    27    23    1
     9    27    28    1
    10     2     7    1
    11     2     3   ar
    12    41    40    1
    13     7     8    1
    14     4    12    1
    15     4     3   ar
    16    31    29    1
    17    16    12   ar
    18    16    15   ar
    19    12    13   ar
    20    23    24   ar
    21    23    22   ar
    22    29    24    1
    23    24    25   ar
    24    15    22    1
    25    15    14   ar
    26    33    32   ar
    27    33    34   ar
    28    22    26   ar
    29     3     9    1
    30    13    14   ar
    31    13    17    1
    32    25    26   ar
    33    25    32    1
    34    21    19    1
    35    14    19    1
    36    17    18    1
    37    20    19    1
    38    32    36   ar
    39    40    34    1
    40    40    42    1
    41    34    35   ar
    42    10     9    1
    43    11     9    1
    44    36    35   ar
    45    35    37    1
