@<TRIPOS>MOLECULE
mol_data/opt/m06hf/geoms/mol2/12gh12gh-12gh12gh.out
 42 45 0 0 0
SMALL
GASTEIGER

@<TRIPOS>ATOM
      1 C           0.4992    2.0566   -1.4490 C.ar    1  LIG1        0.1077
      2 C           1.6728    1.9104   -0.7845 C.ar    1  LIG1        0.0640
      3 C           1.9926    3.2082   -0.2343 C.ar    1  LIG1        0.0874
      4 C           0.9638    4.0248   -0.6227 C.ar    1  LIG1        0.1924
      5 O           0.0643    3.3117   -1.3657 O.2     1  LIG1       -0.4568
      6 H          -0.1002    1.3586   -2.0079 H       1  LIG1        0.1041
      7 S           2.6631    0.4561   -0.6710 S.3     1  LIG1       -0.1378
      8 H           2.3155    0.1203    0.5782 H       1  LIG1        0.1073
      9 N           3.0876    3.4525    0.5722 N.pl3   1  LIG1       -0.3541
     10 H           3.8095    2.7505    0.4607 H       1  LIG1        0.1425
     11 H           3.4460    4.3974    0.5119 H       1  LIG1        0.1425
     12 C           0.6049    5.4112   -0.3718 C.ar    1  LIG1        0.1875
     13 C           1.3067    6.5456   -0.0660 C.ar    1  LIG1        0.0752
     14 C           0.3396    7.6093    0.0515 C.ar    1  LIG1        0.0882
     15 C          -0.8732    7.0294   -0.2022 C.ar    1  LIG1        0.1935
     16 O          -0.6973    5.6984   -0.4574 O.2     1  LIG1       -0.4455
     17 S           3.0484    6.7806    0.0480 S.3     1  LIG1       -0.1371
     18 H           3.1026    6.9838    1.3738 H       1  LIG1        0.1073
     19 N           0.6684    8.9018    0.4178 N.pl3   1  LIG1       -0.3541
     20 H           1.6342    9.1253    0.2061 H       1  LIG1        0.1425
     21 H           0.0259    9.6022    0.0696 H       1  LIG1        0.1425
     22 C          -2.2547    7.4802   -0.1890 C.ar    1  LIG1        0.1875
     23 C          -2.8789    8.6916   -0.3289 C.ar    1  LIG1        0.0752
     24 C          -4.2938    8.4415   -0.2021 C.ar    1  LIG1        0.0882
     25 C          -4.4095    7.0947   -0.0095 C.ar    1  LIG1        0.1934
     26 O          -3.1696    6.5230    0.0002 O.2     1  LIG1       -0.4455
     27 S          -2.1929   10.2675   -0.7173 S.3     1  LIG1       -0.1371
     28 H          -2.3331   10.8209    0.4961 H       1  LIG1        0.1073
     29 N          -5.2600    9.4328   -0.2103 N.pl3   1  LIG1       -0.3541
     30 H          -4.9674   10.2526   -0.7293 H       1  LIG1        0.1425
     31 H          -6.1771    9.1086   -0.4932 H       1  LIG1        0.1425
     32 C          -5.5329    6.2013    0.2207 C.ar    1  LIG1        0.1865
     33 C          -6.8323    6.1845   -0.1967 C.ar    1  LIG1        0.0745
     34 C          -7.4334    5.0143    0.3959 C.ar    1  LIG1        0.0769
     35 C          -6.4485    4.4225    1.1146 C.ar    1  LIG1        0.1144
     36 O          -5.3019    5.1409    1.0146 O.2     1  LIG1       -0.4567
     37 H          -6.4137    3.5358    1.7210 H       1  LIG1        0.1049
     38 S          -7.6496    7.2584   -1.3328 S.3     1  LIG1       -0.1371
     39 H          -8.6759    7.5461   -0.5204 H       1  LIG1        0.1073
     40 N          -8.7891    4.6849    0.2503 N.pl3   1  LIG1       -0.3547
     41 H          -9.0755    4.6984   -0.7235 H       1  LIG1        0.1424
     42 H          -9.0256    3.7953    0.6720 H       1  LIG1        0.1424
@<TRIPOS>BOND
     1     6     1    1
     2     1     5   ar
     3     1     2   ar
     4     5     4   ar
     5    38    39    1
     6    38    33    1
     7     2     7    1
     8     2     3   ar
     9    30    29    1
    10    41    40    1
    11    27    23    1
    12    27    28    1
    13     7     8    1
    14     4    12    1
    15     4     3   ar
    16    31    29    1
    17    16    12   ar
    18    16    15   ar
    19    12    13   ar
    20    23    24   ar
    21    23    22   ar
    22     3     9    1
    23    29    24    1
    24    15    22    1
    25    15    14   ar
    26    24    25   ar
    27    33    32   ar
    28    33    34   ar
    29    22    26   ar
    30    13    17    1
    31    13    14   ar
    32    25    26   ar
    33    25    32    1
    34    17    18    1
    35    14    19    1
    36    21    19    1
    37    20    19    1
    38    32    36   ar
    39    40    34    1
    40    40    42    1
    41    34    35   ar
    42    10     9    1
    43    11     9    1
    44    36    35   ar
    45    35    37    1
