@<TRIPOS>MOLECULE
mol_data/opt/m06hf/geoms/mol2/12gh12gh12gh-.out
 32 34 0 0 0
SMALL
GASTEIGER

@<TRIPOS>ATOM
      1 C           0.3848    1.8866   -0.8781 C.ar    1  LIG1        0.1077
      2 C           1.6437    1.8433   -0.3756 C.ar    1  LIG1        0.0640
      3 C           1.9999    3.2065   -0.0532 C.ar    1  LIG1        0.0874
      4 C           0.9045    3.9531   -0.3932 C.ar    1  LIG1        0.1924
      5 O          -0.0708    3.1381   -0.8992 O.2     1  LIG1       -0.4568
      6 H          -0.2664    1.1136   -1.2488 H       1  LIG1        0.1041
      7 S           2.6848    0.4289   -0.2101 S.3     1  LIG1       -0.1378
      8 H           2.5540    0.2866    1.1157 H       1  LIG1        0.1073
      9 N           3.1897    3.5665    0.5502 N.pl3   1  LIG1       -0.3541
     10 H           3.9155    2.8731    0.4119 H       1  LIG1        0.1425
     11 H           3.4989    4.5052    0.3329 H       1  LIG1        0.1425
     12 C           0.5462    5.3572   -0.2762 C.ar    1  LIG1        0.1875
     13 C           1.2513    6.5293   -0.2263 C.ar    1  LIG1        0.0752
     14 C           0.2788    7.5869   -0.0972 C.ar    1  LIG1        0.0882
     15 C          -0.9364    6.9665   -0.0956 C.ar    1  LIG1        0.1934
     16 O          -0.7652    5.6161   -0.2013 O.2     1  LIG1       -0.4455
     17 S           2.9827    6.7992   -0.4093 S.3     1  LIG1       -0.1371
     18 H           3.2150    7.2093    0.8466 H       1  LIG1        0.1073
     19 N           0.6031    8.9243    0.0669 N.pl3   1  LIG1       -0.3541
     20 H           1.4796    9.1634   -0.3825 H       1  LIG1        0.1425
     21 H          -0.1415    9.5545   -0.2066 H       1  LIG1        0.1425
     22 C          -2.3051    7.4401    0.0299 C.ar    1  LIG1        0.1865
     23 C          -2.9570    8.5643   -0.3880 C.ar    1  LIG1        0.0745
     24 C          -4.3224    8.4310    0.0592 C.ar    1  LIG1        0.0769
     25 C          -4.3809    7.2391    0.7014 C.ar    1  LIG1        0.1144
     26 O          -3.1624    6.6423    0.6914 O.2     1  LIG1       -0.4567
     27 H          -5.1750    6.7113    1.1980 H       1  LIG1        0.1049
     28 S          -2.3535    9.8847   -1.3890 S.3     1  LIG1       -0.1371
     29 H          -2.7265   10.8634   -0.5523 H       1  LIG1        0.1073
     30 N          -5.2976    9.4220   -0.1248 N.pl3   1  LIG1       -0.3547
     31 H          -5.3435    9.7274   -1.0917 H       1  LIG1        0.1424
     32 H          -6.2144    9.1364    0.1954 H       1  LIG1        0.1424
@<TRIPOS>BOND
     1    28    29    1
     2    28    23    1
     3     6     1    1
     4    31    30    1
     5     5     1   ar
     6     5     4   ar
     7     1     2   ar
     8    17    13    1
     9    17    18    1
    10     4    12    1
    11     4     3   ar
    12    23    22   ar
    13    23    24   ar
    14    20    19    1
    15     2     7    1
    16     2     3   ar
    17    12    13   ar
    18    12    16   ar
    19    13    14   ar
    20     7     8    1
    21    21    19    1
    22    16    15   ar
    23    30    24    1
    24    30    32    1
    25    14    15   ar
    26    14    19    1
    27    15    22    1
    28     3     9    1
    29    22    26   ar
    30    24    25   ar
    31    11     9    1
    32    10     9    1
    33    26    25   ar
    34    25    27    1
