@<TRIPOS>MOLECULE
mol_data/opt/m06hf/geoms/mol2/12gh12gh-12gh.out
 32 34 0 0 0
SMALL
GASTEIGER

@<TRIPOS>ATOM
      1 C           0.3734    1.8964   -0.9267 C.ar    1  LIG1        0.1077
      2 C           1.6317    1.8419   -0.4237 C.ar    1  LIG1        0.0640
      3 C           1.9915    3.1990   -0.0802 C.ar    1  LIG1        0.0874
      4 C           0.8985    3.9538   -0.4098 C.ar    1  LIG1        0.1924
      5 O          -0.0786    3.1494   -0.9291 O.2     1  LIG1       -0.4568
      6 H          -0.2795    1.1310   -1.3099 H       1  LIG1        0.1041
      7 S           2.6685    0.4221   -0.2784 S.3     1  LIG1       -0.1378
      8 H           2.5356    0.2602    1.0450 H       1  LIG1        0.1073
      9 N           3.1817    3.5462    0.5297 N.pl3   1  LIG1       -0.3541
     10 H           3.9057    2.8531    0.3812 H       1  LIG1        0.1425
     11 H           3.4937    4.4874    0.3272 H       1  LIG1        0.1425
     12 C           0.5441    5.3570   -0.2719 C.ar    1  LIG1        0.1875
     13 C           1.2525    6.5261   -0.2034 C.ar    1  LIG1        0.0752
     14 C           0.2829    7.5845   -0.0591 C.ar    1  LIG1        0.0882
     15 C          -0.9340    6.9676   -0.0681 C.ar    1  LIG1        0.1934
     16 O          -0.7666    5.6185   -0.1943 O.2     1  LIG1       -0.4455
     17 S           2.9848    6.7939   -0.3808 S.3     1  LIG1       -0.1371
     18 H           3.2171    7.1842    0.8813 H       1  LIG1        0.1073
     19 N           0.6109    8.9181    0.1258 N.pl3   1  LIG1       -0.3541
     20 H           1.4887    9.1616   -0.3189 H       1  LIG1        0.1425
     21 H          -0.1316    9.5548   -0.1386 H       1  LIG1        0.1425
     22 C          -2.3016    7.4430    0.0633 C.ar    1  LIG1        0.1865
     23 C          -2.9499    8.5755   -0.3374 C.ar    1  LIG1        0.0745
     24 C          -4.3161    8.4389    0.1063 C.ar    1  LIG1        0.0769
     25 C          -4.3785    7.2373    0.7298 C.ar    1  LIG1        0.1144
     26 O          -3.1618    6.6374    0.7115 O.2     1  LIG1       -0.4567
     27 H          -5.1746    6.7042    1.2175 H       1  LIG1        0.1049
     28 S          -2.3419    9.9094   -1.3174 S.3     1  LIG1       -0.1371
     29 H          -2.7131   10.8763   -0.4661 H       1  LIG1        0.1073
     30 N          -5.2885    9.4354   -0.0633 N.pl3   1  LIG1       -0.3547
     31 H          -5.3329    9.7553   -1.0256 H       1  LIG1        0.1424
     32 H          -6.2063    9.1476    0.2521 H       1  LIG1        0.1424
@<TRIPOS>BOND
     1    28    29    1
     2    28    23    1
     3     6     1    1
     4    31    30    1
     5     5     1   ar
     6     5     4   ar
     7     1     2   ar
     8     2     7    1
     9     2     3   ar
    10     4    12    1
    11     4     3   ar
    12    17    13    1
    13    17    18    1
    14    23    22   ar
    15    23    24   ar
    16    20    19    1
    17     7     8    1
    18    12    13   ar
    19    12    16   ar
    20    13    14   ar
    21    16    15   ar
    22    21    19    1
    23     3     9    1
    24    15    14   ar
    25    15    22    1
    26    30    24    1
    27    30    32    1
    28    14    19    1
    29    22    26   ar
    30    24    25   ar
    31    11     9    1
    32    10     9    1
    33    26    25   ar
    34    25    27    1
