@<TRIPOS>MOLECULE
mol_data/opt/m06hf/geoms/mol2/12gh12gh.out
 22 23 0 0 0
SMALL
GASTEIGER

@<TRIPOS>ATOM
      1 C           0.2630    1.8614   -0.4421 C.ar    1  LIG1        0.1077
      2 C           1.6009    1.8786   -0.2181 C.ar    1  LIG1        0.0640
      3 C           1.9705    3.2682   -0.0712 C.ar    1  LIG1        0.0874
      4 C           0.8045    3.9666   -0.2194 C.ar    1  LIG1        0.1924
      5 O          -0.2277    3.1007   -0.4521 O.2     1  LIG1       -0.4568
      6 H          -0.4258    1.0520   -0.6128 H       1  LIG1        0.1041
      7 S           2.6964    0.4962   -0.1853 S.3     1  LIG1       -0.1378
      8 H           2.8749    0.4587    1.1427 H       1  LIG1        0.1073
      9 N           3.2477    3.7028    0.2393 N.pl3   1  LIG1       -0.3541
     10 H           3.9486    3.0055    0.0173 H       1  LIG1        0.1425
     11 H           3.4742    4.6127   -0.1434 H       1  LIG1        0.1425
     12 C           0.4419    5.3717   -0.1093 C.ar    1  LIG1        0.1865
     13 C           1.1012    6.5486   -0.3250 C.ar    1  LIG1        0.0745
     14 C           0.1651    7.6020   -0.0094 C.ar    1  LIG1        0.0769
     15 C          -0.9768    6.9753    0.3639 C.ar    1  LIG1        0.1144
     16 O          -0.8076    5.6271    0.3093 O.2     1  LIG1       -0.4567
     17 H          -1.9405    7.3282    0.6823 H       1  LIG1        0.1049
     18 S           2.7094    6.8139   -0.9963 S.3     1  LIG1       -0.1371
     19 H           3.2649    7.3193    0.1138 H       1  LIG1        0.1073
     20 N           0.4863    8.9633   -0.0483 N.pl3   1  LIG1       -0.3547
     21 H           1.0524    9.1929   -0.8586 H       1  LIG1        0.1424
     22 H          -0.3245    9.5666    0.0034 H       1  LIG1        0.1424
@<TRIPOS>BOND
     1    18    13    1
     2    18    19    1
     3    21    20    1
     4     6     1    1
     5     5     1   ar
     6     5     4   ar
     7     1     2   ar
     8    13    12   ar
     9    13    14   ar
    10     4    12    1
    11     4     3   ar
    12     2     7    1
    13     2     3   ar
    14     7     8    1
    15    11     9    1
    16    12    16   ar
    17     3     9    1
    18    20    14    1
    19    20    22    1
    20    14    15   ar
    21    10     9    1
    22    16    15   ar
    23    15    17    1
