@<TRIPOS>MOLECULE
mol_data/opt/m06hf/geoms/mol2/12gh12gh12gh12gh-.out
 42 45 0 0 0
SMALL
GASTEIGER

@<TRIPOS>ATOM
      1 C           0.5078    2.0496   -1.4480 C.ar    1  LIG1        0.1077
      2 C           1.6775    1.9070   -0.7760 C.ar    1  LIG1        0.0640
      3 C           1.9941    3.2077   -0.2308 C.ar    1  LIG1        0.0874
      4 C           0.9675    4.0222   -0.6294 C.ar    1  LIG1        0.1924
      5 O           0.0723    3.3052   -1.3737 O.2     1  LIG1       -0.4568
      6 H          -0.0883    1.3487   -2.0067 H       1  LIG1        0.1041
      7 S           2.6674    0.4535   -0.6492 S.3     1  LIG1       -0.1378
      8 H           2.3128    0.1242    0.5997 H       1  LIG1        0.1073
      9 N           3.0845    3.4564    0.5807 N.pl3   1  LIG1       -0.3541
     10 H           3.8071    2.7539    0.4769 H       1  LIG1        0.1425
     11 H           3.4430    4.4011    0.5176 H       1  LIG1        0.1425
     12 C           0.6071    5.4099   -0.3879 C.ar    1  LIG1        0.1875
     13 C           1.3071    6.5460   -0.0842 C.ar    1  LIG1        0.0752
     14 C           0.3394    7.6102    0.0222 C.ar    1  LIG1        0.0882
     15 C          -0.8720    7.0289   -0.2353 C.ar    1  LIG1        0.1935
     16 O          -0.6946    5.6966   -0.4823 O.2     1  LIG1       -0.4455
     17 S           3.0481    6.7817    0.0384 S.3     1  LIG1       -0.1371
     18 H           3.0949    6.9920    1.3633 H       1  LIG1        0.1073
     19 N           0.6661    8.9047    0.3833 N.pl3   1  LIG1       -0.3541
     20 H           1.6330    9.1271    0.1762 H       1  LIG1        0.1425
     21 H           0.0256    9.6031    0.0275 H       1  LIG1        0.1425
     22 C          -2.2536    7.4797   -0.2322 C.ar    1  LIG1        0.1875
     23 C          -2.8769    8.6903   -0.3822 C.ar    1  LIG1        0.0752
     24 C          -4.2926    8.4408   -0.2619 C.ar    1  LIG1        0.0882
     25 C          -4.4093    7.0951   -0.0626 C.ar    1  LIG1        0.1934
     26 O          -3.1695    6.5235   -0.0428 O.2     1  LIG1       -0.4455
     27 S          -2.1888   10.2641   -0.7753 S.3     1  LIG1       -0.1371
     28 H          -2.3360   10.8242    0.4342 H       1  LIG1        0.1073
     29 N          -5.2587    9.4320   -0.2809 N.pl3   1  LIG1       -0.3541
     30 H          -4.9632   10.2490   -0.8027 H       1  LIG1        0.1425
     31 H          -6.1742    9.1063   -0.5671 H       1  LIG1        0.1425
     32 C          -5.5339    6.2029    0.1663 C.ar    1  LIG1        0.1865
     33 C          -6.8310    6.1837   -0.2582 C.ar    1  LIG1        0.0745
     34 C          -7.4353    5.0167    0.3374 C.ar    1  LIG1        0.0769
     35 C          -6.4543    4.4289    1.0648 C.ar    1  LIG1        0.1144
     36 O          -5.3072    5.1468    0.9673 O.2     1  LIG1       -0.4567
     37 H          -6.4229    3.5455    1.6761 H       1  LIG1        0.1049
     38 S          -7.6420    7.2514   -1.4046 S.3     1  LIG1       -0.1371
     39 H          -8.6727    7.5438   -0.5993 H       1  LIG1        0.1073
     40 N          -8.7901    4.6863    0.1860 N.pl3   1  LIG1       -0.3547
     41 H          -9.0711    4.6946   -0.7894 H       1  LIG1        0.1424
     42 H          -9.0289    3.7990    0.6112 H       1  LIG1        0.1424
@<TRIPOS>BOND
     1     6     1    1
     2     1     5   ar
     3     1     2   ar
     4    38    39    1
     5    38    33    1
     6     5     4   ar
     7    30    29    1
     8    41    40    1
     9     2     7    1
    10     2     3   ar
    11    27    23    1
    12    27    28    1
    13     7     8    1
    14     4    12    1
    15     4     3   ar
    16    31    29    1
    17    16    12   ar
    18    16    15   ar
    19    12    13   ar
    20    23    24   ar
    21    23    22   ar
    22    29    24    1
    23    24    25   ar
    24    33    32   ar
    25    33    34   ar
    26    15    22    1
    27    15    14   ar
    28    22    26   ar
    29     3     9    1
    30    13    14   ar
    31    13    17    1
    32    25    26   ar
    33    25    32    1
    34    14    19    1
    35    21    19    1
    36    17    18    1
    37    32    36   ar
    38    20    19    1
    39    40    34    1
    40    40    42    1
    41    34    35   ar
    42    10     9    1
    43    11     9    1
    44    36    35   ar
    45    35    37    1
