@<TRIPOS>MOLECULE
mol_data/opt/m06hf/geoms/mol2/12gh.out
 12 12 0 0 0
SMALL
GASTEIGER

@<TRIPOS>ATOM
      1 C           0.1897    1.9064    0.0178 C.ar    1  LIG1        0.1067
      2 C           1.5366    1.9445   -0.1301 C.ar    1  LIG1        0.0633
      3 C           1.9014    3.3440   -0.1246 C.ar    1  LIG1        0.0762
      4 C           0.7358    4.0195    0.0341 C.ar    1  LIG1        0.1134
      5 O          -0.3049    3.1447    0.1189 O.2     1  LIG1       -0.4680
      6 H          -0.5059    1.0860    0.0587 H       1  LIG1        0.1041
      7 H           0.4977    5.0645    0.1082 H       1  LIG1        0.1049
      8 S           2.6239    0.5798   -0.3898 S.3     1  LIG1       -0.1378
      9 H           3.2074    0.6057    0.8149 H       1  LIG1        0.1073
     10 N           3.2177    3.8087   -0.1950 N.pl3   1  LIG1       -0.3547
     11 H           3.7936    3.2167   -0.7830 H       1  LIG1        0.1424
     12 H           3.2910    4.7785   -0.4731 H       1  LIG1        0.1424
@<TRIPOS>BOND
     1    11    10    1
     2    12    10    1
     3     8     2    1
     4     8     9    1
     5    10     3    1
     6     2     3   ar
     7     2     1   ar
     8     3     4   ar
     9     1     6    1
    10     1     5   ar
    11     4     7    1
    12     4     5   ar
