@<TRIPOS>MOLECULE
mol_data/opt/m06hf/geoms/mol2/12gh12gh12gh-12gh.out
 42 45 0 0 0
SMALL
GASTEIGER

@<TRIPOS>ATOM
      1 C           0.5205    2.0683   -1.4863 C.ar    1  LIG1        0.1077
      2 C           1.6903    1.9240   -0.8147 C.ar    1  LIG1        0.0640
      3 C           2.0025    3.2213   -0.2591 C.ar    1  LIG1        0.0874
      4 C           0.9737    4.0358   -0.6519 C.ar    1  LIG1        0.1924
      5 O           0.0812    3.3219   -1.4024 O.2     1  LIG1       -0.4568
      6 H          -0.0731    1.3700   -2.0509 H       1  LIG1        0.1041
      7 S           2.6846    0.4726   -0.6988 S.3     1  LIG1       -0.1378
      8 H           2.3301    0.1320    0.5472 H       1  LIG1        0.1073
      9 N           3.0917    3.4670    0.5549 N.pl3   1  LIG1       -0.3541
     10 H           3.8163    2.7673    0.4466 H       1  LIG1        0.1425
     11 H           3.4476    4.4131    0.4993 H       1  LIG1        0.1425
     12 C           0.6089    5.4204   -0.3998 C.ar    1  LIG1        0.1875
     13 C           1.3053    6.5562   -0.0865 C.ar    1  LIG1        0.0752
     14 C           0.3343    7.6166    0.0274 C.ar    1  LIG1        0.0882
     15 C          -0.8751    7.0337   -0.2357 C.ar    1  LIG1        0.1935
     16 O          -0.6935    5.7039   -0.4930 O.2     1  LIG1       -0.4455
     17 S           3.0455    6.7961    0.0392 S.3     1  LIG1       -0.1371
     18 H           3.0908    6.9959    1.3659 H       1  LIG1        0.1073
     19 N           0.6568    8.9092    0.3991 N.pl3   1  LIG1       -0.3541
     20 H           1.6232    9.1361    0.1944 H       1  LIG1        0.1425
     21 H           0.0144    9.6085    0.0484 H       1  LIG1        0.1425
     22 C          -2.2581    7.4803   -0.2305 C.ar    1  LIG1        0.1875
     23 C          -2.8850    8.6902   -0.3713 C.ar    1  LIG1        0.0752
     24 C          -4.3000    8.4354   -0.2546 C.ar    1  LIG1        0.0882
     25 C          -4.4128    7.0877   -0.0664 C.ar    1  LIG1        0.1934
     26 O          -3.1712    6.5199   -0.0499 O.2     1  LIG1       -0.4455
     27 S          -2.2013   10.2692   -0.7510 S.3     1  LIG1       -0.1371
     28 H          -2.3515   10.8191    0.4628 H       1  LIG1        0.1073
     29 N          -5.2692    9.4237   -0.2667 N.pl3   1  LIG1       -0.3541
     30 H          -4.9756   10.2458   -0.7814 H       1  LIG1        0.1425
     31 H          -6.1833    9.0975   -0.5568 H       1  LIG1        0.1425
     32 C          -5.5350    6.1904    0.1541 C.ar    1  LIG1        0.1865
     33 C          -6.8314    6.1707   -0.2722 C.ar    1  LIG1        0.0745
     34 C          -7.4330    4.9973    0.3135 C.ar    1  LIG1        0.0769
     35 C          -6.4511    4.4065    1.0372 C.ar    1  LIG1        0.1144
     36 O          -5.3061    5.1286    0.9468 O.2     1  LIG1       -0.4567
     37 H          -6.4178    3.5183    1.6415 H       1  LIG1        0.1049
     38 S          -7.6444    7.2451   -1.4109 S.3     1  LIG1       -0.1371
     39 H          -8.6770    7.5276   -0.6046 H       1  LIG1        0.1073
     40 N          -8.7867    4.6641    0.1579 N.pl3   1  LIG1       -0.3547
     41 H          -9.0665    4.6791   -0.8178 H       1  LIG1        0.1424
     42 H          -9.0234    3.7729    0.5760 H       1  LIG1        0.1424
@<TRIPOS>BOND
     1     6     1    1
     2     1     5   ar
     3     1     2   ar
     4    38    39    1
     5    38    33    1
     6     5     4   ar
     7    41    40    1
     8     2     7    1
     9     2     3   ar
    10    30    29    1
    11    27    23    1
    12    27    28    1
    13     7     8    1
    14     4    12    1
    15     4     3   ar
    16    31    29    1
    17    16    12   ar
    18    16    15   ar
    19    12    13   ar
    20    23    24   ar
    21    23    22   ar
    22    33    32   ar
    23    33    34   ar
    24    29    24    1
    25     3     9    1
    26    24    25   ar
    27    15    22    1
    28    15    14   ar
    29    22    26   ar
    30    13    14   ar
    31    13    17    1
    32    25    26   ar
    33    25    32    1
    34    14    19    1
    35    17    18    1
    36    21    19    1
    37    32    36   ar
    38    40    34    1
    39    40    42    1
    40    20    19    1
    41    34    35   ar
    42    10     9    1
    43    11     9    1
    44    36    35   ar
    45    35    37    1
