@<TRIPOS>MOLECULE
mol_data/opt/m06hf/geoms/mol2/12gh12gh-12gh-12gh-.out
 42 45 0 0 0
SMALL
GASTEIGER

@<TRIPOS>ATOM
      1 C           0.5060    2.0598   -1.4588 C.ar    1  LIG1        0.1077
      2 C           1.6768    1.9126   -0.7896 C.ar    1  LIG1        0.0640
      3 C           1.9940    3.2095   -0.2356 C.ar    1  LIG1        0.0874
      4 C           0.9666    4.0266   -0.6269 C.ar    1  LIG1        0.1924
      5 O           0.0705    3.3147   -1.3750 O.2     1  LIG1       -0.4568
      6 H          -0.0908    1.3627   -2.0216 H       1  LIG1        0.1041
      7 S           2.6671    0.4585   -0.6745 S.3     1  LIG1       -0.1378
      8 H           2.3143    0.1201    0.5725 H       1  LIG1        0.1073
      9 N           3.0855    3.4527    0.5759 N.pl3   1  LIG1       -0.3541
     10 H           3.8079    2.7509    0.4664 H       1  LIG1        0.1425
     11 H           3.4439    4.3978    0.5187 H       1  LIG1        0.1425
     12 C           0.6064    5.4125   -0.3751 C.ar    1  LIG1        0.1875
     13 C           1.3067    6.5465   -0.0644 C.ar    1  LIG1        0.0752
     14 C           0.3390    7.6098    0.0509 C.ar    1  LIG1        0.0882
     15 C          -0.8727    7.0301   -0.2090 C.ar    1  LIG1        0.1935
     16 O          -0.6954    5.6997   -0.4657 O.2     1  LIG1       -0.4455
     17 S           3.0479    6.7816    0.0572 S.3     1  LIG1       -0.1371
     18 H           3.0967    6.9824    1.3836 H       1  LIG1        0.1073
     19 N           0.6661    8.9017    0.4208 N.pl3   1  LIG1       -0.3541
     20 H           1.6327    9.1258    0.2136 H       1  LIG1        0.1425
     21 H           0.0249    9.6026    0.0711 H       1  LIG1        0.1425
     22 C          -2.2543    7.4807   -0.2010 C.ar    1  LIG1        0.1875
     23 C          -2.8781    8.6922   -0.3415 C.ar    1  LIG1        0.0752
     24 C          -4.2935    8.4416   -0.2213 C.ar    1  LIG1        0.0882
     25 C          -4.4098    7.0944   -0.0314 C.ar    1  LIG1        0.1934
     26 O          -3.1698    6.5230   -0.0173 O.2     1  LIG1       -0.4455
     27 S          -2.1908   10.2689   -0.7243 S.3     1  LIG1       -0.1371
     28 H          -2.3368   10.8204    0.4893 H       1  LIG1        0.1073
     29 N          -5.2599    9.4327   -0.2321 N.pl3   1  LIG1       -0.3541
     30 H          -4.9652   10.2533   -0.7484 H       1  LIG1        0.1425
     31 H          -6.1756    9.1087   -0.5195 H       1  LIG1        0.1425
     32 C          -5.5339    6.2005    0.1925 C.ar    1  LIG1        0.1865
     33 C          -6.8314    6.1840   -0.2307 C.ar    1  LIG1        0.0745
     34 C          -7.4349    5.0127    0.3574 C.ar    1  LIG1        0.0769
     35 C          -6.4530    4.4200    1.0794 C.ar    1  LIG1        0.1144
     36 O          -5.3061    5.1388    0.9857 O.2     1  LIG1       -0.4567
     37 H          -6.4207    3.5323    1.6845 H       1  LIG1        0.1049
     38 S          -7.6440    7.2596   -1.3686 S.3     1  LIG1       -0.1371
     39 H          -8.6738    7.5462   -0.5600 H       1  LIG1        0.1073
     40 N          -8.7899    4.6832    0.2052 N.pl3   1  LIG1       -0.3547
     41 H          -9.0720    4.6986   -0.7698 H       1  LIG1        0.1424
     42 H          -9.0279    3.7926    0.6241 H       1  LIG1        0.1424
@<TRIPOS>BOND
     1     6     1    1
     2     1     5   ar
     3     1     2   ar
     4     5     4   ar
     5    38    39    1
     6    38    33    1
     7     2     7    1
     8     2     3   ar
     9    41    40    1
    10    30    29    1
    11    27    23    1
    12    27    28    1
    13     7     8    1
    14     4    12    1
    15     4     3   ar
    16    31    29    1
    17    16    12   ar
    18    16    15   ar
    19    12    13   ar
    20    23    24   ar
    21    23    22   ar
    22     3     9    1
    23    29    24    1
    24    33    32   ar
    25    33    34   ar
    26    24    25   ar
    27    15    22    1
    28    15    14   ar
    29    22    26   ar
    30    13    14   ar
    31    13    17    1
    32    25    26   ar
    33    25    32    1
    34    14    19    1
    35    17    18    1
    36    21    19    1
    37    32    36   ar
    38    40    34    1
    39    40    42    1
    40    20    19    1
    41    34    35   ar
    42    10     9    1
    43    11     9    1
    44    36    35   ar
    45    35    37    1
