@<TRIPOS>MOLECULE
mol_data/opt/m06hf/geoms/mol2/12gh12gh12gh-12gh-.out
 42 45 0 0 0
SMALL
GASTEIGER

@<TRIPOS>ATOM
      1 C           0.5234    2.0541   -1.4419 C.ar    1  LIG1        0.1077
      2 C           1.6902    1.9151   -0.7640 C.ar    1  LIG1        0.0640
      3 C           2.0010    3.2173   -0.2190 C.ar    1  LIG1        0.0874
      4 C           0.9745    4.0288   -0.6237 C.ar    1  LIG1        0.1924
      5 O           0.0847    3.3087   -1.3715 O.2     1  LIG1       -0.4568
      6 H          -0.0683    1.3510   -2.0026 H       1  LIG1        0.1041
      7 S           2.6828    0.4641   -0.6304 S.3     1  LIG1       -0.1378
      8 H           2.3226    0.1353    0.6170 H       1  LIG1        0.1073
      9 N           3.0868    3.4696    0.5975 N.pl3   1  LIG1       -0.3541
     10 H           3.8114    2.7685    0.4986 H       1  LIG1        0.1425
     11 H           3.4436    4.4150    0.5346 H       1  LIG1        0.1425
     12 C           0.6097    5.4160   -0.3858 C.ar    1  LIG1        0.1875
     13 C           1.3057    6.5540   -0.0801 C.ar    1  LIG1        0.0752
     14 C           0.3351    7.6162    0.0201 C.ar    1  LIG1        0.0882
     15 C          -0.8737    7.0318   -0.2427 C.ar    1  LIG1        0.1935
     16 O          -0.6921    5.6996   -0.4872 O.2     1  LIG1       -0.4455
     17 S           3.0456    6.7937    0.0505 S.3     1  LIG1       -0.1371
     18 H           3.0857    7.0058    1.3754 H       1  LIG1        0.1073
     19 N           0.6571    8.9119    0.3812 N.pl3   1  LIG1       -0.3541
     20 H           1.6246    9.1362    0.1785 H       1  LIG1        0.1425
     21 H           0.0168    9.6084    0.0214 H       1  LIG1        0.1425
     22 C          -2.2563    7.4795   -0.2472 C.ar    1  LIG1        0.1875
     23 C          -2.8816    8.6885   -0.4016 C.ar    1  LIG1        0.0752
     24 C          -4.2973    8.4359   -0.2885 C.ar    1  LIG1        0.0882
     25 C          -4.4120    7.0901   -0.0885 C.ar    1  LIG1        0.1934
     26 O          -3.1709    6.5214   -0.0617 O.2     1  LIG1       -0.4455
     27 S          -2.1950   10.2635   -0.7928 S.3     1  LIG1       -0.1371
     28 H          -2.3501   10.8246    0.4152 H       1  LIG1        0.1073
     29 N          -5.2656    9.4248   -0.3134 N.pl3   1  LIG1       -0.3541
     30 H          -4.9693   10.2420   -0.8344 H       1  LIG1        0.1425
     31 H          -6.1788    9.0966   -0.6043 H       1  LIG1        0.1425
     32 C          -5.5357    6.1956    0.1356 C.ar    1  LIG1        0.1865
     33 C          -6.8304    6.1731   -0.2959 C.ar    1  LIG1        0.0745
     34 C          -7.4354    5.0054    0.2979 C.ar    1  LIG1        0.0769
     35 C          -6.4570    4.4206    1.0311 C.ar    1  LIG1        0.1144
     36 O          -5.3110    5.1410    0.9390 O.2     1  LIG1       -0.4567
     37 H          -6.4268    3.5380    1.6437 H       1  LIG1        0.1049
     38 S          -7.6378    7.2376   -1.4478 S.3     1  LIG1       -0.1371
     39 H          -8.6735    7.5283   -0.6484 H       1  LIG1        0.1073
     40 N          -8.7886    4.6718    0.1397 N.pl3   1  LIG1       -0.3547
     41 H          -9.0644    4.6782   -0.8372 H       1  LIG1        0.1424
     42 H          -9.0277    3.7845    0.5648 H       1  LIG1        0.1424
@<TRIPOS>BOND
     1     6     1    1
     2    38    39    1
     3    38    33    1
     4     1     5   ar
     5     1     2   ar
     6     5     4   ar
     7    41    40    1
     8    30    29    1
     9    27    23    1
    10    27    28    1
    11     2     7    1
    12     2     3   ar
    13     7     8    1
    14     4    12    1
    15     4     3   ar
    16    31    29    1
    17    16    12   ar
    18    16    15   ar
    19    23    24   ar
    20    23    22   ar
    21    12    13   ar
    22    29    24    1
    23    33    32   ar
    24    33    34   ar
    25    24    25   ar
    26    22    15    1
    27    22    26   ar
    28    15    14   ar
    29     3     9    1
    30    25    26   ar
    31    25    32    1
    32    13    14   ar
    33    13    17    1
    34    14    19    1
    35    21    19    1
    36    17    18    1
    37    32    36   ar
    38    40    34    1
    39    40    42    1
    40    20    19    1
    41    34    35   ar
    42    10     9    1
    43    11     9    1
    44    36    35   ar
    45    35    37    1
