@<TRIPOS>MOLECULE
mol_data/opt/m06hf/geoms/mol2/12gh12gh-12gh12gh-.out
 42 45 0 0 0
SMALL
GASTEIGER

@<TRIPOS>ATOM
      1 C           0.4951    2.0385   -1.4060 C.ar    1  LIG1        0.1077
      2 C           1.6680    1.8980   -0.7389 C.ar    1  LIG1        0.0640
      3 C           1.9892    3.2014   -0.2029 C.ar    1  LIG1        0.0874
      4 C           0.9618    4.0151   -0.6012 C.ar    1  LIG1        0.1924
      5 O           0.0620    3.2951   -1.3370 O.2     1  LIG1       -0.4568
      6 H          -0.1048    1.3352   -1.9576 H       1  LIG1        0.1041
      7 S           2.6562    0.4437   -0.6084 S.3     1  LIG1       -0.1378
      8 H           2.3069    0.1220    0.6441 H       1  LIG1        0.1073
      9 N           3.0840    3.4533    0.6016 N.pl3   1  LIG1       -0.3541
     10 H           3.8047    2.7487    0.4990 H       1  LIG1        0.1425
     11 H           3.4440    4.3968    0.5306 H       1  LIG1        0.1425
     12 C           0.6046    5.4047   -0.3660 C.ar    1  LIG1        0.1875
     13 C           1.3077    6.5415   -0.0720 C.ar    1  LIG1        0.0752
     14 C           0.3420    7.6076    0.0329 C.ar    1  LIG1        0.0882
     15 C          -0.8714    7.0266   -0.2157 C.ar    1  LIG1        0.1935
     16 O          -0.6970    5.6928   -0.4561 O.2     1  LIG1       -0.4455
     17 S           3.0496    6.7752    0.0411 S.3     1  LIG1       -0.1371
     18 H           3.1031    6.9926    1.3647 H       1  LIG1        0.1073
     19 N           0.6721    8.9037    0.3852 N.pl3   1  LIG1       -0.3541
     20 H           1.6385    9.1234    0.1728 H       1  LIG1        0.1425
     21 H           0.0312    9.6011    0.0281 H       1  LIG1        0.1425
     22 C          -2.2524    7.4793   -0.2086 C.ar    1  LIG1        0.1875
     23 C          -2.8749    8.6899   -0.3623 C.ar    1  LIG1        0.0752
     24 C          -4.2902    8.4430   -0.2338 C.ar    1  LIG1        0.0882
     25 C          -4.4078    7.0985   -0.0265 C.ar    1  LIG1        0.1934
     26 O          -3.1686    6.5255   -0.0095 O.2     1  LIG1       -0.4455
     27 S          -2.1867   10.2605   -0.7678 S.3     1  LIG1       -0.1371
     28 H          -2.3270   10.8276    0.4393 H       1  LIG1        0.1073
     29 N          -5.2553    9.4352   -0.2536 N.pl3   1  LIG1       -0.3541
     30 H          -4.9614   10.2489   -0.7814 H       1  LIG1        0.1425
     31 H          -6.1725    9.1089   -0.5339 H       1  LIG1        0.1425
     32 C          -5.5324    6.2092    0.2130 C.ar    1  LIG1        0.1865
     33 C          -6.8315    6.1895   -0.2053 C.ar    1  LIG1        0.0745
     34 C          -7.4346    5.0266    0.3997 C.ar    1  LIG1        0.0769
     35 C          -6.4510    4.4416    1.1258 C.ar    1  LIG1        0.1144
     36 O          -5.3034    5.1574    1.0189 O.2     1  LIG1       -0.4567
     37 H          -6.4179    3.5617    1.7420 H       1  LIG1        0.1049
     38 S          -7.6466    7.2519   -1.3538 S.3     1  LIG1       -0.1371
     39 H          -8.6731    7.5497   -0.5454 H       1  LIG1        0.1073
     40 N          -8.7906    4.6972    0.2566 N.pl3   1  LIG1       -0.3547
     41 H          -9.0761    4.7005   -0.7175 H       1  LIG1        0.1424
     42 H          -9.0284    3.8125    0.6877 H       1  LIG1        0.1424
@<TRIPOS>BOND
     1     6     1    1
     2     1     5   ar
     3     1     2   ar
     4    38    39    1
     5    38    33    1
     6     5     4   ar
     7    30    29    1
     8    27    23    1
     9    27    28    1
    10     2     7    1
    11     2     3   ar
    12    41    40    1
    13     7     8    1
    14     4    12    1
    15     4     3   ar
    16    31    29    1
    17    16    12   ar
    18    16    15   ar
    19    12    13   ar
    20    23    24   ar
    21    23    22   ar
    22    29    24    1
    23    24    25   ar
    24    15    22    1
    25    15    14   ar
    26    22    26   ar
    27    33    32   ar
    28    33    34   ar
    29     3     9    1
    30    13    14   ar
    31    13    17    1
    32    25    26   ar
    33    25    32    1
    34    21    19    1
    35    14    19    1
    36    17    18    1
    37    20    19    1
    38    32    36   ar
    39    40    34    1
    40    40    42    1
    41    34    35   ar
    42    10     9    1
    43    11     9    1
    44    36    35   ar
    45    35    37    1
