@<TRIPOS>MOLECULE
mol_data/opt/m06hf/geoms/mol2/12gh12gh-.out
 22 23 0 0 0
SMALL
GASTEIGER

@<TRIPOS>ATOM
      1 C           0.2371    1.8599   -0.3590 C.ar    1  LIG1        0.1077
      2 C           1.5795    1.8733   -0.1639 C.ar    1  LIG1        0.0640
      3 C           1.9605    3.2633   -0.0552 C.ar    1  LIG1        0.0874
      4 C           0.7958    3.9658   -0.1937 C.ar    1  LIG1        0.1924
      5 O          -0.2463    3.1018   -0.3855 O.2     1  LIG1       -0.4568
      6 H          -0.4600    1.0514   -0.4973 H       1  LIG1        0.1041
      7 S           2.6672    0.4849   -0.1243 S.3     1  LIG1       -0.1378
      8 H           2.8740    0.4750    1.2000 H       1  LIG1        0.1073
      9 N           3.2466    3.6964    0.2184 N.pl3   1  LIG1       -0.3541
     10 H           3.9384    2.9899   -0.0032 H       1  LIG1        0.1425
     11 H           3.4704    4.5963   -0.1888 H       1  LIG1        0.1425
     12 C           0.4440    5.3754   -0.1065 C.ar    1  LIG1        0.1865
     13 C           1.1056    6.5430   -0.3618 C.ar    1  LIG1        0.0745
     14 C           0.1828    7.6090   -0.0494 C.ar    1  LIG1        0.0769
     15 C          -0.9545    6.9979    0.3617 C.ar    1  LIG1        0.1144
     16 O          -0.7947    5.6478    0.3329 O.2     1  LIG1       -0.4567
     17 H          -1.9091    7.3638    0.6928 H       1  LIG1        0.1049
     18 S           2.7006    6.7834   -1.0728 S.3     1  LIG1       -0.1371
     19 H           3.2828    7.3090    0.0140 H       1  LIG1        0.1073
     20 N           0.5112    8.9671   -0.1248 N.pl3   1  LIG1       -0.3547
     21 H           1.0611    9.1754   -0.9518 H       1  LIG1        0.1424
     22 H          -0.2948    9.5766   -0.0690 H       1  LIG1        0.1424
@<TRIPOS>BOND
     1    18    13    1
     2    18    19    1
     3    21    20    1
     4     6     1    1
     5     5     1   ar
     6     5     4   ar
     7    13    12   ar
     8    13    14   ar
     9     1     2   ar
    10     4    12    1
    11     4     3   ar
    12    11     9    1
    13     2     7    1
    14     2     3   ar
    15    20    22    1
    16    20    14    1
    17     7     8    1
    18    12    16   ar
    19     3     9    1
    20    14    15   ar
    21    10     9    1
    22    16    15   ar
    23    15    17    1
