@<TRIPOS>MOLECULE
mol_data/opt/m06hf/geoms/mol2/12gh12gh12gh.out
 32 34 0 0 0
SMALL
GASTEIGER

@<TRIPOS>ATOM
      1 C           0.3790    1.8823   -0.8638 C.ar    1  LIG1        0.1077
      2 C           1.6396    1.8404   -0.3657 C.ar    1  LIG1        0.0640
      3 C           1.9981    3.2048   -0.0512 C.ar    1  LIG1        0.0874
      4 C           0.9021    3.9507   -0.3907 C.ar    1  LIG1        0.1924
      5 O          -0.0758    3.1340   -0.8890 O.2     1  LIG1       -0.4568
      6 H          -0.2740    1.1080   -1.2287 H       1  LIG1        0.1041
      7 S           2.6801    0.4259   -0.1965 S.3     1  LIG1       -0.1378
      8 H           2.5537    0.2908    1.1305 H       1  LIG1        0.1073
      9 N           3.1904    3.5667    0.5461 N.pl3   1  LIG1       -0.3541
     10 H           3.9151    2.8721    0.4084 H       1  LIG1        0.1425
     11 H           3.4996    4.5042    0.3231 H       1  LIG1        0.1425
     12 C           0.5453    5.3556   -0.2792 C.ar    1  LIG1        0.1875
     13 C           1.2514    6.5273   -0.2369 C.ar    1  LIG1        0.0752
     14 C           0.2801    7.5863   -0.1093 C.ar    1  LIG1        0.0882
     15 C          -0.9355    6.9668   -0.1008 C.ar    1  LIG1        0.1934
     16 O          -0.7656    5.6158   -0.2011 O.2     1  LIG1       -0.4455
     17 S           2.9823    6.7951   -0.4277 S.3     1  LIG1       -0.1371
     18 H           3.2196    7.2111    0.8253 H       1  LIG1        0.1073
     19 N           0.6059    8.9240    0.0476 N.pl3   1  LIG1       -0.3541
     20 H           1.4815    9.1604   -0.4050 H       1  LIG1        0.1425
     21 H          -0.1389    9.5538   -0.2265 H       1  LIG1        0.1425
     22 C          -2.3034    7.4418    0.0276 C.ar    1  LIG1        0.1865
     23 C          -2.9560    8.5648   -0.3923 C.ar    1  LIG1        0.0745
     24 C          -4.3198    8.4343    0.0603 C.ar    1  LIG1        0.0769
     25 C          -4.3768    7.2452    0.7077 C.ar    1  LIG1        0.1144
     26 O          -3.1589    6.6474    0.6956 O.2     1  LIG1       -0.4567
     27 H          -5.1694    6.7201    1.2095 H       1  LIG1        0.1049
     28 S          -2.3553    9.8805   -1.4011 S.3     1  LIG1       -0.1371
     29 H          -2.7245   10.8631   -0.5672 H       1  LIG1        0.1073
     30 N          -5.2951    9.4252   -0.1244 N.pl3   1  LIG1       -0.3547
     31 H          -5.3448    9.7260   -1.0926 H       1  LIG1        0.1424
     32 H          -6.2108    9.1419    0.2010 H       1  LIG1        0.1424
@<TRIPOS>BOND
     1    28    29    1
     2    28    23    1
     3     6     1    1
     4    31    30    1
     5     5     1   ar
     6     5     4   ar
     7     1     2   ar
     8    17    13    1
     9    17    18    1
    10    20    19    1
    11    23    22   ar
    12    23    24   ar
    13     4    12    1
    14     4     3   ar
    15     2     7    1
    16     2     3   ar
    17    12    13   ar
    18    12    16   ar
    19    13    14   ar
    20    21    19    1
    21    16    15   ar
    22     7     8    1
    23    30    24    1
    24    30    32    1
    25    14    15   ar
    26    14    19    1
    27    15    22    1
    28     3     9    1
    29    22    26   ar
    30    24    25   ar
    31    11     9    1
    32    10     9    1
    33    26    25   ar
    34    25    27    1
