@<TRIPOS>MOLECULE
mol_data/opt/m06hf/geoms/mol2/12gh12gh-12gh-.out
 32 34 0 0 0
SMALL
GASTEIGER

@<TRIPOS>ATOM
      1 C           0.4002    1.9220   -1.0186 C.ar    1  LIG1        0.1077
      2 C           1.6537    1.8605   -0.5045 C.ar    1  LIG1        0.0640
      3 C           2.0040    3.2102   -0.1244 C.ar    1  LIG1        0.0874
      4 C           0.9110    3.9683   -0.4464 C.ar    1  LIG1        0.1924
      5 O          -0.0574    3.1726   -0.9948 O.2     1  LIG1       -0.4568
      6 H          -0.2453    1.1634   -1.4270 H       1  LIG1        0.1041
      7 S           2.6954    0.4419   -0.3834 S.3     1  LIG1       -0.1378
      8 H           2.5501    0.2473    0.9342 H       1  LIG1        0.1073
      9 N           3.1865    3.5477    0.5057 N.pl3   1  LIG1       -0.3541
     10 H           3.9151    2.8613    0.3478 H       1  LIG1        0.1425
     11 H           3.4963    4.4947    0.3292 H       1  LIG1        0.1425
     12 C           0.5489    5.3662   -0.2776 C.ar    1  LIG1        0.1875
     13 C           1.2514    6.5362   -0.1729 C.ar    1  LIG1        0.0752
     14 C           0.2756    7.5865   -0.0125 C.ar    1  LIG1        0.0882
     15 C          -0.9384    6.9649   -0.0491 C.ar    1  LIG1        0.1934
     16 O          -0.7636    5.6200   -0.2070 O.2     1  LIG1       -0.4455
     17 S           2.9841    6.8155   -0.3262 S.3     1  LIG1       -0.1371
     18 H           3.2021    7.1758    0.9474 H       1  LIG1        0.1073
     19 N           0.5956    8.9166    0.2087 N.pl3   1  LIG1       -0.3541
     20 H           1.4767    9.1748   -0.2208 H       1  LIG1        0.1425
     21 H          -0.1470    9.5564   -0.0475 H       1  LIG1        0.1425
     22 C          -2.3093    7.4311    0.0804 C.ar    1  LIG1        0.1865
     23 C          -2.9586    8.5704   -0.2989 C.ar    1  LIG1        0.0745
     24 C          -4.3284    8.4174    0.1280 C.ar    1  LIG1        0.0769
     25 C          -4.3916    7.2007    0.7213 C.ar    1  LIG1        0.1144
     26 O          -3.1722    6.6063    0.7003 O.2     1  LIG1       -0.4567
     27 H          -5.1900    6.6525    1.1880 H       1  LIG1        0.1049
     28 S          -2.3468    9.9305   -1.2397 S.3     1  LIG1       -0.1371
     29 H          -2.7302   10.8745   -0.3685 H       1  LIG1        0.1073
     30 N          -5.3035    9.4136   -0.0267 N.pl3   1  LIG1       -0.3547
     31 H          -5.3399    9.7571   -0.9812 H       1  LIG1        0.1424
     32 H          -6.2231    9.1143    0.2723 H       1  LIG1        0.1424
@<TRIPOS>BOND
     1     6     1    1
     2    28    29    1
     3    28    23    1
     4     1     5   ar
     5     1     2   ar
     6     5     4   ar
     7    31    30    1
     8     2     7    1
     9     2     3   ar
    10     4    12    1
    11     4     3   ar
    12     7     8    1
    13    17    13    1
    14    17    18    1
    15    23    22   ar
    16    23    24   ar
    17    12    16   ar
    18    12    13   ar
    19    20    19    1
    20    16    15   ar
    21    13    14   ar
    22     3     9    1
    23    15    14   ar
    24    15    22    1
    25    21    19    1
    26    30    24    1
    27    30    32    1
    28    14    19    1
    29    22    26   ar
    30    24    25   ar
    31    11     9    1
    32    10     9    1
    33    26    25   ar
    34    25    27    1
