@<TRIPOS>MOLECULE
mol_data/opt/m06hf/geoms/mol2/12gi.out
 13 13 0 0 0
SMALL
GASTEIGER

@<TRIPOS>ATOM
      1 C           0.1638    1.8822    0.0038 C.ar    1  LIG1        0.1051
      2 C           1.5167    1.9168    0.0785 C.ar    1  LIG1        0.0454
      3 C           1.8916    3.3143    0.0775 C.ar    1  LIG1        0.0004
      4 C           0.7191    3.9856   -0.0072 C.ar    1  LIG1        0.0957
      5 O          -0.3295    3.1305   -0.0476 O.2     1  LIG1       -0.4696
      6 H          -0.5403    1.0681   -0.0142 H       1  LIG1        0.1041
      7 H           0.4835    5.0349   -0.0421 H       1  LIG1        0.1032
      8 S           2.5780    0.5134    0.2576 S.3     1  LIG1       -0.1393
      9 H           3.0875    0.5331   -0.9806 H       1  LIG1        0.1072
     10 C           3.2866    3.8742    0.1540 C.3     1  LIG1       -0.0357
     11 H           3.2518    4.9613    0.2162 H       1  LIG1        0.0279
     12 H           3.8601    3.5910   -0.7297 H       1  LIG1        0.0279
     13 H           3.7977    3.4821    1.0336 H       1  LIG1        0.0279
@<TRIPOS>BOND
     1     9     8    1
     2    12    10    1
     3     5     4   ar
     4     5     1   ar
     5     7     4    1
     6     6     1    1
     7     4     3   ar
     8     1     2   ar
     9     3     2   ar
    10     3    10    1
    11     2     8    1
    12    10    11    1
    13    10    13    1
