@<TRIPOS>MOLECULE
mol_data/opt/m06hf/geoms/mol2/12gi12gi12gi-.out
 35 37 0 0 0
SMALL
GASTEIGER

@<TRIPOS>ATOM
      1 C           0.6254    1.9115   -1.2866 C.ar    1  LIG1        0.1061
      2 C           1.7162    1.8402   -0.4824 C.ar    1  LIG1        0.0462
      3 C           1.8827    3.1512    0.1005 C.ar    1  LIG1        0.0116
      4 C           0.8772    3.8952   -0.4332 C.ar    1  LIG1        0.1748
      5 O           0.1087    3.1477   -1.2652 O.2     1  LIG1       -0.4584
      6 H           0.1309    1.1789   -1.9003 H       1  LIG1        0.1041
      7 S           2.6452    0.3775   -0.1361 S.3     1  LIG1       -0.1393
      8 H           3.7372    0.7096   -0.8366 H       1  LIG1        0.1072
      9 C           2.9148    3.5554    1.1165 C.3     1  LIG1       -0.0350
     10 H           2.6069    4.4744    1.6158 H       1  LIG1        0.0279
     11 H           3.8804    3.7226    0.6377 H       1  LIG1        0.0279
     12 H           3.0213    2.7611    1.8558 H       1  LIG1        0.0279
     13 C           0.4964    5.2910   -0.2525 C.ar    1  LIG1        0.1843
     14 C           1.2231    6.4447   -0.2044 C.ar    1  LIG1        0.0573
     15 C           0.2874    7.5106    0.0557 C.ar    1  LIG1        0.0123
     16 C          -0.9287    6.9020    0.1003 C.ar    1  LIG1        0.1758
     17 O          -0.8085    5.5639   -0.0666 O.2     1  LIG1       -0.4472
     18 S           2.9715    6.6030   -0.4093 S.3     1  LIG1       -0.1386
     19 H           2.9064    7.3480   -1.5206 H       1  LIG1        0.1072
     20 C           0.6216    8.9614    0.2684 C.3     1  LIG1       -0.0349
     21 H          -0.2042    9.4625    0.7744 H       1  LIG1        0.0279
     22 H           0.8041    9.4614   -0.6838 H       1  LIG1        0.0279
     23 H           1.5188    9.0366    0.8835 H       1  LIG1        0.0279
     24 C          -2.2748    7.4270    0.2976 C.ar    1  LIG1        0.1833
     25 C          -2.9179    8.5230   -0.1953 C.ar    1  LIG1        0.0566
     26 C          -4.2351    8.5262    0.3981 C.ar    1  LIG1        0.0012
     27 C          -4.2674    7.4189    1.1773 C.ar    1  LIG1        0.0967
     28 O          -3.0924    6.7571    1.1345 O.2     1  LIG1       -0.4584
     29 H          -5.0338    6.9926    1.8011 H       1  LIG1        0.1032
     30 S          -2.2555    9.7125   -1.3203 S.3     1  LIG1       -0.1386
     31 H          -3.2069    9.5691   -2.2505 H       1  LIG1        0.1072
     32 C          -5.3215    9.5424    0.1695 C.3     1  LIG1       -0.0357
     33 H          -6.1750    9.3301    0.8121 H       1  LIG1        0.0279
     34 H          -5.6558    9.5218   -0.8690 H       1  LIG1        0.0279
     35 H          -4.9477   10.5425    0.3909 H       1  LIG1        0.0279
@<TRIPOS>BOND
     1    31    30    1
     2     6     1    1
     3    19    18    1
     4    30    25    1
     5     1     5   ar
     6     1     2   ar
     7     5     4   ar
     8    34    32    1
     9     8     7    1
    10    22    20    1
    11     2     7    1
    12     2     3   ar
    13     4    13    1
    14     4     3   ar
    15    18    14    1
    16    13    14   ar
    17    13    17   ar
    18    14    15   ar
    19    25    24   ar
    20    25    26   ar
    21    17    16   ar
    22    15    16   ar
    23    15    20    1
    24    16    24    1
    25     3     9    1
    26    32    35    1
    27    32    26    1
    28    32    33    1
    29    20    21    1
    30    20    23    1
    31    24    28   ar
    32    26    27   ar
    33    11     9    1
    34     9    10    1
    35     9    12    1
    36    28    27   ar
    37    27    29    1
