@<TRIPOS>MOLECULE
mol_data/opt/m06hf/geoms/mol2/12gi12gi-.out
 24 25 0 0 0
SMALL
GASTEIGER

@<TRIPOS>ATOM
      1 C           0.3065    1.8660   -0.6437 C.ar    1  LIG1        0.1061
      2 C           1.5798    1.8558   -0.1751 C.ar    1  LIG1        0.0462
      3 C           1.8830    3.2119    0.2196 C.ar    1  LIG1        0.0116
      4 C           0.7576    3.9156   -0.0736 C.ar    1  LIG1        0.1747
      5 O          -0.2021    3.1050   -0.5871 O.2     1  LIG1       -0.4584
      6 H          -0.3295    1.0867   -1.0262 H       1  LIG1        0.1041
      7 S           2.5954    0.4214    0.0185 S.3     1  LIG1       -0.1393
      8 H           3.4526    0.6985   -0.9728 H       1  LIG1        0.1072
      9 C           3.1540    3.6992    0.8578 C.3     1  LIG1       -0.0350
     10 H           2.9950    4.6817    1.3030 H       1  LIG1        0.0279
     11 H           3.9508    3.7753    0.1163 H       1  LIG1        0.0279
     12 H           3.4614    2.9963    1.6327 H       1  LIG1        0.0279
     13 C           0.4283    5.3301    0.0698 C.ar    1  LIG1        0.1833
     14 C           1.1116    6.4674   -0.2396 C.ar    1  LIG1        0.0566
     15 C           0.2757    7.5725    0.1703 C.ar    1  LIG1        0.0012
     16 C          -0.8421    6.9949    0.6705 C.ar    1  LIG1        0.0967
     17 O          -0.7578    5.6476    0.6250 O.2     1  LIG1       -0.4584
     18 H          -1.7480    7.4028    1.0852 H       1  LIG1        0.1032
     19 S           2.7079    6.5652   -0.9925 S.3     1  LIG1       -0.1386
     20 H           2.2888    7.1294   -2.1317 H       1  LIG1        0.1072
     21 C           0.5962    9.0373    0.0428 C.3     1  LIG1       -0.0357
     22 H          -0.1900    9.6352    0.5023 H       1  LIG1        0.0279
     23 H           0.6818    9.3211   -1.0073 H       1  LIG1        0.0279
     24 H           1.5448    9.2551    0.5342 H       1  LIG1        0.0279
@<TRIPOS>BOND
     1    20    19    1
     2     6     1    1
     3    23    21    1
     4    19    14    1
     5     8     7    1
     6     1     5   ar
     7     1     2   ar
     8     5     4   ar
     9    14    13   ar
    10    14    15   ar
    11     2     7    1
    12     2     3   ar
    13     4    13    1
    14     4     3   ar
    15    21    15    1
    16    21    22    1
    17    21    24    1
    18    13    17   ar
    19    11     9    1
    20    15    16   ar
    21     3     9    1
    22    17    16   ar
    23    16    18    1
    24     9    10    1
    25     9    12    1
