@<TRIPOS>MOLECULE
mol_data/opt/m06hf/geoms/mol2/12gi12gi-12gi12gi-.out
 46 49 0 0 0
SMALL
GASTEIGER

@<TRIPOS>ATOM
      1 C           1.3483    2.3866   -2.3431 C.ar    1  LIG1        0.1061
      2 C           2.1379    2.0585   -1.2904 C.ar    1  LIG1        0.0462
      3 C           2.0107    3.1311   -0.3315 C.ar    1  LIG1        0.0116
      4 C           1.1635    4.0182   -0.9182 C.ar    1  LIG1        0.1748
      5 O           0.7510    3.5674   -2.1297 O.2     1  LIG1       -0.4584
      6 H           1.1305    1.8827   -3.2687 H       1  LIG1        0.1041
      7 S           3.0342    0.5467   -1.1045 S.3     1  LIG1       -0.1393
      8 H           4.2591    1.0747   -1.2124 H       1  LIG1        0.1072
      9 C           2.6499    3.1985    1.0277 C.3     1  LIG1       -0.0350
     10 H           2.1524    3.9524    1.6382 H       1  LIG1        0.0279
     11 H           3.7067    3.4556    0.9421 H       1  LIG1        0.0279
     12 H           2.5632    2.2264    1.5137 H       1  LIG1        0.0279
     13 C           0.6552    5.3124   -0.4749 C.ar    1  LIG1        0.1843
     14 C           1.2748    6.3968    0.0729 C.ar    1  LIG1        0.0573
     15 C           0.2435    7.3669    0.3448 C.ar    1  LIG1        0.0123
     16 C          -0.9043    6.7845   -0.0965 C.ar    1  LIG1        0.1758
     17 O          -0.6668    5.5421   -0.5780 O.2     1  LIG1       -0.4472
     18 S           2.9995    6.5577    0.4168 S.3     1  LIG1       -0.1386
     19 H           3.2110    7.5872   -0.4139 H       1  LIG1        0.1072
     20 C           0.4220    8.7062    1.0044 C.3     1  LIG1       -0.0349
     21 H          -0.5417    9.0839    1.3479 H       1  LIG1        0.0279
     22 H           0.8513    9.4261    0.3055 H       1  LIG1        0.0279
     23 H           1.0923    8.6024    1.8582 H       1  LIG1        0.0279
     24 C          -2.2826    7.2611   -0.1127 C.ar    1  LIG1        0.1843
     25 C          -2.8325    8.4520   -0.4840 C.ar    1  LIG1        0.0573
     26 C          -4.2460    8.3535   -0.2165 C.ar    1  LIG1        0.0123
     27 C          -4.4208    7.0928    0.2646 C.ar    1  LIG1        0.1758
     28 O          -3.2413    6.4345    0.3452 O.2     1  LIG1       -0.4472
     29 S          -1.9664    9.8473   -1.1346 S.3     1  LIG1       -0.1386
     30 H          -2.7012    9.9498   -2.2491 H       1  LIG1        0.1072
     31 C          -5.2722    9.4358   -0.4063 C.3     1  LIG1       -0.0349
     32 H          -6.1732    9.1959    0.1588 H       1  LIG1        0.0279
     33 H          -5.5386    9.5363   -1.4597 H       1  LIG1        0.0279
     34 H          -4.8668   10.3840   -0.0513 H       1  LIG1        0.0279
     35 C          -5.6168    6.3793    0.7011 C.ar    1  LIG1        0.1833
     36 C          -6.8538    6.2356    0.1482 C.ar    1  LIG1        0.0566
     37 C          -7.6262    5.4406    1.0746 C.ar    1  LIG1        0.0012
     38 C          -6.7738    5.1658    2.0906 C.ar    1  LIG1        0.0967
     39 O          -5.5667    5.7330    1.8822 O.2     1  LIG1       -0.4584
     40 H          -6.8849    4.6019    3.0006 H       1  LIG1        0.1032
     41 S          -7.3986    6.8941   -1.3991 S.3     1  LIG1       -0.1386
     42 H          -7.5669    5.7091   -1.9977 H       1  LIG1        0.1072
     43 C          -9.0593    5.0100    0.9135 C.3     1  LIG1       -0.0357
     44 H          -9.3909    4.4725    1.8012 H       1  LIG1        0.0279
     45 H          -9.1672    4.3548    0.0476 H       1  LIG1        0.0279
     46 H          -9.6971    5.8816    0.7648 H       1  LIG1        0.0279
@<TRIPOS>BOND
     1     6     1    1
     2     1     5   ar
     3     1     2   ar
     4    30    29    1
     5     5     4   ar
     6    42    41    1
     7    33    31    1
     8    41    36    1
     9     2     7    1
    10     2     3   ar
    11     8     7    1
    12    29    25    1
    13     4    13    1
    14     4     3   ar
    15    17    13   ar
    16    17    16   ar
    17    25    26   ar
    18    25    24   ar
    19    13    14   ar
    20    19    18    1
    21    31    26    1
    22    31    34    1
    23    31    32    1
    24     3     9    1
    25    26    27   ar
    26    24    16    1
    27    24    28   ar
    28    16    15   ar
    29    45    43    1
    30    14    15   ar
    31    14    18    1
    32    36    35   ar
    33    36    37   ar
    34    27    28   ar
    35    27    35    1
    36    22    20    1
    37    15    20    1
    38    35    39   ar
    39    46    43    1
    40    43    37    1
    41    43    44    1
    42    11     9    1
    43    20    21    1
    44    20    23    1
    45     9    12    1
    46     9    10    1
    47    37    38   ar
    48    39    38   ar
    49    38    40    1
