@<TRIPOS>MOLECULE
mol_data/opt/m06hf/geoms/mol2/12gi12gi-12gi-12gi.out
 46 49 0 0 0
SMALL
GASTEIGER

@<TRIPOS>ATOM
      1 C           1.3006    2.3843   -2.3255 C.ar    1  LIG1        0.1061
      2 C           2.1046    2.0564   -1.2834 C.ar    1  LIG1        0.0462
      3 C           2.0059    3.1388   -0.3320 C.ar    1  LIG1        0.0116
      4 C           1.1588    4.0304   -0.9126 C.ar    1  LIG1        0.1748
      5 O           0.7223    3.5743   -2.1138 O.2     1  LIG1       -0.4584
      6 H           1.0598    1.8735   -3.2417 H       1  LIG1        0.1041
      7 S           2.9739    0.5295   -1.0965 S.3     1  LIG1       -0.1393
      8 H           4.2063    1.0130   -1.3021 H       1  LIG1        0.1072
      9 C           2.6667    3.2102    1.0167 C.3     1  LIG1       -0.0350
     10 H           2.1773    3.9640    1.6339 H       1  LIG1        0.0279
     11 H           3.7214    3.4696    0.9133 H       1  LIG1        0.0279
     12 H           2.5904    2.2388    1.5055 H       1  LIG1        0.0279
     13 C           0.6588    5.3277   -0.4693 C.ar    1  LIG1        0.1843
     14 C           1.2805    6.4105    0.0792 C.ar    1  LIG1        0.0573
     15 C           0.2506    7.3817    0.3534 C.ar    1  LIG1        0.0123
     16 C          -0.8983    6.8019   -0.0884 C.ar    1  LIG1        0.1758
     17 O          -0.6628    5.5598   -0.5715 O.2     1  LIG1       -0.4472
     18 S           3.0055    6.5679    0.4224 S.3     1  LIG1       -0.1386
     19 H           3.2155    7.6071   -0.3966 H       1  LIG1        0.1072
     20 C           0.4312    8.7188    1.0170 C.3     1  LIG1       -0.0349
     21 H          -0.5317    9.0961    1.3633 H       1  LIG1        0.0279
     22 H           0.8601    9.4410    0.3203 H       1  LIG1        0.0279
     23 H           1.1024    8.6113    1.8698 H       1  LIG1        0.0279
     24 C          -2.2768    7.2775   -0.1054 C.ar    1  LIG1        0.1843
     25 C          -2.8290    8.4698   -0.4690 C.ar    1  LIG1        0.0573
     26 C          -4.2439    8.3632   -0.2118 C.ar    1  LIG1        0.0123
     27 C          -4.4170    7.0972    0.2558 C.ar    1  LIG1        0.1758
     28 O          -3.2354    6.4429    0.3381 O.2     1  LIG1       -0.4472
     29 S          -1.9646    9.8742   -1.1023 S.3     1  LIG1       -0.1386
     30 H          -2.6923    9.9827   -2.2209 H       1  LIG1        0.1072
     31 C          -5.2734    9.4428   -0.3987 C.3     1  LIG1       -0.0349
     32 H          -6.1771    9.1941    0.1581 H       1  LIG1        0.0279
     33 H          -5.5329    9.5519   -1.4530 H       1  LIG1        0.0279
     34 H          -4.8746   10.3895   -0.0323 H       1  LIG1        0.0279
     35 C          -5.6126    6.3725    0.6744 C.ar    1  LIG1        0.1833
     36 C          -6.8431    6.2256    0.1081 C.ar    1  LIG1        0.0566
     37 C          -7.6180    5.4137    1.0176 C.ar    1  LIG1        0.0012
     38 C          -6.7732    5.1340    2.0387 C.ar    1  LIG1        0.0967
     39 O          -5.5688    5.7133    1.8486 O.2     1  LIG1       -0.4584
     40 H          -6.8885    4.5589    2.9411 H       1  LIG1        0.1032
     41 S          -7.3784    6.8978   -1.4367 S.3     1  LIG1       -0.1386
     42 H          -7.5423    5.7179   -2.0468 H       1  LIG1        0.1072
     43 C          -9.0458    4.9730    0.8374 C.3     1  LIG1       -0.0357
     44 H          -9.3816    4.4227    1.7156 H       1  LIG1        0.0279
     45 H          -9.1395    4.3266   -0.0367 H       1  LIG1        0.0279
     46 H          -9.6895    5.8409    0.6920 H       1  LIG1        0.0279
@<TRIPOS>BOND
     1     6     1    1
     2     1     5   ar
     3     1     2   ar
     4    30    29    1
     5     5     4   ar
     6    42    41    1
     7    33    31    1
     8    41    36    1
     9     8     7    1
    10     2     7    1
    11     2     3   ar
    12    29    25    1
    13     4    13    1
    14     4     3   ar
    15    17    13   ar
    16    17    16   ar
    17    13    14   ar
    18    25    26   ar
    19    25    24   ar
    20    31    26    1
    21    31    34    1
    22    31    32    1
    23    19    18    1
    24     3     9    1
    25    26    27   ar
    26    24    16    1
    27    24    28   ar
    28    16    15   ar
    29    45    43    1
    30    14    15   ar
    31    14    18    1
    32    36    35   ar
    33    36    37   ar
    34    27    28   ar
    35    27    35    1
    36    22    20    1
    37    15    20    1
    38    35    39   ar
    39    46    43    1
    40    43    37    1
    41    43    44    1
    42    11     9    1
    43     9    12    1
    44     9    10    1
    45    20    21    1
    46    20    23    1
    47    37    38   ar
    48    39    38   ar
    49    38    40    1
