@<TRIPOS>MOLECULE
mol_data/opt/m06hf/geoms/mol2/12gi12gi-12gi-12gi-.out
 46 49 0 0 0
SMALL
GASTEIGER

@<TRIPOS>ATOM
      1 C           1.3009    2.3803   -2.3195 C.ar    1  LIG1        0.1061
      2 C           2.1023    2.0515   -1.2757 C.ar    1  LIG1        0.0462
      3 C           2.0031    3.1342   -0.3247 C.ar    1  LIG1        0.0116
      4 C           1.1585    4.0268   -0.9072 C.ar    1  LIG1        0.1748
      5 O           0.7238    3.5711   -2.1092 O.2     1  LIG1       -0.4584
      6 H           1.0614    1.8697   -3.2361 H       1  LIG1        0.1041
      7 S           2.9692    0.5235   -1.0868 S.3     1  LIG1       -0.1393
      8 H           4.2026    1.0055   -1.2899 H       1  LIG1        0.1072
      9 C           2.6612    3.2049    1.0253 C.3     1  LIG1       -0.0350
     10 H           2.1713    3.9592    1.6416 H       1  LIG1        0.0279
     11 H           3.7163    3.4633    0.9240 H       1  LIG1        0.0279
     12 H           2.5830    2.2336    1.5140 H       1  LIG1        0.0279
     13 C           0.6590    5.3247   -0.4650 C.ar    1  LIG1        0.1843
     14 C           1.2808    6.4068    0.0848 C.ar    1  LIG1        0.0573
     15 C           0.2515    7.3792    0.3570 C.ar    1  LIG1        0.0123
     16 C          -0.8971    6.8007   -0.0871 C.ar    1  LIG1        0.1758
     17 O          -0.6621    5.5584   -0.5698 O.2     1  LIG1       -0.4472
     18 S           3.0052    6.5621    0.4318 S.3     1  LIG1       -0.1386
     19 H           3.2183    7.6012   -0.3866 H       1  LIG1        0.1072
     20 C           0.4324    8.7160    1.0210 C.3     1  LIG1       -0.0349
     21 H          -0.5309    9.0947    1.3649 H       1  LIG1        0.0279
     22 H           0.8640    9.4375    0.3253 H       1  LIG1        0.0279
     23 H           1.1013    8.6076    1.8754 H       1  LIG1        0.0279
     24 C          -2.2751    7.2778   -0.1071 C.ar    1  LIG1        0.1843
     25 C          -2.8251    8.4707   -0.4721 C.ar    1  LIG1        0.0573
     26 C          -4.2406    8.3658   -0.2180 C.ar    1  LIG1        0.0123
     27 C          -4.4162    7.1001    0.2494 C.ar    1  LIG1        0.1758
     28 O          -3.2356    6.4444    0.3344 O.2     1  LIG1       -0.4472
     29 S          -1.9578    9.8741   -1.1037 S.3     1  LIG1       -0.1386
     30 H          -2.6831    9.9833   -2.2239 H       1  LIG1        0.1072
     31 C          -5.2686    9.4465   -0.4075 C.3     1  LIG1       -0.0349
     32 H          -6.1737    9.1991    0.1476 H       1  LIG1        0.0279
     33 H          -5.5258    9.5554   -1.4623 H       1  LIG1        0.0279
     34 H          -4.8695   10.3929   -0.0407 H       1  LIG1        0.0279
     35 C          -5.6136    6.3768    0.6654 C.ar    1  LIG1        0.1833
     36 C          -6.8428    6.2307    0.0960 C.ar    1  LIG1        0.0566
     37 C          -7.6207    5.4198    1.0039 C.ar    1  LIG1        0.0012
     38 C          -6.7786    5.1396    2.0271 C.ar    1  LIG1        0.0967
     39 O          -5.5733    5.7179    1.8399 O.2     1  LIG1       -0.4584
     40 H          -6.8967    4.5648    2.9294 H       1  LIG1        0.1032
     41 S          -7.3735    6.9031   -1.4502 S.3     1  LIG1       -0.1386
     42 H          -7.5374    5.7233   -2.0603 H       1  LIG1        0.1072
     43 C          -9.0483    4.9800    0.8200 C.3     1  LIG1       -0.0357
     44 H          -9.3872    4.4315    1.6981 H       1  LIG1        0.0279
     45 H          -9.1399    4.3322   -0.0533 H       1  LIG1        0.0279
     46 H          -9.6907    5.8482    0.6712 H       1  LIG1        0.0279
@<TRIPOS>BOND
     1     6     1    1
     2     1     5   ar
     3     1     2   ar
     4    30    29    1
     5     5     4   ar
     6    42    41    1
     7    33    31    1
     8    41    36    1
     9     8     7    1
    10     2     7    1
    11     2     3   ar
    12    29    25    1
    13     4    13    1
    14     4     3   ar
    15    17    13   ar
    16    17    16   ar
    17    25    26   ar
    18    25    24   ar
    19    13    14   ar
    20    31    26    1
    21    31    34    1
    22    31    32    1
    23    19    18    1
    24     3     9    1
    25    26    27   ar
    26    24    16    1
    27    24    28   ar
    28    16    15   ar
    29    45    43    1
    30    14    15   ar
    31    14    18    1
    32    36    35   ar
    33    36    37   ar
    34    27    28   ar
    35    27    35    1
    36    22    20    1
    37    15    20    1
    38    35    39   ar
    39    46    43    1
    40    43    37    1
    41    43    44    1
    42    11     9    1
    43    37    38   ar
    44    20    21    1
    45    20    23    1
    46     9    12    1
    47     9    10    1
    48    39    38   ar
    49    38    40    1
