@<TRIPOS>MOLECULE
mol_data/opt/m06hf/geoms/mol2/12gi12gi12gi.out
 35 37 0 0 0
SMALL
GASTEIGER

@<TRIPOS>ATOM
      1 C           0.6249    1.9083   -1.2787 C.ar    1  LIG1        0.1061
      2 C           1.7162    1.8391   -0.4749 C.ar    1  LIG1        0.0462
      3 C           1.8830    3.1516    0.1045 C.ar    1  LIG1        0.0116
      4 C           0.8771    3.8942   -0.4305 C.ar    1  LIG1        0.1748
      5 O           0.1081    3.1444   -1.2600 O.2     1  LIG1       -0.4584
      6 H           0.1302    1.1740   -1.8903 H       1  LIG1        0.1041
      7 S           2.6458    0.3774   -0.1258 S.3     1  LIG1       -0.1393
      8 H           3.7372    0.7083   -0.8277 H       1  LIG1        0.1072
      9 C           2.9159    3.5585    1.1187 C.3     1  LIG1       -0.0350
     10 H           2.6081    4.4788    1.6158 H       1  LIG1        0.0279
     11 H           3.8811    3.7246    0.6387 H       1  LIG1        0.0279
     12 H           3.0230    2.7661    1.8599 H       1  LIG1        0.0279
     13 C           0.4963    5.2903   -0.2530 C.ar    1  LIG1        0.1843
     14 C           1.2230    6.4442   -0.2084 C.ar    1  LIG1        0.0573
     15 C           0.2874    7.5108    0.0495 C.ar    1  LIG1        0.0123
     16 C          -0.9286    6.9022    0.0965 C.ar    1  LIG1        0.1758
     17 O          -0.8085    5.5637   -0.0669 O.2     1  LIG1       -0.4472
     18 S           2.9712    6.6021   -0.4152 S.3     1  LIG1       -0.1386
     19 H           2.9052    7.3444   -1.5282 H       1  LIG1        0.1072
     20 C           0.6216    8.9621    0.2581 C.3     1  LIG1       -0.0349
     21 H          -0.2038    9.4645    0.7635 H       1  LIG1        0.0279
     22 H           0.8032    9.4597   -0.6956 H       1  LIG1        0.0279
     23 H           1.5194    9.0391    0.8722 H       1  LIG1        0.0279
     24 C          -2.2747    7.4277    0.2933 C.ar    1  LIG1        0.1833
     25 C          -2.9181    8.5224   -0.2020 C.ar    1  LIG1        0.0566
     26 C          -4.2349    8.5271    0.3923 C.ar    1  LIG1        0.0012
     27 C          -4.2668    7.4217    1.1743 C.ar    1  LIG1        0.0967
     28 O          -3.0918    6.7598    1.1324 O.2     1  LIG1       -0.4584
     29 H          -5.0328    6.9970    1.7997 H       1  LIG1        0.1032
     30 S          -2.2565    9.7091   -1.3305 S.3     1  LIG1       -0.1386
     31 H          -3.2087    9.5635   -2.2595 H       1  LIG1        0.1072
     32 C          -5.3215    9.5427    0.1619 C.3     1  LIG1       -0.0357
     33 H          -6.1745    9.3322    0.8058 H       1  LIG1        0.0279
     34 H          -5.6567    9.5193   -0.8763 H       1  LIG1        0.0279
     35 H          -4.9474   10.5433    0.3802 H       1  LIG1        0.0279
@<TRIPOS>BOND
     1    31    30    1
     2     6     1    1
     3    19    18    1
     4    30    25    1
     5     1     5   ar
     6     1     2   ar
     7     5     4   ar
     8    34    32    1
     9     8     7    1
    10    22    20    1
    11     2     7    1
    12     2     3   ar
    13     4    13    1
    14     4     3   ar
    15    18    14    1
    16    13    14   ar
    17    13    17   ar
    18    14    15   ar
    19    25    24   ar
    20    25    26   ar
    21    17    16   ar
    22    15    16   ar
    23    15    20    1
    24    16    24    1
    25     3     9    1
    26    32    35    1
    27    32    26    1
    28    32    33    1
    29    20    21    1
    30    20    23    1
    31    24    28   ar
    32    26    27   ar
    33    11     9    1
    34     9    10    1
    35     9    12    1
    36    28    27   ar
    37    27    29    1
