@<TRIPOS>MOLECULE
mol_data/opt/m06hf/geoms/mol2/12gi12gi.out
 24 25 0 0 0
SMALL
GASTEIGER

@<TRIPOS>ATOM
      1 C           0.3102    1.8677   -0.6543 C.ar    1  LIG1        0.1061
      2 C           1.5811    1.8563   -0.1789 C.ar    1  LIG1        0.0462
      3 C           1.8818    3.2113    0.2216 C.ar    1  LIG1        0.0116
      4 C           0.7580    3.9158   -0.0759 C.ar    1  LIG1        0.1747
      5 O          -0.1988    3.1065   -0.5970 O.2     1  LIG1       -0.4584
      6 H          -0.3236    1.0894   -1.0424 H       1  LIG1        0.1041
      7 S           2.5957    0.4215    0.0161 S.3     1  LIG1       -0.1393
      8 H           3.4588    0.7020   -0.9692 H       1  LIG1        0.1072
      9 C           3.1492    3.6968    0.8682 C.3     1  LIG1       -0.0350
     10 H           2.9877    4.6781    1.3153 H       1  LIG1        0.0279
     11 H           3.9501    3.7751    0.1314 H       1  LIG1        0.0279
     12 H           3.4523    2.9917    1.6428 H       1  LIG1        0.0279
     13 C           0.4279    5.3298    0.0695 C.ar    1  LIG1        0.1833
     14 C           1.1128    6.4680   -0.2328 C.ar    1  LIG1        0.0566
     15 C           0.2745    7.5719    0.1753 C.ar    1  LIG1        0.0012
     16 C          -0.8461    6.9929    0.6676 C.ar    1  LIG1        0.0967
     17 O          -0.7613    5.6458    0.6189 O.2     1  LIG1       -0.4584
     18 H          -1.7543    7.3997    1.0782 H       1  LIG1        0.1032
     19 S           2.7135    6.5679   -0.9762 S.3     1  LIG1       -0.1386
     20 H           2.3009    7.1351   -2.1164 H       1  LIG1        0.1072
     21 C           0.5956    9.0371    0.0536 C.3     1  LIG1       -0.0357
     22 H          -0.1936    9.6337    0.5098 H       1  LIG1        0.0279
     23 H           0.6876    9.3237   -0.9952 H       1  LIG1        0.0279
     24 H           1.5411    9.2537    0.5515 H       1  LIG1        0.0279
@<TRIPOS>BOND
     1    20    19    1
     2     6     1    1
     3    23    21    1
     4    19    14    1
     5     8     7    1
     6     1     5   ar
     7     1     2   ar
     8     5     4   ar
     9    14    13   ar
    10    14    15   ar
    11     2     7    1
    12     2     3   ar
    13     4    13    1
    14     4     3   ar
    15    21    15    1
    16    21    22    1
    17    21    24    1
    18    13    17   ar
    19    11     9    1
    20    15    16   ar
    21     3     9    1
    22    17    16   ar
    23    16    18    1
    24     9    10    1
    25     9    12    1
