@<TRIPOS>MOLECULE
mol_data/opt/m06hf/geoms/mol2/12gi12gi12gi-12gi-.out
 46 49 0 0 0
SMALL
GASTEIGER

@<TRIPOS>ATOM
      1 C           1.3359    2.3816   -2.3011 C.ar    1  LIG1        0.1061
      2 C           2.1261    2.0579   -1.2472 C.ar    1  LIG1        0.0462
      3 C           2.0135    3.1434   -0.3008 C.ar    1  LIG1        0.0116
      4 C           1.1735    4.0322   -0.8957 C.ar    1  LIG1        0.1748
      5 O           0.7537    3.5717   -2.1012 O.2     1  LIG1       -0.4584
      6 H           1.1081    1.8675   -3.2188 H       1  LIG1        0.1041
      7 S           2.9943    0.5326   -1.0435 S.3     1  LIG1       -0.1393
      8 H           4.2288    1.0167   -1.2342 H       1  LIG1        0.1072
      9 C           2.6560    3.2199    1.0564 C.3     1  LIG1       -0.0350
     10 H           2.1574    3.9750    1.6646 H       1  LIG1        0.0279
     11 H           3.7116    3.4804    0.9663 H       1  LIG1        0.0279
     12 H           2.5745    2.2499    1.5472 H       1  LIG1        0.0279
     13 C           0.6660    5.3302   -0.4634 C.ar    1  LIG1        0.1843
     14 C           1.2788    6.4155    0.0903 C.ar    1  LIG1        0.0573
     15 C           0.2440    7.3861    0.3477 C.ar    1  LIG1        0.0123
     16 C          -0.8980    6.8035   -0.1078 C.ar    1  LIG1        0.1758
     17 O          -0.6545    5.5603   -0.5840 O.2     1  LIG1       -0.4472
     18 S           2.9987    6.5761    0.4566 S.3     1  LIG1       -0.1386
     19 H           3.2186    7.6132   -0.3624 H       1  LIG1        0.1072
     20 C           0.4141    8.7253    1.0097 C.3     1  LIG1       -0.0349
     21 H          -0.5541    9.1029    1.3410 H       1  LIG1        0.0279
     22 H           0.8523    9.4458    0.3170 H       1  LIG1        0.0279
     23 H           1.0731    8.6210    1.8723 H       1  LIG1        0.0279
     24 C          -2.2768    7.2773   -0.1453 C.ar    1  LIG1        0.1843
     25 C          -2.8253    8.4677   -0.5204 C.ar    1  LIG1        0.0573
     26 C          -4.2435    8.3602   -0.2824 C.ar    1  LIG1        0.0123
     27 C          -4.4215    7.0956    0.1869 C.ar    1  LIG1        0.1758
     28 O          -3.2404    6.4430    0.2877 O.2     1  LIG1       -0.4472
     29 S          -1.9540    9.8710   -1.1465 S.3     1  LIG1       -0.1386
     30 H          -2.6665    9.9750   -2.2753 H       1  LIG1        0.1072
     31 C          -5.2717    9.4378   -0.4873 C.3     1  LIG1       -0.0349
     32 H          -6.1826    9.1900    0.0580 H       1  LIG1        0.0279
     33 H          -5.5169    9.5428   -1.5453 H       1  LIG1        0.0279
     34 H          -4.8791   10.3863   -0.1189 H       1  LIG1        0.0279
     35 C          -5.6219    6.3706    0.5912 C.ar    1  LIG1        0.1833
     36 C          -6.8441    6.2198    0.0083 C.ar    1  LIG1        0.0566
     37 C          -7.6303    5.4096    0.9096 C.ar    1  LIG1        0.0012
     38 C          -6.7994    5.1346    1.9432 C.ar    1  LIG1        0.0967
     39 O          -5.5934    5.7153    1.7681 O.2     1  LIG1       -0.4584
     40 H          -6.9264    4.5622    2.8458 H       1  LIG1        0.1032
     41 S          -7.3587    6.8862   -1.5459 S.3     1  LIG1       -0.1386
     42 H          -7.5128    5.7042   -2.1543 H       1  LIG1        0.1072
     43 C          -9.0547    4.9659    0.7107 C.3     1  LIG1       -0.0357
     44 H          -9.4023    4.4189    1.5864 H       1  LIG1        0.0279
     45 H          -9.1349    4.3156   -0.1619 H       1  LIG1        0.0279
     46 H          -9.6975    5.8322    0.5524 H       1  LIG1        0.0279
@<TRIPOS>BOND
     1     6     1    1
     2     1     5   ar
     3     1     2   ar
     4    30    29    1
     5    42    41    1
     6     5     4   ar
     7    41    36    1
     8    33    31    1
     9     2     7    1
    10     2     3   ar
    11     8     7    1
    12    29    25    1
    13     4    13    1
    14     4     3   ar
    15    17    13   ar
    16    17    16   ar
    17    25    26   ar
    18    25    24   ar
    19    31    26    1
    20    31    34    1
    21    31    32    1
    22    13    14   ar
    23    19    18    1
    24     3     9    1
    25    26    27   ar
    26    45    43    1
    27    24    16    1
    28    24    28   ar
    29    16    15   ar
    30    36    35   ar
    31    36    37   ar
    32    14    15   ar
    33    14    18    1
    34    27    28   ar
    35    27    35    1
    36    22    20    1
    37    15    20    1
    38    46    43    1
    39    35    39   ar
    40    43    37    1
    41    43    44    1
    42    37    38   ar
    43    11     9    1
    44    20    21    1
    45    20    23    1
    46     9    12    1
    47     9    10    1
    48    39    38   ar
    49    38    40    1
