@<TRIPOS>MOLECULE
mol_data/opt/m06hf/geoms/mol2/12gi12gi12gi-12gi.out
 46 49 0 0 0
SMALL
GASTEIGER

@<TRIPOS>ATOM
      1 C           1.3826    2.4034   -2.3614 C.ar    1  LIG1        0.1061
      2 C           2.1567    2.0677   -1.2996 C.ar    1  LIG1        0.0462
      3 C           2.0156    3.1335   -0.3351 C.ar    1  LIG1        0.0116
      4 C           1.1770    4.0248   -0.9278 C.ar    1  LIG1        0.1748
      5 O           0.7821    3.5826   -2.1483 O.2     1  LIG1       -0.4584
      6 H           1.1783    1.9061   -3.2936 H       1  LIG1        0.1041
      7 S           3.0501    0.5545   -1.1116 S.3     1  LIG1       -0.1393
      8 H           4.2765    1.0830   -1.1979 H       1  LIG1        0.1072
      9 C           2.6350    3.1912    1.0337 C.3     1  LIG1       -0.0350
     10 H           2.1286    3.9407    1.6422 H       1  LIG1        0.0279
     11 H           3.6929    3.4491    0.9651 H       1  LIG1        0.0279
     12 H           2.5415    2.2158    1.5115 H       1  LIG1        0.0279
     13 C           0.6622    5.3159   -0.4826 C.ar    1  LIG1        0.1843
     14 C           1.2737    6.3962    0.0819 C.ar    1  LIG1        0.0573
     15 C           0.2385    7.3643    0.3458 C.ar    1  LIG1        0.0123
     16 C          -0.9027    6.7852   -0.1162 C.ar    1  LIG1        0.1758
     17 O          -0.6581    5.5462   -0.6032 O.2     1  LIG1       -0.4472
     18 S           2.9932    6.5546    0.4518 S.3     1  LIG1       -0.1386
     19 H           3.2166    7.5902   -0.3683 H       1  LIG1        0.1072
     20 C           0.4074    8.6989    1.0176 C.3     1  LIG1       -0.0349
     21 H          -0.5613    9.0742    1.3498 H       1  LIG1        0.0279
     22 H           0.8468    9.4238    0.3303 H       1  LIG1        0.0279
     23 H           1.0651    8.5887    1.8803 H       1  LIG1        0.0279
     24 C          -2.2806    7.2620   -0.1492 C.ar    1  LIG1        0.1843
     25 C          -2.8251    8.4555   -0.5199 C.ar    1  LIG1        0.0573
     26 C          -4.2424    8.3552   -0.2737 C.ar    1  LIG1        0.0123
     27 C          -4.4241    7.0911    0.1956 C.ar    1  LIG1        0.1758
     28 O          -3.2459    6.4322    0.2887 O.2     1  LIG1       -0.4472
     29 S          -1.9497    9.8554   -1.1478 S.3     1  LIG1       -0.1386
     30 H          -2.6681    9.9658   -2.2722 H       1  LIG1        0.1072
     31 C          -5.2658    9.4389   -0.4706 C.3     1  LIG1       -0.0349
     32 H          -6.1749    9.1950    0.0795 H       1  LIG1        0.0279
     33 H          -5.5167    9.5471   -1.5270 H       1  LIG1        0.0279
     34 H          -4.8657   10.3845   -0.1028 H       1  LIG1        0.0279
     35 C          -5.6263    6.3744    0.6093 C.ar    1  LIG1        0.1833
     36 C          -6.8551    6.2347    0.0373 C.ar    1  LIG1        0.0566
     37 C          -7.6410    5.4330    0.9464 C.ar    1  LIG1        0.0012
     38 C          -6.8036    5.1510    1.9729 C.ar    1  LIG1        0.0967
     39 O          -5.5936    5.7197    1.7863 O.2     1  LIG1       -0.4584
     40 H          -6.9280    4.5806    2.8771 H       1  LIG1        0.1032
     41 S          -7.3769    6.9043   -1.5132 S.3     1  LIG1       -0.1386
     42 H          -7.5365    5.7237   -2.1227 H       1  LIG1        0.1072
     43 C          -9.0715    5.0035    0.7609 C.3     1  LIG1       -0.0357
     44 H          -9.4163    4.4603    1.6401 H       1  LIG1        0.0279
     45 H          -9.1663    4.3539   -0.1107 H       1  LIG1        0.0279
     46 H          -9.7070    5.8761    0.6083 H       1  LIG1        0.0279
@<TRIPOS>BOND
     1     6     1    1
     2     1     5   ar
     3     1     2   ar
     4    30    29    1
     5     5     4   ar
     6    42    41    1
     7    33    31    1
     8    41    36    1
     9     2     7    1
    10     2     3   ar
    11     8     7    1
    12    29    25    1
    13     4    13    1
    14     4     3   ar
    15    17    13   ar
    16    17    16   ar
    17    25    26   ar
    18    25    24   ar
    19    13    14   ar
    20    31    26    1
    21    31    34    1
    22    31    32    1
    23    19    18    1
    24     3     9    1
    25    26    27   ar
    26    24    16    1
    27    24    28   ar
    28    16    15   ar
    29    45    43    1
    30    36    35   ar
    31    36    37   ar
    32    14    15   ar
    33    14    18    1
    34    27    28   ar
    35    27    35    1
    36    22    20    1
    37    15    20    1
    38    46    43    1
    39    35    39   ar
    40    43    37    1
    41    43    44    1
    42    37    38   ar
    43    11     9    1
    44    20    21    1
    45    20    23    1
    46     9    12    1
    47     9    10    1
    48    39    38   ar
    49    38    40    1
