@<TRIPOS>MOLECULE
mol_data/opt/m06hf/geoms/mol2/12gi12gi-12gi.out
 35 37 0 0 0
SMALL
GASTEIGER

@<TRIPOS>ATOM
      1 C           0.6096    1.9050   -1.2633 C.ar    1  LIG1        0.1061
      2 C           1.7097    1.8375   -0.4716 C.ar    1  LIG1        0.0462
      3 C           1.8833    3.1514    0.1026 C.ar    1  LIG1        0.0116
      4 C           0.8717    3.8929   -0.4230 C.ar    1  LIG1        0.1748
      5 O           0.0934    3.1414   -1.2420 O.2     1  LIG1       -0.4584
      6 H           0.1078    1.1694   -1.8675 H       1  LIG1        0.1041
      7 S           2.6424    0.3762   -0.1288 S.3     1  LIG1       -0.1393
      8 H           3.7261    0.7043   -0.8438 H       1  LIG1        0.1072
      9 C           2.9275    3.5604    1.1044 C.3     1  LIG1       -0.0350
     10 H           2.6255    4.4819    1.6027 H       1  LIG1        0.0279
     11 H           3.8873    3.7252    0.6132 H       1  LIG1        0.0279
     12 H           3.0427    2.7698    1.8462 H       1  LIG1        0.0279
     13 C           0.4933    5.2896   -0.2446 C.ar    1  LIG1        0.1843
     14 C           1.2207    6.4434   -0.2108 C.ar    1  LIG1        0.0573
     15 C           0.2883    7.5108    0.0550 C.ar    1  LIG1        0.0123
     16 C          -0.9273    6.9027    0.1171 C.ar    1  LIG1        0.1758
     17 O          -0.8092    5.5637   -0.0446 O.2     1  LIG1       -0.4472
     18 S           2.9665    6.6004   -0.4375 S.3     1  LIG1       -0.1386
     19 H           2.8882    7.3398   -1.5516 H       1  LIG1        0.1072
     20 C           0.6251    8.9625    0.2565 C.3     1  LIG1       -0.0349
     21 H          -0.1944    9.4662    0.7699 H       1  LIG1        0.0279
     22 H           0.7962    9.4578   -0.7003 H       1  LIG1        0.0279
     23 H           1.5297    9.0406    0.8604 H       1  LIG1        0.0279
     24 C          -2.2709    7.4289    0.3278 C.ar    1  LIG1        0.1833
     25 C          -2.9195    8.5226   -0.1628 C.ar    1  LIG1        0.0566
     26 C          -4.2296    8.5290    0.4461 C.ar    1  LIG1        0.0012
     27 C          -4.2530    7.4255    1.2310 C.ar    1  LIG1        0.0967
     28 O          -3.0787    6.7632    1.1775 O.2     1  LIG1       -0.4584
     29 H          -5.0120    7.0024    1.8659 H       1  LIG1        0.1032
     30 S          -2.2703    9.7065   -1.3014 S.3     1  LIG1       -0.1386
     31 H          -3.2326    9.5586   -2.2196 H       1  LIG1        0.1072
     32 C          -5.3184    9.5443    0.2254 C.3     1  LIG1       -0.0357
     33 H          -6.1644    9.3353    0.8790 H       1  LIG1        0.0279
     34 H          -5.6650    9.5188   -0.8090 H       1  LIG1        0.0279
     35 H          -4.9419   10.5453    0.4375 H       1  LIG1        0.0279
@<TRIPOS>BOND
     1    31    30    1
     2     6     1    1
     3    19    18    1
     4    30    25    1
     5     1     5   ar
     6     1     2   ar
     7     5     4   ar
     8     8     7    1
     9    34    32    1
    10    22    20    1
    11     2     7    1
    12     2     3   ar
    13    18    14    1
    14     4    13    1
    15     4     3   ar
    16    13    14   ar
    17    13    17   ar
    18    14    15   ar
    19    25    24   ar
    20    25    26   ar
    21    17    16   ar
    22    15    16   ar
    23    15    20    1
    24     3     9    1
    25    16    24    1
    26    32    35    1
    27    32    26    1
    28    32    33    1
    29    20    21    1
    30    20    23    1
    31    24    28   ar
    32    26    27   ar
    33    11     9    1
    34     9    10    1
    35     9    12    1
    36    28    27   ar
    37    27    29    1
