@<TRIPOS>MOLECULE
mol_data/opt/m06hf/geoms/mol2/12gi12gi12gi12gi-.out
 46 49 0 0 0
SMALL
GASTEIGER

@<TRIPOS>ATOM
      1 C           1.3071    2.3644   -2.3047 C.ar    1  LIG1        0.1061
      2 C           2.1077    2.0447   -1.2575 C.ar    1  LIG1        0.0462
      3 C           2.0065    3.1348   -0.3153 C.ar    1  LIG1        0.0116
      4 C           1.1616    4.0220   -0.9057 C.ar    1  LIG1        0.1748
      5 O           0.7287    3.5563   -2.1045 O.2     1  LIG1       -0.4584
      6 H           1.0689    1.8463   -3.2175 H       1  LIG1        0.1041
      7 S           2.9757    0.5190   -1.0554 S.3     1  LIG1       -0.1393
      8 H           4.2089    1.0001   -1.2616 H       1  LIG1        0.1072
      9 C           2.6630    3.2168    1.0349 C.3     1  LIG1       -0.0350
     10 H           2.1704    3.9741    1.6453 H       1  LIG1        0.0279
     11 H           3.7175    3.4775    0.9329 H       1  LIG1        0.0279
     12 H           2.5870    2.2487    1.5302 H       1  LIG1        0.0279
     13 C           0.6605    5.3228   -0.4744 C.ar    1  LIG1        0.1843
     14 C           1.2804    6.4094    0.0688 C.ar    1  LIG1        0.0573
     15 C           0.2498    7.3830    0.3318 C.ar    1  LIG1        0.0123
     16 C          -0.8975    6.8005   -0.1105 C.ar    1  LIG1        0.1758
     17 O          -0.6606    5.5548   -0.5835 O.2     1  LIG1       -0.4472
     18 S           3.0040    6.5688    0.4178 S.3     1  LIG1       -0.1386
     19 H           3.2177    7.6019   -0.4079 H       1  LIG1        0.1072
     20 C           0.4284    8.7248    0.9863 C.3     1  LIG1       -0.0349
     21 H          -0.5358    9.1054    1.3253 H       1  LIG1        0.0279
     22 H           0.8611    9.4414    0.2862 H       1  LIG1        0.0279
     23 H           1.0956    8.6231    1.8429 H       1  LIG1        0.0279
     24 C          -2.2757    7.2766   -0.1369 C.ar    1  LIG1        0.1843
     25 C          -2.8256    8.4664   -0.5121 C.ar    1  LIG1        0.0573
     26 C          -4.2416    8.3626   -0.2601 C.ar    1  LIG1        0.0123
     27 C          -4.4175    7.1004    0.2165 C.ar    1  LIG1        0.1758
     28 O          -3.2367    6.4461    0.3090 O.2     1  LIG1       -0.4472
     29 S          -1.9577    9.8652   -1.1528 S.3     1  LIG1       -0.1386
     30 H          -2.6807    9.9656   -2.2752 H       1  LIG1        0.1072
     31 C          -5.2697    9.4413   -0.4599 C.3     1  LIG1       -0.0349
     32 H          -6.1757    9.1978    0.0953 H       1  LIG1        0.0279
     33 H          -5.5250    9.5419   -1.5160 H       1  LIG1        0.0279
     34 H          -4.8716   10.3907   -0.0998 H       1  LIG1        0.0279
     35 C          -5.6154    6.3796    0.6355 C.ar    1  LIG1        0.1833
     36 C          -6.8434    6.2288    0.0650 C.ar    1  LIG1        0.0566
     37 C          -7.6227    5.4243    0.9773 C.ar    1  LIG1        0.0012
     38 C          -6.7824    5.1519    2.0041 C.ar    1  LIG1        0.0967
     39 O          -5.5770    5.7293    1.8149 O.2     1  LIG1       -0.4584
     40 H          -6.9019    4.5836    2.9103 H       1  LIG1        0.1032
     41 S          -7.3714    6.8896   -1.4872 S.3     1  LIG1       -0.1386
     42 H          -7.5334    5.7052   -2.0889 H       1  LIG1        0.1072
     43 C          -9.0498    4.9828    0.7942 C.3     1  LIG1       -0.0357
     44 H          -9.3899    4.4399    1.6754 H       1  LIG1        0.0279
     45 H          -9.1399    4.3294   -0.0750 H       1  LIG1        0.0279
     46 H          -9.6924    5.8498    0.6389 H       1  LIG1        0.0279
@<TRIPOS>BOND
     1     6     1    1
     2     1     5   ar
     3     1     2   ar
     4    30    29    1
     5     5     4   ar
     6    42    41    1
     7    33    31    1
     8    41    36    1
     9     8     7    1
    10     2     7    1
    11     2     3   ar
    12    29    25    1
    13     4    13    1
    14     4     3   ar
    15    17    13   ar
    16    17    16   ar
    17    25    26   ar
    18    25    24   ar
    19    13    14   ar
    20    31    26    1
    21    31    34    1
    22    31    32    1
    23    19    18    1
    24     3     9    1
    25    26    27   ar
    26    24    16    1
    27    24    28   ar
    28    16    15   ar
    29    45    43    1
    30    36    35   ar
    31    36    37   ar
    32    14    15   ar
    33    14    18    1
    34    27    28   ar
    35    27    35    1
    36    22    20    1
    37    15    20    1
    38    35    39   ar
    39    46    43    1
    40    43    37    1
    41    43    44    1
    42    11     9    1
    43    37    38   ar
    44    20    21    1
    45    20    23    1
    46     9    12    1
    47     9    10    1
    48    39    38   ar
    49    38    40    1
