@<TRIPOS>MOLECULE
mol_data/opt/m06hf/geoms/mol2/12gi12gi-12gi-.out
 35 37 0 0 0
SMALL
GASTEIGER

@<TRIPOS>ATOM
      1 C           0.6104    1.9092   -1.2751 C.ar    1  LIG1        0.1061
      2 C           1.7100    1.8390   -0.4829 C.ar    1  LIG1        0.0462
      3 C           1.8832    3.1509    0.0960 C.ar    1  LIG1        0.0116
      4 C           0.8718    3.8942   -0.4275 C.ar    1  LIG1        0.1748
      5 O           0.0939    3.1455   -1.2497 O.2     1  LIG1       -0.4584
      6 H           0.1091    1.1757   -1.8822 H       1  LIG1        0.1041
      7 S           2.6428    0.3767   -0.1449 S.3     1  LIG1       -0.1393
      8 H           3.7269    0.7078   -0.8580 H       1  LIG1        0.1072
      9 C           2.9268    3.5566    1.0996 C.3     1  LIG1       -0.0350
     10 H           2.6249    4.4770    1.6002 H       1  LIG1        0.0279
     11 H           3.8871    3.7223    0.6096 H       1  LIG1        0.0279
     12 H           3.0411    2.7640    1.8394 H       1  LIG1        0.0279
     13 C           0.4932    5.2902   -0.2446 C.ar    1  LIG1        0.1843
     14 C           1.2207    6.4439   -0.2065 C.ar    1  LIG1        0.0573
     15 C           0.2882    7.5104    0.0625 C.ar    1  LIG1        0.0123
     16 C          -0.9274    6.9022    0.1217 C.ar    1  LIG1        0.1758
     17 O          -0.8094    5.5638   -0.0445 O.2     1  LIG1       -0.4472
     18 S           2.9668    6.6014   -0.4312 S.3     1  LIG1       -0.1386
     19 H           2.8894    7.3450   -1.5427 H       1  LIG1        0.1072
     20 C           0.6251    8.9614    0.2694 C.3     1  LIG1       -0.0349
     21 H          -0.1948    9.4633    0.7841 H       1  LIG1        0.0279
     22 H           0.7968    9.4600   -0.6856 H       1  LIG1        0.0279
     23 H           1.5293    9.0373    0.8741 H       1  LIG1        0.0279
     24 C          -2.2712    7.4278    0.3332 C.ar    1  LIG1        0.1833
     25 C          -2.9195    8.5232   -0.1542 C.ar    1  LIG1        0.0566
     26 C          -4.2300    8.5276    0.4540 C.ar    1  LIG1        0.0012
     27 C          -4.2538    7.4214    1.2351 C.ar    1  LIG1        0.0967
     28 O          -3.0796    6.7592    1.1800 O.2     1  LIG1       -0.4584
     29 H          -5.0133    6.9963    1.8682 H       1  LIG1        0.1032
     30 S          -2.2695    9.7109   -1.2883 S.3     1  LIG1       -0.1386
     31 H          -3.2313    9.5665   -2.2076 H       1  LIG1        0.1072
     32 C          -5.3186    9.5437    0.2361 C.3     1  LIG1       -0.0357
     33 H          -6.1646    9.3330    0.8892 H       1  LIG1        0.0279
     34 H          -5.6651    9.5211   -0.7984 H       1  LIG1        0.0279
     35 H          -4.9419   10.5441    0.4510 H       1  LIG1        0.0279
@<TRIPOS>BOND
     1    31    30    1
     2     6     1    1
     3    19    18    1
     4    30    25    1
     5     1     5   ar
     6     1     2   ar
     7     5     4   ar
     8     8     7    1
     9    34    32    1
    10    22    20    1
    11     2     7    1
    12     2     3   ar
    13    18    14    1
    14     4    13    1
    15     4     3   ar
    16    13    14   ar
    17    13    17   ar
    18    14    15   ar
    19    25    24   ar
    20    25    26   ar
    21    17    16   ar
    22    15    16   ar
    23    15    20    1
    24     3     9    1
    25    16    24    1
    26    32    35    1
    27    32    26    1
    28    32    33    1
    29    20    21    1
    30    20    23    1
    31    24    28   ar
    32    26    27   ar
    33    11     9    1
    34     9    10    1
    35     9    12    1
    36    28    27   ar
    37    27    29    1
