@<TRIPOS>MOLECULE
mol_data/opt/m06hf/geoms/mol2/12gi12gi12gi12gi.out
 46 49 0 0 0
SMALL
GASTEIGER

@<TRIPOS>ATOM
      1 C           1.3091    2.3743   -2.3165 C.ar    1  LIG1        0.1061
      2 C           2.1087    2.0505   -1.2699 C.ar    1  LIG1        0.0462
      3 C           2.0067    3.1370   -0.3235 C.ar    1  LIG1        0.0116
      4 C           1.1624    4.0264   -0.9113 C.ar    1  LIG1        0.1748
      5 O           0.7305    3.5654   -2.1122 O.2     1  LIG1       -0.4584
      6 H           1.0718    1.8597   -3.2315 H       1  LIG1        0.1041
      7 S           2.9768    0.5241   -1.0730 S.3     1  LIG1       -0.1393
      8 H           4.2101    1.0063   -1.2759 H       1  LIG1        0.1072
      9 C           2.6622    3.2138    1.0275 C.3     1  LIG1       -0.0350
     10 H           2.1702    3.9700    1.6398 H       1  LIG1        0.0279
     11 H           3.7172    3.4731    0.9272 H       1  LIG1        0.0279
     12 H           2.5841    2.2444    1.5198 H       1  LIG1        0.0279
     13 C           0.6608    5.3256   -0.4753 C.ar    1  LIG1        0.1843
     14 C           1.2804    6.4105    0.0715 C.ar    1  LIG1        0.0573
     15 C           0.2495    7.3828    0.3379 C.ar    1  LIG1        0.0123
     16 C          -0.8977    6.8014   -0.1062 C.ar    1  LIG1        0.1758
     17 O          -0.6604    5.5574   -0.5835 O.2     1  LIG1       -0.4472
     18 S           3.0040    6.5691    0.4211 S.3     1  LIG1       -0.1386
     19 H           3.2175    7.6049   -0.4013 H       1  LIG1        0.1072
     20 C           0.4277    8.7224    0.9970 C.3     1  LIG1       -0.0349
     21 H          -0.5367    9.1017    1.3371 H       1  LIG1        0.0279
     22 H           0.8604    9.4415    0.2994 H       1  LIG1        0.0279
     23 H           1.0947    8.6180    1.8534 H       1  LIG1        0.0279
     24 C          -2.2761    7.2771   -0.1309 C.ar    1  LIG1        0.1843
     25 C          -2.8264    8.4679   -0.5020 C.ar    1  LIG1        0.0573
     26 C          -4.2424    8.3627   -0.2503 C.ar    1  LIG1        0.0123
     27 C          -4.4177    7.0989    0.2222 C.ar    1  LIG1        0.1758
     28 O          -3.2366    6.4447    0.3124 O.2     1  LIG1       -0.4472
     29 S          -1.9590    9.8692   -1.1380 S.3     1  LIG1       -0.1386
     30 H          -2.6823    9.9731   -2.2600 H       1  LIG1        0.1072
     31 C          -5.2709    9.4417   -0.4463 C.3     1  LIG1       -0.0349
     32 H          -6.1768    9.1958    0.1080 H       1  LIG1        0.0279
     33 H          -5.5262    9.5459   -1.5021 H       1  LIG1        0.0279
     34 H          -4.8733   10.3899   -0.0828 H       1  LIG1        0.0279
     35 C          -5.6152    6.3762    0.6391 C.ar    1  LIG1        0.1833
     36 C          -6.8433    6.2268    0.0684 C.ar    1  LIG1        0.0566
     37 C          -7.6219    5.4189    0.9783 C.ar    1  LIG1        0.0012
     38 C          -6.7813    5.1435    2.0040 C.ar    1  LIG1        0.0967
     39 O          -5.5762    5.7221    1.8163 O.2     1  LIG1       -0.4584
     40 H          -6.9003    4.5722    2.9083 H       1  LIG1        0.1032
     41 S          -7.3721    6.8923   -1.4815 S.3     1  LIG1       -0.1386
     42 H          -7.5337    5.7099   -2.0871 H       1  LIG1        0.1072
     43 C          -9.0489    4.9773    0.7939 C.3     1  LIG1       -0.0357
     44 H          -9.3886    4.4315    1.6735 H       1  LIG1        0.0279
     45 H          -9.1388    4.3265   -0.0773 H       1  LIG1        0.0279
     46 H          -9.6919    5.8444    0.6414 H       1  LIG1        0.0279
@<TRIPOS>BOND
     1     6     1    1
     2     1     5   ar
     3     1     2   ar
     4    30    29    1
     5     5     4   ar
     6    42    41    1
     7    33    31    1
     8    41    36    1
     9     8     7    1
    10     2     7    1
    11     2     3   ar
    12    29    25    1
    13     4    13    1
    14     4     3   ar
    15    17    13   ar
    16    17    16   ar
    17    25    26   ar
    18    25    24   ar
    19    13    14   ar
    20    31    26    1
    21    31    34    1
    22    31    32    1
    23    19    18    1
    24     3     9    1
    25    26    27   ar
    26    24    16    1
    27    24    28   ar
    28    16    15   ar
    29    45    43    1
    30    36    35   ar
    31    36    37   ar
    32    14    15   ar
    33    14    18    1
    34    27    28   ar
    35    27    35    1
    36    22    20    1
    37    15    20    1
    38    35    39   ar
    39    46    43    1
    40    43    37    1
    41    43    44    1
    42    11     9    1
    43    37    38   ar
    44    20    21    1
    45    20    23    1
    46     9    12    1
    47     9    10    1
    48    39    38   ar
    49    38    40    1
