@<TRIPOS>MOLECULE
mol_data/opt/m06hf/geoms/mol2/12gi12gi-12gi12gi.out
 46 49 0 0 0
SMALL
GASTEIGER

@<TRIPOS>ATOM
      1 C           1.3469    2.3855   -2.3418 C.ar    1  LIG1        0.1061
      2 C           2.1366    2.0573   -1.2891 C.ar    1  LIG1        0.0462
      3 C           2.0098    3.1301   -0.3304 C.ar    1  LIG1        0.0116
      4 C           1.1627    4.0173   -0.9170 C.ar    1  LIG1        0.1748
      5 O           0.7498    3.5664   -2.1284 O.2     1  LIG1       -0.4584
      6 H           1.1287    1.8815   -3.2672 H       1  LIG1        0.1041
      7 S           3.0325    0.5453   -1.1033 S.3     1  LIG1       -0.1393
      8 H           4.2576    1.0730   -1.2117 H       1  LIG1        0.1072
      9 C           2.6493    3.1975    1.0287 C.3     1  LIG1       -0.0350
     10 H           2.1524    3.9519    1.6390 H       1  LIG1        0.0279
     11 H           3.7063    3.4539    0.9427 H       1  LIG1        0.0279
     12 H           2.5622    2.2257    1.5150 H       1  LIG1        0.0279
     13 C           0.6548    5.3117   -0.4738 C.ar    1  LIG1        0.1843
     14 C           1.2749    6.3961    0.0736 C.ar    1  LIG1        0.0573
     15 C           0.2439    7.3664    0.3456 C.ar    1  LIG1        0.0123
     16 C          -0.9041    6.7843   -0.0950 C.ar    1  LIG1        0.1758
     17 O          -0.6671    5.5416   -0.5764 O.2     1  LIG1       -0.4472
     18 S           2.9998    6.5567    0.4167 S.3     1  LIG1       -0.1386
     19 H           3.2111    7.5859   -0.4144 H       1  LIG1        0.1072
     20 C           0.4230    8.7059    1.0048 C.3     1  LIG1       -0.0349
     21 H          -0.5405    9.0840    1.3485 H       1  LIG1        0.0279
     22 H           0.8525    9.4255    0.3057 H       1  LIG1        0.0279
     23 H           1.0935    8.6020    1.8585 H       1  LIG1        0.0279
     24 C          -2.2823    7.2612   -0.1110 C.ar    1  LIG1        0.1843
     25 C          -2.8321    8.4520   -0.4826 C.ar    1  LIG1        0.0573
     26 C          -4.2455    8.3540   -0.2146 C.ar    1  LIG1        0.0123
     27 C          -4.4205    7.0935    0.2670 C.ar    1  LIG1        0.1758
     28 O          -3.2411    6.4350    0.3475 O.2     1  LIG1       -0.4472
     29 S          -1.9659    9.8469   -1.1339 S.3     1  LIG1       -0.1386
     30 H          -2.7010    9.9491   -2.2483 H       1  LIG1        0.1072
     31 C          -5.2716    9.4364   -0.4043 C.3     1  LIG1       -0.0349
     32 H          -6.1723    9.1972    0.1614 H       1  LIG1        0.0279
     33 H          -5.5385    9.5365   -1.4576 H       1  LIG1        0.0279
     34 H          -4.8657   10.3847   -0.0501 H       1  LIG1        0.0279
     35 C          -5.6165    6.3803    0.7040 C.ar    1  LIG1        0.1833
     36 C          -6.8537    6.2366    0.1515 C.ar    1  LIG1        0.0566
     37 C          -7.6260    5.4420    1.0783 C.ar    1  LIG1        0.0012
     38 C          -6.7732    5.1672    2.0941 C.ar    1  LIG1        0.0967
     39 O          -5.5661    5.7343    1.8852 O.2     1  LIG1       -0.4584
     40 H          -6.8841    4.6036    3.0043 H       1  LIG1        0.1032
     41 S          -7.3988    6.8949   -1.3958 S.3     1  LIG1       -0.1386
     42 H          -7.5676    5.7098   -1.9940 H       1  LIG1        0.1072
     43 C          -9.0591    5.0115    0.9176 C.3     1  LIG1       -0.0357
     44 H          -9.3909    4.4752    1.8060 H       1  LIG1        0.0279
     45 H          -9.1671    4.3552    0.0526 H       1  LIG1        0.0279
     46 H          -9.6967    5.8831    0.7678 H       1  LIG1        0.0279
@<TRIPOS>BOND
     1     6     1    1
     2     1     5   ar
     3     1     2   ar
     4    30    29    1
     5     5     4   ar
     6    42    41    1
     7    33    31    1
     8    41    36    1
     9     2     7    1
    10     2     3   ar
    11     8     7    1
    12    29    25    1
    13     4    13    1
    14     4     3   ar
    15    17    13   ar
    16    17    16   ar
    17    25    26   ar
    18    25    24   ar
    19    13    14   ar
    20    19    18    1
    21    31    26    1
    22    31    34    1
    23    31    32    1
    24     3     9    1
    25    26    27   ar
    26    24    16    1
    27    24    28   ar
    28    16    15   ar
    29    45    43    1
    30    14    15   ar
    31    14    18    1
    32    36    35   ar
    33    36    37   ar
    34    27    28   ar
    35    27    35    1
    36    22    20    1
    37    15    20    1
    38    35    39   ar
    39    46    43    1
    40    43    37    1
    41    43    44    1
    42    11     9    1
    43    20    21    1
    44    20    23    1
    45     9    12    1
    46     9    10    1
    47    37    38   ar
    48    39    38   ar
    49    38    40    1
