@<TRIPOS>MOLECULE
mol_data/opt/m06hf/geoms/mol2/12gl12gl-12gl12gl-.out
 50 53 0 0 0
SMALL
GASTEIGER

@<TRIPOS>ATOM
      1 C           1.0174    1.4216    1.5089 C.ar    1  LIG1        0.1096
      2 C           2.2337    1.4996    0.9113 C.ar    1  LIG1        0.0852
      3 C           2.3855    2.8817    0.5374 C.ar    1  LIG1        0.1819
      4 C           1.2538    3.5161    0.9483 C.ar    1  LIG1        0.2133
      5 O           0.4199    2.6265    1.5320 O.2     1  LIG1       -0.4549
      6 H           0.4767    0.5986    1.9418 H       1  LIG1        0.1042
      7 S           3.3478    0.1728    0.5786 S.3     1  LIG1       -0.1361
      8 H           4.3604    0.6442    1.3148 H       1  LIG1        0.1073
      9 O           3.4444    3.4447   -0.0932 O.3     1  LIG1       -0.4902
     10 C           3.3627    3.3782   -1.5216 C.3     1  LIG1        0.0790
     11 H           4.2478    3.8875   -1.8933 H       1  LIG1        0.0660
     12 H           3.3548    2.3368   -1.8454 H       1  LIG1        0.0660
     13 H           2.4610    3.8899   -1.8622 H       1  LIG1        0.0660
     14 C           0.8604    4.9070    0.8469 C.ar    1  LIG1        0.1912
     15 C           1.5977    6.0496    0.7413 C.ar    1  LIG1        0.0964
     16 C           0.6293    7.1040    0.6173 C.ar    1  LIG1        0.1827
     17 C          -0.6008    6.5229    0.6799 C.ar    1  LIG1        0.2144
     18 O          -0.4635    5.1871    0.8050 O.2     1  LIG1       -0.4435
     19 S           3.3439    6.2783    0.7706 S.3     1  LIG1       -0.1353
     20 H           3.2239    7.5625    1.1361 H       1  LIG1        0.1073
     21 O           0.9082    8.4245    0.4830 O.3     1  LIG1       -0.4902
     22 C           1.0219    8.8444   -0.8824 C.3     1  LIG1        0.0790
     23 H           1.2325    9.9101   -0.8509 H       1  LIG1        0.0660
     24 H           1.8347    8.3034   -1.3697 H       1  LIG1        0.0660
     25 H           0.0798    8.6616   -1.4014 H       1  LIG1        0.0660
     26 C          -1.9255    7.1061    0.6349 C.ar    1  LIG1        0.1912
     27 C          -2.3686    8.3752    0.8718 C.ar    1  LIG1        0.0964
     28 C          -3.7812    8.3266    0.6105 C.ar    1  LIG1        0.1827
     29 C          -4.0786    7.0443    0.2650 C.ar    1  LIG1        0.2143
     30 O          -2.9524    6.3037    0.2645 O.2     1  LIG1       -0.4435
     31 S          -1.5064    9.8106    1.4142 S.3     1  LIG1       -0.1353
     32 H          -2.6516   10.4428    1.7067 H       1  LIG1        0.1073
     33 O          -4.6347    9.3777    0.7076 O.3     1  LIG1       -0.4902
     34 C          -4.8838   10.0254   -0.5458 C.3     1  LIG1        0.0790
     35 H          -5.5748   10.8360   -0.3313 H       1  LIG1        0.0660
     36 H          -3.9489   10.4128   -0.9553 H       1  LIG1        0.0660
     37 H          -5.3367    9.3171   -1.2416 H       1  LIG1        0.0660
     38 C          -5.3478    6.4261   -0.0630 C.ar    1  LIG1        0.1902
     39 C          -6.6263    6.7623    0.2672 C.ar    1  LIG1        0.0956
     40 C          -7.4504    5.7764   -0.3889 C.ar    1  LIG1        0.1715
     41 C          -6.6116    4.9331   -1.0387 C.ar    1  LIG1        0.1354
     42 O          -5.3361    5.3292   -0.8547 O.2     1  LIG1       -0.4548
     43 H          -6.7787    4.0490   -1.6268 H       1  LIG1        0.1068
     44 S          -7.2219    8.0521    1.3091 S.3     1  LIG1       -0.1354
     45 H          -8.3893    7.4231    1.5115 H       1  LIG1        0.1073
     46 O          -8.8062    5.7219   -0.3121 O.3     1  LIG1       -0.4908
     47 C          -9.4546    6.5439   -1.2855 C.3     1  LIG1        0.0790
     48 H         -10.5215    6.4569   -1.0971 H       1  LIG1        0.0660
     49 H          -9.1353    7.5824   -1.1758 H       1  LIG1        0.0660
     50 H          -9.2161    6.1874   -2.2887 H       1  LIG1        0.0660
@<TRIPOS>BOND
     1    50    47    1
     2    11    10    1
     3    13    10    1
     4    12    10    1
     5    43    41    1
     6    10     9    1
     7    25    22    1
     8    24    22    1
     9    47    49    1
    10    47    48    1
    11    47    46    1
    12    37    34    1
    13    41    42   ar
    14    41    40   ar
    15    36    34    1
    16    22    23    1
    17    22    21    1
    18    42    38   ar
    19    34    35    1
    20    34    33    1
    21    40    46    1
    22    40    39   ar
    23     9     3    1
    24    38    29    1
    25    38    39   ar
    26    30    29   ar
    27    30    26   ar
    28    29    28   ar
    29    39    44    1
    30    21    16    1
    31     3     2   ar
    32     3     4   ar
    33     7     2    1
    34     7     8    1
    35    28    33    1
    36    28    27   ar
    37    16    17   ar
    38    16    15   ar
    39    26    17    1
    40    26    27   ar
    41    17    18   ar
    42    15    19    1
    43    15    14   ar
    44    19    20    1
    45    18    14   ar
    46    14     4    1
    47    27    31    1
    48     2     1   ar
    49     4     5   ar
    50    44    45    1
    51    31    32    1
    52     1     5   ar
    53     1     6    1
