@<TRIPOS>MOLECULE
mol_data/opt/m06hf/geoms/mol2/12gl12gl-12gl12gl.out
 50 53 0 0 0
SMALL
GASTEIGER

@<TRIPOS>ATOM
      1 C           1.0045    1.3854    1.4172 C.ar    1  LIG1        0.1096
      2 C           2.2215    1.4723    0.8224 C.ar    1  LIG1        0.0852
      3 C           2.3771    2.8613    0.4767 C.ar    1  LIG1        0.1819
      4 C           1.2468    3.4902    0.8995 C.ar    1  LIG1        0.2133
      5 O           0.4100    2.5910    1.4643 O.2     1  LIG1       -0.4549
      6 H           0.4613    0.5551    1.8328 H       1  LIG1        0.1042
      7 S           3.3325    0.1497    0.4636 S.3     1  LIG1       -0.1361
      8 H           4.3459    0.6041    1.2093 H       1  LIG1        0.1073
      9 O           3.4381    3.4343   -0.1414 O.3     1  LIG1       -0.4902
     10 C           3.3578    3.3966   -1.5709 C.3     1  LIG1        0.0790
     11 H           4.2446    3.9110   -1.9315 H       1  LIG1        0.0660
     12 H           3.3476    2.3618   -1.9155 H       1  LIG1        0.0660
     13 H           2.4577    3.9173   -1.9022 H       1  LIG1        0.0660
     14 C           0.8569    4.8838    0.8259 C.ar    1  LIG1        0.1912
     15 C           1.5971    6.0265    0.7439 C.ar    1  LIG1        0.0964
     16 C           0.6313    7.0856    0.6403 C.ar    1  LIG1        0.1827
     17 C          -0.6002    6.5064    0.6903 C.ar    1  LIG1        0.2144
     18 O          -0.4663    5.1680    0.7887 O.2     1  LIG1       -0.4435
     19 S           3.3438    6.2503    0.7791 S.3     1  LIG1       -0.1353
     20 H           3.2266    7.5270    1.1707 H       1  LIG1        0.1073
     21 O           0.9136    8.4079    0.5329 O.3     1  LIG1       -0.4902
     22 C           1.0294    8.8548   -0.8238 C.3     1  LIG1        0.0790
     23 H           1.2431    9.9190   -0.7707 H       1  LIG1        0.0660
     24 H           1.8410    8.3213   -1.3213 H       1  LIG1        0.0660
     25 H           0.0872    8.6852   -1.3469 H       1  LIG1        0.0660
     26 C          -1.9235    7.0935    0.6558 C.ar    1  LIG1        0.1912
     27 C          -2.3638    8.3586    0.9177 C.ar    1  LIG1        0.0964
     28 C          -3.7764    8.3185    0.6547 C.ar    1  LIG1        0.1827
     29 C          -4.0765    7.0440    0.2836 C.ar    1  LIG1        0.2143
     30 O          -2.9520    6.3009    0.2689 O.2     1  LIG1       -0.4435
     31 S          -1.4987    9.7808    1.4895 S.3     1  LIG1       -0.1353
     32 H          -2.6428   10.4095    1.7940 H       1  LIG1        0.1073
     33 O          -4.6275    9.3694    0.7723 O.3     1  LIG1       -0.4902
     34 C          -4.8744   10.0427   -0.4679 C.3     1  LIG1        0.0790
     35 H          -5.5639   10.8502   -0.2375 H       1  LIG1        0.0660
     36 H          -3.9385   10.4364   -0.8689 H       1  LIG1        0.0660
     37 H          -5.3283    9.3495   -1.1781 H       1  LIG1        0.0660
     38 C          -5.3469    6.4352   -0.0571 C.ar    1  LIG1        0.1902
     39 C          -6.6249    6.7675    0.2793 C.ar    1  LIG1        0.0956
     40 C          -7.4508    5.7967   -0.3965 C.ar    1  LIG1        0.1715
     41 C          -6.6137    4.9646   -1.0627 C.ar    1  LIG1        0.1354
     42 O          -5.3374    5.3542   -0.8705 O.2     1  LIG1       -0.4548
     43 H          -6.7825    4.0928   -1.6683 H       1  LIG1        0.1068
     44 S          -7.2180    8.0378    1.3464 S.3     1  LIG1       -0.1354
     45 H          -8.3871    7.4077    1.5356 H       1  LIG1        0.1073
     46 O          -8.8068    5.7437   -0.3213 O.3     1  LIG1       -0.4908
     47 C          -9.4530    6.5863   -1.2785 C.3     1  LIG1        0.0790
     48 H         -10.5202    6.4977   -1.0924 H       1  LIG1        0.0660
     49 H          -9.1316    7.6217   -1.1480 H       1  LIG1        0.0660
     50 H          -9.2146    6.2494   -2.2885 H       1  LIG1        0.0660
@<TRIPOS>BOND
     1    50    47    1
     2    11    10    1
     3    12    10    1
     4    13    10    1
     5    43    41    1
     6    10     9    1
     7    25    22    1
     8    24    22    1
     9    47    49    1
    10    47    48    1
    11    47    46    1
    12    37    34    1
    13    41    42   ar
    14    41    40   ar
    15    42    38   ar
    16    36    34    1
    17    22    23    1
    18    22    21    1
    19    34    35    1
    20    34    33    1
    21    40    46    1
    22    40    39   ar
    23     9     3    1
    24    38    39   ar
    25    38    29    1
    26    30    29   ar
    27    30    26   ar
    28    39    44    1
    29    29    28   ar
    30     7     2    1
    31     7     8    1
    32     3     2   ar
    33     3     4   ar
    34    21    16    1
    35    16    17   ar
    36    16    15   ar
    37    28    33    1
    38    28    27   ar
    39    26    17    1
    40    26    27   ar
    41    17    18   ar
    42    15    19    1
    43    15    14   ar
    44    19    20    1
    45    18    14   ar
    46     2     1   ar
    47    14     4    1
    48     4     5   ar
    49    27    31    1
    50    44    45    1
    51     1     5   ar
    52     1     6    1
    53    31    32    1
