@<TRIPOS>MOLECULE
mol_data/opt/m06hf/geoms/mol2/12gl12gl-12gl-12gl.out
 50 53 0 0 0
SMALL
GASTEIGER

@<TRIPOS>ATOM
      1 C           0.8620    1.3907    0.9668 C.ar    1  LIG1        0.1096
      2 C           2.0385    1.4330    0.2887 C.ar    1  LIG1        0.0852
      3 C           2.2309    2.8252   -0.0498 C.ar    1  LIG1        0.1819
      4 C           1.1653    3.4909    0.4768 C.ar    1  LIG1        0.2133
      5 O           0.3323    2.6138    1.0870 O.2     1  LIG1       -0.4549
      6 H           0.3104    0.5701    1.3913 H       1  LIG1        0.1042
      7 S           2.9816    0.0208   -0.2036 S.3     1  LIG1       -0.1361
      8 H           3.8605    0.0525    0.8076 H       1  LIG1        0.1073
      9 O           3.1989    3.3911   -0.8044 O.3     1  LIG1       -0.4902
     10 C           4.5373    3.2073   -0.3356 C.3     1  LIG1        0.0790
     11 H           5.1573    3.8432   -0.9622 H       1  LIG1        0.0660
     12 H           4.6100    3.5245    0.7056 H       1  LIG1        0.0660
     13 H           4.8366    2.1662   -0.4484 H       1  LIG1        0.0660
     14 C           0.7823    4.8895    0.4415 C.ar    1  LIG1        0.1912
     15 C           1.5093    6.0373    0.3341 C.ar    1  LIG1        0.0964
     16 C           0.5397    7.0963    0.3143 C.ar    1  LIG1        0.1827
     17 C          -0.6839    6.5111    0.4323 C.ar    1  LIG1        0.2144
     18 O          -0.5399    5.1708    0.4949 O.2     1  LIG1       -0.4435
     19 S           3.2529    6.2491    0.2388 S.3     1  LIG1       -0.1353
     20 H           3.2372    7.3941    0.9334 H       1  LIG1        0.1073
     21 O           0.8089    8.4214    0.2157 O.3     1  LIG1       -0.4902
     22 C           0.8763    8.8861   -1.1388 C.3     1  LIG1        0.0790
     23 H           1.1080    9.9462   -1.0799 H       1  LIG1        0.0660
     24 H           1.6589    8.3487   -1.6760 H       1  LIG1        0.0660
     25 H          -0.0892    8.7368   -1.6244 H       1  LIG1        0.0660
     26 C          -2.0061    7.0976    0.4995 C.ar    1  LIG1        0.1912
     27 C          -2.4239    8.3500    0.8448 C.ar    1  LIG1        0.0964
     28 C          -3.8485    8.3283    0.6564 C.ar    1  LIG1        0.1827
     29 C          -4.1760    7.0744    0.2410 C.ar    1  LIG1        0.2143
     30 O          -3.0585    6.3284    0.1309 O.2     1  LIG1       -0.4435
     31 S          -1.5159    9.7398    1.4300 S.3     1  LIG1       -0.1353
     32 H          -2.6268   10.3188    1.9107 H       1  LIG1        0.1073
     33 O          -4.6876    9.3729    0.8724 O.3     1  LIG1       -0.4902
     34 C          -4.9584   10.1382   -0.3083 C.3     1  LIG1        0.0790
     35 H          -5.6366   10.9299   -0.0020 H       1  LIG1        0.0660
     36 H          -4.0296   10.5557   -0.7011 H       1  LIG1        0.0660
     37 H          -5.4337    9.5020   -1.0566 H       1  LIG1        0.0660
     38 C          -5.4658    6.4884   -0.0646 C.ar    1  LIG1        0.1902
     39 C          -6.7257    6.8174    0.3372 C.ar    1  LIG1        0.0956
     40 C          -7.5878    5.8797   -0.3404 C.ar    1  LIG1        0.1715
     41 C          -6.7867    5.0673   -1.0718 C.ar    1  LIG1        0.1354
     42 O          -5.5002    5.4392   -0.9178 O.2     1  LIG1       -0.4548
     43 H          -6.9883    4.2206   -1.7025 H       1  LIG1        0.1068
     44 S          -7.2656    8.0511    1.4735 S.3     1  LIG1       -0.1354
     45 H          -8.4295    7.4197    1.6881 H       1  LIG1        0.1073
     46 O          -8.9401    5.8346   -0.2119 O.3     1  LIG1       -0.4908
     47 C          -9.6165    6.7173   -1.1105 C.3     1  LIG1        0.0790
     48 H         -10.6766    6.6257   -0.8889 H       1  LIG1        0.0660
     49 H          -9.2847    7.7454   -0.9506 H       1  LIG1        0.0660
     50 H          -9.4170    6.4203   -2.1411 H       1  LIG1        0.0660
@<TRIPOS>BOND
     1    50    47    1
     2    43    41    1
     3    24    22    1
     4    25    22    1
     5    22    23    1
     6    22    21    1
     7    47    49    1
     8    47    48    1
     9    47    46    1
    10    41    42   ar
    11    41    40   ar
    12    37    34    1
    13    11    10    1
    14    42    38   ar
    15     9    10    1
    16     9     3    1
    17    36    34    1
    18    13    10    1
    19    40    46    1
    20    40    39   ar
    21    10    12    1
    22    34    35    1
    23    34    33    1
    24     7     2    1
    25     7     8    1
    26    38    29    1
    27    38    39   ar
    28     3     2   ar
    29     3     4   ar
    30    30    29   ar
    31    30    26   ar
    32    21    16    1
    33    19    15    1
    34    19    20    1
    35    29    28   ar
    36     2     1   ar
    37    16    15   ar
    38    16    17   ar
    39    15    14   ar
    40    39    44    1
    41    17    18   ar
    42    17    26    1
    43    14     4    1
    44    14    18   ar
    45     4     5   ar
    46    26    27   ar
    47    28    27   ar
    48    28    33    1
    49    27    31    1
    50     1     5   ar
    51     1     6    1
    52    31    32    1
    53    44    45    1
