@<TRIPOS>MOLECULE
mol_data/opt/m06hf/geoms/mol2/12gl12gl12gl12gl.out
 50 53 0 0 0
SMALL
GASTEIGER

@<TRIPOS>ATOM
      1 C           0.8582    1.4091    1.0420 C.ar    1  LIG1        0.1096
      2 C           2.0361    1.4381    0.3658 C.ar    1  LIG1        0.0852
      3 C           2.2300    2.8237    0.0017 C.ar    1  LIG1        0.1819
      4 C           1.1635    3.4997    0.5133 C.ar    1  LIG1        0.2133
      5 O           0.3288    2.6344    1.1381 O.2     1  LIG1       -0.4549
      6 H           0.3053    0.5968    1.4805 H       1  LIG1        0.1042
      7 S           2.9796    0.0166   -0.0981 S.3     1  LIG1       -0.1361
      8 H           3.8565    0.0670    0.9142 H       1  LIG1        0.1073
      9 O           3.1999    3.3750   -0.7611 O.3     1  LIG1       -0.4902
     10 C           4.5372    3.1995   -0.2861 C.3     1  LIG1        0.0790
     11 H           5.1589    3.8232   -0.9233 H       1  LIG1        0.0660
     12 H           4.6078    3.5362    0.7491 H       1  LIG1        0.0660
     13 H           4.8362    2.1563   -0.3787 H       1  LIG1        0.0660
     14 C           0.7811    4.8975    0.4509 C.ar    1  LIG1        0.1912
     15 C           1.5087    6.0428    0.3236 C.ar    1  LIG1        0.0964
     16 C           0.5395    7.1016    0.2816 C.ar    1  LIG1        0.1827
     17 C          -0.6845    6.5191    0.4079 C.ar    1  LIG1        0.2144
     18 O          -0.5412    5.1801    0.4960 O.2     1  LIG1       -0.4435
     19 S           3.2526    6.2521    0.2281 S.3     1  LIG1       -0.1353
     20 H           3.2358    7.4101    0.9007 H       1  LIG1        0.1073
     21 O           0.8094    8.4245    0.1587 O.3     1  LIG1       -0.4902
     22 C           0.8801    8.8635   -1.2042 C.3     1  LIG1        0.0790
     23 H           1.1120    9.9245   -1.1648 H       1  LIG1        0.0660
     24 H           1.6638    8.3159   -1.7294 H       1  LIG1        0.0660
     25 H          -0.0843    8.7054   -1.6892 H       1  LIG1        0.0660
     26 C          -2.0066    7.1071    0.4610 C.ar    1  LIG1        0.1912
     27 C          -2.4248    8.3659    0.7817 C.ar    1  LIG1        0.0964
     28 C          -3.8490    8.3411    0.5905 C.ar    1  LIG1        0.1827
     29 C          -4.1760    7.0797    0.1981 C.ar    1  LIG1        0.2143
     30 O          -3.0584    6.3314    0.1046 O.2     1  LIG1       -0.4435
     31 S          -1.5176    9.7662    1.3426 S.3     1  LIG1       -0.1353
     32 H          -2.6293   10.3547    1.8097 H       1  LIG1        0.1073
     33 O          -4.6882    9.3899    0.7848 O.3     1  LIG1       -0.4902
     34 C          -4.9564   10.1325   -0.4108 C.3     1  LIG1        0.0790
     35 H          -5.6350   10.9302   -0.1211 H       1  LIG1        0.0660
     36 H          -4.0267   10.5422   -0.8096 H       1  LIG1        0.0660
     37 H          -5.4304    9.4823   -1.1478 H       1  LIG1        0.0660
     38 C          -5.4653    6.4885   -0.0994 C.ar    1  LIG1        0.1902
     39 C          -6.7260    6.8253    0.2933 C.ar    1  LIG1        0.0956
     40 C          -7.5868    5.8753   -0.3684 C.ar    1  LIG1        0.1715
     41 C          -6.7844    5.0490   -1.0827 C.ar    1  LIG1        0.1354
     42 O          -5.4981    5.4235   -0.9329 O.2     1  LIG1       -0.4548
     43 H          -6.9849    4.1907   -1.6979 H       1  LIG1        0.1068
     44 S          -7.2679    8.0803    1.4051 S.3     1  LIG1       -0.1354
     45 H          -8.4325    7.4534    1.6291 H       1  LIG1        0.1073
     46 O          -8.9395    5.8330   -0.2421 O.3     1  LIG1       -0.4908
     47 C          -9.6136    6.6990   -1.1584 C.3     1  LIG1        0.0790
     48 H         -10.6742    6.6118   -0.9374 H       1  LIG1        0.0660
     49 H          -9.2818    7.7297   -1.0170 H       1  LIG1        0.0660
     50 H          -9.4120    6.3827   -2.1829 H       1  LIG1        0.0660
@<TRIPOS>BOND
     1    50    47    1
     2    24    22    1
     3    43    41    1
     4    25    22    1
     5    22    23    1
     6    22    21    1
     7    47    49    1
     8    47    48    1
     9    47    46    1
    10    37    34    1
    11    41    42   ar
    12    41    40   ar
    13    42    38   ar
    14    11    10    1
    15    36    34    1
    16     9    10    1
    17     9     3    1
    18    34    35    1
    19    34    33    1
    20    13    10    1
    21    40    46    1
    22    40    39   ar
    23    10    12    1
    24    38    29    1
    25    38    39   ar
    26     7     2    1
    27     7     8    1
    28     3     2   ar
    29     3     4   ar
    30    30    29   ar
    31    30    26   ar
    32    21    16    1
    33    29    28   ar
    34    19    15    1
    35    19    20    1
    36    16    15   ar
    37    16    17   ar
    38    39    44    1
    39    15    14   ar
    40     2     1   ar
    41    17    26    1
    42    17    18   ar
    43    14    18   ar
    44    14     4    1
    45    26    27   ar
    46     4     5   ar
    47    28    27   ar
    48    28    33    1
    49    27    31    1
    50     1     5   ar
    51     1     6    1
    52    31    32    1
    53    44    45    1
