@<TRIPOS>MOLECULE
mol_data/opt/m06hf/geoms/mol2/12gl12gl12gl.out
 38 40 0 0 0
SMALL
GASTEIGER

@<TRIPOS>ATOM
      1 C           0.2844    1.4629    0.1755 C.ar    1  LIG1        0.1096
      2 C           1.5787    1.4821   -0.2364 C.ar    1  LIG1        0.0852
      3 C           1.9328    2.8819   -0.3074 C.ar    1  LIG1        0.1819
      4 C           0.8267    3.5712    0.0906 C.ar    1  LIG1        0.2133
      5 O          -0.1754    2.7042    0.3737 O.2     1  LIG1       -0.4549
      6 H          -0.3990    0.6500    0.3487 H       1  LIG1        0.1042
      7 S           2.5039    0.0639   -0.7439 S.3     1  LIG1       -0.1361
      8 H           3.1798   -0.1120    0.3997 H       1  LIG1        0.1073
      9 O           3.0821    3.4448   -0.7431 O.3     1  LIG1       -0.4902
     10 C           4.2613    3.0585   -0.0330 C.3     1  LIG1        0.0790
     11 H           5.0459    3.7272   -0.3775 H       1  LIG1        0.0660
     12 H           4.1062    3.1876    1.0393 H       1  LIG1        0.0660
     13 H           4.5194    2.0271   -0.2688 H       1  LIG1        0.0660
     14 C           0.5545    4.9919    0.2034 C.ar    1  LIG1        0.1912
     15 C           1.3638    6.0736    0.3820 C.ar    1  LIG1        0.0964
     16 C           0.4826    7.2084    0.3647 C.ar    1  LIG1        0.1827
     17 C          -0.7778    6.7255    0.1968 C.ar    1  LIG1        0.2143
     18 O          -0.7369    5.3816    0.0863 O.2     1  LIG1       -0.4435
     19 S           3.1103    6.1449    0.5823 S.3     1  LIG1       -0.1353
     20 H           3.0626    7.2502    1.3379 H       1  LIG1        0.1073
     21 O           0.8522    8.5058    0.5073 O.3     1  LIG1       -0.4902
     22 C           1.1408    9.1534   -0.7383 C.3     1  LIG1        0.0790
     23 H           1.4064   10.1770   -0.4880 H       1  LIG1        0.0660
     24 H           1.9712    8.6491   -1.2349 H       1  LIG1        0.0660
     25 H           0.2534    9.1368   -1.3725 H       1  LIG1        0.0660
     26 C          -2.0521    7.4124    0.1245 C.ar    1  LIG1        0.1902
     27 C          -2.4529    8.6321    0.5813 C.ar    1  LIG1        0.0956
     28 C          -3.8255    8.7544    0.1532 C.ar    1  LIG1        0.1715
     29 C          -4.1364    7.6119   -0.5059 C.ar    1  LIG1        0.1354
     30 O          -3.0618    6.7989   -0.5352 O.2     1  LIG1       -0.4548
     31 H          -5.0406    7.2594   -0.9678 H       1  LIG1        0.1068
     32 S          -1.5934    9.8286    1.5470 S.3     1  LIG1       -0.1354
     33 H          -2.7379   10.4339    1.8947 H       1  LIG1        0.1073
     34 O          -4.6283    9.8194    0.4178 O.3     1  LIG1       -0.4908
     35 C          -4.5230   10.8593   -0.5574 C.3     1  LIG1        0.0790
     36 H          -5.1674   11.6651   -0.2146 H       1  LIG1        0.0660
     37 H          -3.4899   11.2052   -0.6313 H       1  LIG1        0.0660
     38 H          -4.8588   10.4919   -1.5287 H       1  LIG1        0.0660
@<TRIPOS>BOND
     1    38    35    1
     2    25    22    1
     3    24    22    1
     4    31    29    1
     5     7     2    1
     6     7     8    1
     7     9     3    1
     8     9    10    1
     9    22    23    1
    10    22    21    1
    11    37    35    1
    12    35    36    1
    13    35    34    1
    14    30    29   ar
    15    30    26   ar
    16    29    28   ar
    17    11    10    1
    18     3     2   ar
    19     3     4   ar
    20    13    10    1
    21     2     1   ar
    22    10    12    1
    23    18    17   ar
    24    18    14   ar
    25     4    14    1
    26     4     5   ar
    27    26    17    1
    28    26    27   ar
    29    28    34    1
    30    28    27   ar
    31     1     6    1
    32     1     5   ar
    33    17    16   ar
    34    14    15   ar
    35    16    15   ar
    36    16    21    1
    37    15    19    1
    38    27    32    1
    39    19    20    1
    40    32    33    1
