@<TRIPOS>MOLECULE
mol_data/opt/m06hf/geoms/mol2/12gl12gl.out
 26 27 0 0 0
SMALL
GASTEIGER

@<TRIPOS>ATOM
      1 C           0.0466    1.7092   -0.0048 C.ar    1  LIG1        0.1096
      2 C           1.3648    1.6400   -0.3235 C.ar    1  LIG1        0.0852
      3 C           1.8211    3.0120   -0.3503 C.ar    1  LIG1        0.1819
      4 C           0.7409    3.7745   -0.0231 C.ar    1  LIG1        0.2133
      5 O          -0.3379    2.9788    0.1776 O.2     1  LIG1       -0.4549
      6 H          -0.7024    0.9446    0.1085 H       1  LIG1        0.1042
      7 S           2.2238    0.1630   -0.7794 S.3     1  LIG1       -0.1361
      8 H           2.8084   -0.0662    0.4050 H       1  LIG1        0.1073
      9 O           3.0339    3.4986   -0.6969 O.3     1  LIG1       -0.4902
     10 C           4.1369    3.0161    0.0734 C.3     1  LIG1        0.0790
     11 H           4.9793    3.6512   -0.1884 H       1  LIG1        0.0660
     12 H           3.9154    3.1119    1.1374 H       1  LIG1        0.0660
     13 H           4.3549    1.9815   -0.1883 H       1  LIG1        0.0660
     14 C           0.5685    5.2117    0.0945 C.ar    1  LIG1        0.1901
     15 C           1.4341    6.2143    0.4029 C.ar    1  LIG1        0.0956
     16 C           0.6531    7.4250    0.3285 C.ar    1  LIG1        0.1715
     17 C          -0.6066    7.0548   -0.0050 C.ar    1  LIG1        0.1354
     18 O          -0.6604    5.7151   -0.1594 O.2     1  LIG1       -0.4548
     19 H          -1.5170    7.6087   -0.1454 H       1  LIG1        0.1068
     20 S           3.1365    6.1105    0.8322 S.3     1  LIG1       -0.1354
     21 H           3.0821    7.1488    1.6758 H       1  LIG1        0.1073
     22 O           1.1155    8.6745    0.5944 O.3     1  LIG1       -0.4908
     23 C           1.7894    9.2721   -0.5166 C.3     1  LIG1        0.0790
     24 H           2.1431   10.2405   -0.1721 H       1  LIG1        0.0660
     25 H           2.6302    8.6496   -0.8282 H       1  LIG1        0.0660
     26 H           1.0928    9.3964   -1.3471 H       1  LIG1        0.0660
@<TRIPOS>BOND
     1    26    23    1
     2    25    23    1
     3     7     2    1
     4     7     8    1
     5     9     3    1
     6     9    10    1
     7    23    24    1
     8    23    22    1
     9     3     2   ar
    10     3     4   ar
    11     2     1   ar
    12    11    10    1
    13    13    10    1
    14    18    17   ar
    15    18    14   ar
    16    19    17    1
    17     4    14    1
    18     4     5   ar
    19    17    16   ar
    20     1     6    1
    21     1     5   ar
    22    10    12    1
    23    14    15   ar
    24    16    15   ar
    25    16    22    1
    26    15    20    1
    27    20    21    1
