@<TRIPOS>MOLECULE
mol_data/opt/m06hf/geoms/mol2/12gl12gl12gl-12gl-.out
 50 53 0 0 0
SMALL
GASTEIGER

@<TRIPOS>ATOM
      1 C           0.8498    1.3913    0.9702 C.ar    1  LIG1        0.1096
      2 C           2.0342    1.4325    0.3060 C.ar    1  LIG1        0.0852
      3 C           2.2309    2.8243   -0.0319 C.ar    1  LIG1        0.1819
      4 C           1.1592    3.4909    0.4812 C.ar    1  LIG1        0.2133
      5 O           0.3189    2.6146    1.0826 O.2     1  LIG1       -0.4549
      6 H           0.2931    0.5712    1.3890 H       1  LIG1        0.1042
      7 S           2.9829    0.0195   -0.1732 S.3     1  LIG1       -0.1361
      8 H           3.8499    0.0526    0.8481 H       1  LIG1        0.1073
      9 O           3.2078    3.3891   -0.7756 O.3     1  LIG1       -0.4902
     10 C           4.5406    3.2055   -0.2911 C.3     1  LIG1        0.0790
     11 H           5.1680    3.8406   -0.9111 H       1  LIG1        0.0660
     12 H           4.6012    3.5237    0.7505 H       1  LIG1        0.0660
     13 H           4.8409    2.1642   -0.3993 H       1  LIG1        0.0660
     14 C           0.7769    4.8895    0.4398 C.ar    1  LIG1        0.1912
     15 C           1.5053    6.0369    0.3399 C.ar    1  LIG1        0.0964
     16 C           0.5362    7.0962    0.3072 C.ar    1  LIG1        0.1827
     17 C          -0.6888    6.5113    0.4112 C.ar    1  LIG1        0.2144
     18 O          -0.5459    5.1710    0.4771 O.2     1  LIG1       -0.4435
     19 S           3.2500    6.2484    0.2654 S.3     1  LIG1       -0.1353
     20 H           3.2259    7.3942    0.9584 H       1  LIG1        0.1073
     21 O           0.8069    8.4211    0.2104 O.3     1  LIG1       -0.4902
     22 C           0.8906    8.8843   -1.1437 C.3     1  LIG1        0.0790
     23 H           1.1218    9.9444   -1.0832 H       1  LIG1        0.0660
     24 H           1.6794    8.3462   -1.6710 H       1  LIG1        0.0660
     25 H          -0.0691    8.7347   -1.6407 H       1  LIG1        0.0660
     26 C          -2.0116    7.0981    0.4620 C.ar    1  LIG1        0.1912
     27 C          -2.4332    8.3510    0.8008 C.ar    1  LIG1        0.0964
     28 C          -3.8555    8.3294    0.5956 C.ar    1  LIG1        0.1827
     29 C          -4.1783    7.0751    0.1779 C.ar    1  LIG1        0.2143
     30 O          -3.0597    6.3287    0.0819 O.2     1  LIG1       -0.4435
     31 S          -1.5318    9.7414    1.3950 S.3     1  LIG1       -0.1353
     32 H          -2.6482   10.3214    1.8617 H       1  LIG1        0.1073
     33 O          -4.6968    9.3745    0.8005 O.3     1  LIG1       -0.4902
     34 C          -4.9538   10.1382   -0.3843 C.3     1  LIG1        0.0790
     35 H          -5.6353   10.9305   -0.0869 H       1  LIG1        0.0660
     36 H          -4.0204   10.5550   -0.7668 H       1  LIG1        0.0660
     37 H          -5.4205    9.5011   -1.1372 H       1  LIG1        0.0660
     38 C          -5.4646    6.4890   -0.1423 C.ar    1  LIG1        0.1902
     39 C          -6.7290    6.8189    0.2441 C.ar    1  LIG1        0.0956
     40 C          -7.5833    5.8806   -0.4425 C.ar    1  LIG1        0.1715
     41 C          -6.7738    5.0670   -1.1634 C.ar    1  LIG1        0.1354
     42 O          -5.4891    5.4389   -0.9947 O.2     1  LIG1       -0.4548
     43 H          -6.9682    4.2197   -1.7955 H       1  LIG1        0.1068
     44 S          -7.2820    8.0541    1.3724 S.3     1  LIG1       -0.1354
     45 H          -8.4484    7.4232    1.5743 H       1  LIG1        0.1073
     46 O          -8.9371    5.8360   -0.3301 O.3     1  LIG1       -0.4908
     47 C          -9.6024    6.7180   -1.2376 C.3     1  LIG1        0.0790
     48 H         -10.6651    6.6267   -1.0286 H       1  LIG1        0.0660
     49 H          -9.2724    7.7461   -1.0747 H       1  LIG1        0.0660
     50 H          -9.3906    6.4199   -2.2654 H       1  LIG1        0.0660
@<TRIPOS>BOND
     1    50    47    1
     2    43    41    1
     3    24    22    1
     4    25    22    1
     5    47    49    1
     6    47    48    1
     7    47    46    1
     8    41    42   ar
     9    41    40   ar
    10    22    23    1
    11    22    21    1
    12    37    34    1
    13    42    38   ar
    14    11    10    1
    15     9    10    1
    16     9     3    1
    17    36    34    1
    18    40    46    1
    19    40    39   ar
    20    13    10    1
    21    34    35    1
    22    34    33    1
    23    10    12    1
    24     7     2    1
    25     7     8    1
    26    38    29    1
    27    38    39   ar
    28     3     2   ar
    29     3     4   ar
    30    30    29   ar
    31    30    26   ar
    32    29    28   ar
    33    21    16    1
    34    39    44    1
    35    19    15    1
    36    19    20    1
    37     2     1   ar
    38    16    15   ar
    39    16    17   ar
    40    15    14   ar
    41    17    26    1
    42    17    18   ar
    43    14    18   ar
    44    14     4    1
    45    26    27   ar
    46     4     5   ar
    47    28    33    1
    48    28    27   ar
    49    27    31    1
    50     1     5   ar
    51     1     6    1
    52    44    45    1
    53    31    32    1
