@<TRIPOS>MOLECULE
mol_data/opt/m06hf/geoms/mol2/12gl12gl-12gl.out
 38 40 0 0 0
SMALL
GASTEIGER

@<TRIPOS>ATOM
      1 C           0.4119    1.3566    0.7562 C.ar    1  LIG1        0.1096
      2 C           1.7369    1.4227    0.4681 C.ar    1  LIG1        0.0852
      3 C           2.0330    2.8283    0.3642 C.ar    1  LIG1        0.1819
      4 C           0.8657    3.4851    0.6045 C.ar    1  LIG1        0.2133
      5 O          -0.1204    2.5894    0.8357 O.2     1  LIG1       -0.4549
      6 H          -0.2509    0.5257    0.9210 H       1  LIG1        0.1042
      7 S           2.8343    0.0738    0.1757 S.3     1  LIG1       -0.1361
      8 H           3.6664    0.3368    1.1902 H       1  LIG1        0.1073
      9 O           3.2346    3.3884    0.0854 O.3     1  LIG1       -0.4902
     10 C           3.4914    3.5204   -1.3174 C.3     1  LIG1        0.0790
     11 H           4.4713    3.9829   -1.3987 H       1  LIG1        0.0660
     12 H           3.4923    2.5373   -1.7896 H       1  LIG1        0.0660
     13 H           2.7322    4.1597   -1.7707 H       1  LIG1        0.0660
     14 C           0.5696    4.9039    0.6339 C.ar    1  LIG1        0.1912
     15 C           1.3611    5.9876    0.8758 C.ar    1  LIG1        0.0964
     16 C           0.4983    7.1231    0.6942 C.ar    1  LIG1        0.1827
     17 C          -0.7338    6.6392    0.3790 C.ar    1  LIG1        0.2143
     18 O          -0.6920    5.2920    0.3290 O.2     1  LIG1       -0.4435
     19 S           3.0609    6.0731    1.3270 S.3     1  LIG1       -0.1353
     20 H           2.9122    7.2899    1.8672 H       1  LIG1        0.1073
     21 O           0.8607    8.4235    0.8329 O.3     1  LIG1       -0.4902
     22 C           1.2712    9.0333   -0.3966 C.3     1  LIG1        0.0790
     23 H           1.5279   10.0601   -0.1502 H       1  LIG1        0.0660
     24 H           2.1371    8.5060   -0.8007 H       1  LIG1        0.0660
     25 H           0.4464    9.0103   -1.1103 H       1  LIG1        0.0660
     26 C          -1.9802    7.3298    0.1141 C.ar    1  LIG1        0.1902
     27 C          -2.4296    8.5611    0.4860 C.ar    1  LIG1        0.0956
     28 C          -3.7298    8.6816   -0.1279 C.ar    1  LIG1        0.1715
     29 C          -3.9567    7.5268   -0.7997 C.ar    1  LIG1        0.1354
     30 O          -2.8945    6.7077   -0.6659 O.2     1  LIG1       -0.4548
     31 H          -4.7933    7.1689   -1.3722 H       1  LIG1        0.1068
     32 S          -1.6928    9.7684    1.5348 S.3     1  LIG1       -0.1354
     33 H          -2.8692   10.3750    1.7452 H       1  LIG1        0.1073
     34 O          -4.5552    9.7535    0.0042 O.3     1  LIG1       -0.4908
     35 C          -4.3046   10.7806   -0.9583 C.3     1  LIG1        0.0790
     36 H          -4.9934   11.5893   -0.7272 H       1  LIG1        0.0660
     37 H          -3.2723   11.1278   -0.8803 H       1  LIG1        0.0660
     38 H          -4.4904   10.3995   -1.9636 H       1  LIG1        0.0660
@<TRIPOS>BOND
     1    38    35    1
     2    12    10    1
     3    13    10    1
     4    11    10    1
     5    31    29    1
     6    10     9    1
     7    25    22    1
     8    35    37    1
     9    35    36    1
    10    35    34    1
    11    24    22    1
    12    29    30   ar
    13    29    28   ar
    14    30    26   ar
    15    22    23    1
    16    22    21    1
    17    28    34    1
    18    28    27   ar
    19     9     3    1
    20    26    17    1
    21    26    27   ar
    22     7     2    1
    23     7     8    1
    24    18    17   ar
    25    18    14   ar
    26     3     2   ar
    27     3     4   ar
    28    17    16   ar
    29     2     1   ar
    30    27    32    1
    31     4    14    1
    32     4     5   ar
    33    14    15   ar
    34    16    21    1
    35    16    15   ar
    36     1     5   ar
    37     1     6    1
    38    15    19    1
    39    19    20    1
    40    32    33    1
