@<TRIPOS>MOLECULE
mol_data/opt/m06hf/geoms/mol2/12gl.out
 14 14 0 0 0
SMALL
GASTEIGER

@<TRIPOS>ATOM
      1 C           0.1339    1.8547    0.2388 C.ar    1  LIG1        0.1085
      2 C           1.4158    1.6504   -0.1507 C.ar    1  LIG1        0.0844
      3 C           1.9893    2.9709   -0.2864 C.ar    1  LIG1        0.1707
      4 C           1.0059    3.8464    0.0305 C.ar    1  LIG1        0.1343
      5 O          -0.1214    3.1689    0.3520 O.2     1  LIG1       -0.4662
      6 H          -0.6691    1.1733    0.4595 H       1  LIG1        0.1042
      7 H           0.9642    4.9201    0.0535 H       1  LIG1        0.1068
      8 S           2.2170    0.0950   -0.3854 S.3     1  LIG1       -0.1361
      9 H           2.3257    0.1748   -1.7175 H       1  LIG1        0.1073
     10 O           3.2530    3.2647   -0.6849 O.3     1  LIG1       -0.4909
     11 C           4.2297    3.0720    0.3404 C.3     1  LIG1        0.0790
     12 H           5.1902    3.3165   -0.1058 H       1  LIG1        0.0660
     13 H           4.0209    3.7392    1.1790 H       1  LIG1        0.0660
     14 H           4.2252    2.0344    0.6766 H       1  LIG1        0.0660
@<TRIPOS>BOND
     1     9     8    1
     2    10     3    1
     3    10    11    1
     4     8     2    1
     5     3     2   ar
     6     3     4   ar
     7     2     1   ar
     8    12    11    1
     9     4     7    1
    10     4     5   ar
    11     1     5   ar
    12     1     6    1
    13    11    14    1
    14    11    13    1
