@<TRIPOS>MOLECULE
mol_data/opt/m06hf/geoms/mol2/12gl12gl12gl12gl-.out
 50 53 0 0 0
SMALL
GASTEIGER

@<TRIPOS>ATOM
      1 C           0.8631    1.3954    0.9649 C.ar    1  LIG1        0.1096
      2 C           2.0400    1.4355    0.2876 C.ar    1  LIG1        0.0852
      3 C           2.2324    2.8266   -0.0558 C.ar    1  LIG1        0.1819
      4 C           1.1661    3.4939    0.4674 C.ar    1  LIG1        0.2133
      5 O           0.3329    2.6187    1.0802 O.2     1  LIG1       -0.4549
      6 H           0.3114    0.5761    1.3919 H       1  LIG1        0.1042
      7 S           2.9841    0.0219   -0.1989 S.3     1  LIG1       -0.1361
      8 H           3.8622    0.0576    0.8129 H       1  LIG1        0.1073
      9 O           3.2008    3.3901   -0.8116 O.3     1  LIG1       -0.4902
     10 C           4.5389    3.2084   -0.3411 C.3     1  LIG1        0.0790
     11 H           5.1592    3.8421   -0.9697 H       1  LIG1        0.0660
     12 H           4.6107    3.5296    0.6989 H       1  LIG1        0.0660
     13 H           4.8386    2.1670   -0.4497 H       1  LIG1        0.0660
     14 C           0.7826    4.8922    0.4266 C.ar    1  LIG1        0.1912
     15 C           1.5092    6.0398    0.3156 C.ar    1  LIG1        0.0964
     16 C           0.5392    7.0984    0.2908 C.ar    1  LIG1        0.1827
     17 C          -0.6842    6.5132    0.4100 C.ar    1  LIG1        0.2144
     18 O          -0.5398    5.1731    0.4778 O.2     1  LIG1       -0.4435
     19 S           3.2529    6.2520    0.2214 S.3     1  LIG1       -0.1353
     20 H           3.2358    7.3996    0.9116 H       1  LIG1        0.1073
     21 O           0.8080    8.4232    0.1875 O.3     1  LIG1       -0.4902
     22 C           0.8767    8.8828   -1.1687 C.3     1  LIG1        0.0790
     23 H           1.1078    9.9432   -1.1136 H       1  LIG1        0.0660
     24 H           1.6601    8.3437   -1.7031 H       1  LIG1        0.0660
     25 H          -0.0882    8.7313   -1.6549 H       1  LIG1        0.0660
     26 C          -2.0067    7.0994    0.4737 C.ar    1  LIG1        0.1912
     27 C          -2.4253    8.3530    0.8139 C.ar    1  LIG1        0.0964
     28 C          -3.8497    8.3300    0.6241 C.ar    1  LIG1        0.1827
     29 C          -4.1764    7.0745    0.2132 C.ar    1  LIG1        0.2143
     30 O          -3.0585    6.3285    0.1070 O.2     1  LIG1       -0.4435
     31 S          -1.5183    9.7453    1.3946 S.3     1  LIG1       -0.1353
     32 H          -2.6299   10.3259    1.8720 H       1  LIG1        0.1073
     33 O          -4.6894    9.3752    0.8354 O.3     1  LIG1       -0.4902
     34 C          -4.9596   10.1357   -0.3485 C.3     1  LIG1        0.0790
     35 H          -5.6384   10.9283   -0.0459 H       1  LIG1        0.0660
     36 H          -4.0307   10.5521   -0.7421 H       1  LIG1        0.0660
     37 H          -5.4340    9.4965   -1.0948 H       1  LIG1        0.0660
     38 C          -5.4657    6.4869   -0.0914 C.ar    1  LIG1        0.1902
     39 C          -6.7261    6.8170    0.3079 C.ar    1  LIG1        0.0956
     40 C          -7.5872    5.8766   -0.3670 C.ar    1  LIG1        0.1715
     41 C          -6.7852    5.0616   -1.0946 C.ar    1  LIG1        0.1354
     42 O          -5.4989    5.4346   -0.9408 O.2     1  LIG1       -0.4548
     43 H          -6.9859    4.2125   -1.7224 H       1  LIG1        0.1068
     44 S          -7.2675    8.0549    1.4389 S.3     1  LIG1       -0.1354
     45 H          -8.4313    7.4239    1.6550 H       1  LIG1        0.1073
     46 O          -8.9397    5.8316   -0.2397 O.3     1  LIG1       -0.4908
     47 C          -9.6154    6.7107   -1.1423 C.3     1  LIG1        0.0790
     48 H         -10.6757    6.6196   -0.9214 H       1  LIG1        0.0660
     49 H          -9.2841    7.7395   -0.9859 H       1  LIG1        0.0660
     50 H          -9.4147    6.4099   -2.1716 H       1  LIG1        0.0660
@<TRIPOS>BOND
     1    50    47    1
     2    43    41    1
     3    24    22    1
     4    25    22    1
     5    22    23    1
     6    22    21    1
     7    47    49    1
     8    47    48    1
     9    47    46    1
    10    37    34    1
    11    41    42   ar
    12    41    40   ar
    13    11    10    1
    14    42    38   ar
    15     9    10    1
    16     9     3    1
    17    36    34    1
    18    13    10    1
    19    40    46    1
    20    40    39   ar
    21    34    35    1
    22    34    33    1
    23    10    12    1
    24     7     2    1
    25     7     8    1
    26    38    29    1
    27    38    39   ar
    28     3     2   ar
    29     3     4   ar
    30    30    29   ar
    31    30    26   ar
    32    21    16    1
    33    29    28   ar
    34    19    15    1
    35    19    20    1
    36     2     1   ar
    37    16    15   ar
    38    16    17   ar
    39    39    44    1
    40    15    14   ar
    41    17    26    1
    42    17    18   ar
    43    14     4    1
    44    14    18   ar
    45     4     5   ar
    46    26    27   ar
    47    28    27   ar
    48    28    33    1
    49    27    31    1
    50     1     5   ar
    51     1     6    1
    52    31    32    1
    53    44    45    1
