@<TRIPOS>MOLECULE
mol_data/opt/m06hf/geoms/mol2/12gl12gl-.out
 26 27 0 0 0
SMALL
GASTEIGER

@<TRIPOS>ATOM
      1 C          -0.0396    1.6497   -0.0308 C.ar    1  LIG1        0.1096
      2 C           1.2583    1.4365    0.3022 C.ar    1  LIG1        0.0852
      3 C           1.8632    2.7433    0.3312 C.ar    1  LIG1        0.1819
      4 C           0.8786    3.6292    0.0212 C.ar    1  LIG1        0.2133
      5 O          -0.2765    2.9630   -0.2069 O.2     1  LIG1       -0.4549
      6 H          -0.8693    0.9796   -0.1736 H       1  LIG1        0.1042
      7 S           2.0628   -0.1123    0.5584 S.3     1  LIG1       -0.1361
      8 H           2.3880    0.1136    1.8353 H       1  LIG1        0.1073
      9 O           3.1575    3.0270    0.6137 O.3     1  LIG1       -0.4902
     10 C           3.9879    3.1111   -0.5502 C.3     1  LIG1        0.0790
     11 H           4.9872    3.3383   -0.1890 H       1  LIG1        0.0660
     12 H           3.9780    2.1576   -1.0800 H       1  LIG1        0.0660
     13 H           3.6309    3.9128   -1.1985 H       1  LIG1        0.0660
     14 C           0.9054    5.0762   -0.0837 C.ar    1  LIG1        0.1901
     15 C           1.7175    6.0025    0.4961 C.ar    1  LIG1        0.0956
     16 C           1.2755    7.2665   -0.0365 C.ar    1  LIG1        0.1715
     17 C           0.2393    7.0052   -0.8743 C.ar    1  LIG1        0.1354
     18 O           0.0201    5.6683   -0.9139 O.2     1  LIG1       -0.4548
     19 H          -0.4035    7.6212   -1.4751 H       1  LIG1        0.1068
     20 S           3.0227    5.7911    1.6593 S.3     1  LIG1       -0.1354
     21 H           2.9925    7.0804    2.0173 H       1  LIG1        0.1073
     22 O           1.8456    8.4318    0.3332 O.3     1  LIG1       -0.4908
     23 C           1.2599    9.5902   -0.2372 C.3     1  LIG1        0.0790
     24 H           1.8096   10.4397    0.1571 H       1  LIG1        0.0660
     25 H           1.3494    9.5575   -1.3261 H       1  LIG1        0.0660
     26 H           0.2067    9.6570    0.0486 H       1  LIG1        0.0660
@<TRIPOS>BOND
     1    19    17    1
     2    25    23    1
     3    13    10    1
     4    12    10    1
     5    18    17   ar
     6    18    14   ar
     7    17    16   ar
     8    10    11    1
     9    10     9    1
    10    23    26    1
    11    23    24    1
    12    23    22    1
    13     5     1   ar
    14     5     4   ar
    15     6     1    1
    16    14     4    1
    17    14    15   ar
    18    16    22    1
    19    16    15   ar
    20     1     2   ar
    21     4     3   ar
    22     2     3   ar
    23     2     7    1
    24     3     9    1
    25    15    20    1
    26     7     8    1
    27    20    21    1
