@<TRIPOS>MOLECULE
mol_data/opt/m06hf/geoms/mol2/12gl12gl-12gl-.out
 38 40 0 0 0
SMALL
GASTEIGER

@<TRIPOS>ATOM
      1 C           0.2705    1.4602    0.1522 C.ar    1  LIG1        0.1096
      2 C           1.5679    1.4799   -0.2497 C.ar    1  LIG1        0.0852
      3 C           1.9261    2.8794   -0.3044 C.ar    1  LIG1        0.1819
      4 C           0.8188    3.5677    0.0918 C.ar    1  LIG1        0.2133
      5 O          -0.1877    2.7007    0.3588 O.2     1  LIG1       -0.4549
      6 H          -0.4163    0.6474    0.3123 H       1  LIG1        0.1042
      7 S           2.4933    0.0643   -0.7639 S.3     1  LIG1       -0.1361
      8 H           3.1601   -0.1245    0.3830 H       1  LIG1        0.1073
      9 O           3.0802    3.4435   -0.7259 O.3     1  LIG1       -0.4902
     10 C           4.2529    3.0474   -0.0105 C.3     1  LIG1        0.0790
     11 H           5.0417    3.7175   -0.3423 H       1  LIG1        0.0660
     12 H           4.0899    3.1662    1.0618 H       1  LIG1        0.0660
     13 H           4.5104    2.0177   -0.2545 H       1  LIG1        0.0660
     14 C           0.5494    4.9880    0.2163 C.ar    1  LIG1        0.1912
     15 C           1.3600    6.0657    0.4116 C.ar    1  LIG1        0.0964
     16 C           0.4819    7.2030    0.3988 C.ar    1  LIG1        0.1827
     17 C          -0.7784    6.7252    0.2166 C.ar    1  LIG1        0.2143
     18 O          -0.7401    5.3823    0.0933 O.2     1  LIG1       -0.4435
     19 S           3.1051    6.1305    0.6260 S.3     1  LIG1       -0.1353
     20 H           3.0545    7.2283    1.3922 H       1  LIG1        0.1073
     21 O           0.8538    8.4980    0.5568 O.3     1  LIG1       -0.4902
     22 C           1.1533    9.1569   -0.6803 C.3     1  LIG1        0.0790
     23 H           1.4192   10.1775   -0.4181 H       1  LIG1        0.0660
     24 H           1.9864    8.6556   -1.1754 H       1  LIG1        0.0660
     25 H           0.2708    9.1484   -1.3215 H       1  LIG1        0.0660
     26 C          -2.0503    7.4161    0.1413 C.ar    1  LIG1        0.1902
     27 C          -2.4515    8.6323    0.6068 C.ar    1  LIG1        0.0956
     28 C          -3.8205    8.7624    0.1696 C.ar    1  LIG1        0.1715
     29 C          -4.1292    7.6272   -0.5031 C.ar    1  LIG1        0.1354
     30 O          -3.0565    6.8117   -0.5320 O.2     1  LIG1       -0.4548
     31 H          -5.0308    7.2816   -0.9752 H       1  LIG1        0.1068
     32 S          -1.5962    9.8171    1.5906 S.3     1  LIG1       -0.1354
     33 H          -2.7418   10.4220    1.9355 H       1  LIG1        0.1073
     34 O          -4.6225    9.8269    0.4384 O.3     1  LIG1       -0.4908
     35 C          -4.5072   10.8759   -0.5258 C.3     1  LIG1        0.0790
     36 H          -5.1520   11.6800   -0.1801 H       1  LIG1        0.0660
     37 H          -3.4727   11.2197   -0.5886 H       1  LIG1        0.0660
     38 H          -4.8367   10.5188   -1.5032 H       1  LIG1        0.0660
@<TRIPOS>BOND
     1    38    35    1
     2    25    22    1
     3    24    22    1
     4    31    29    1
     5     7     2    1
     6     7     8    1
     7     9     3    1
     8     9    10    1
     9    22    23    1
    10    22    21    1
    11    37    35    1
    12    30    29   ar
    13    30    26   ar
    14    35    36    1
    15    35    34    1
    16    29    28   ar
    17    11    10    1
    18     3     2   ar
    19     3     4   ar
    20    13    10    1
    21     2     1   ar
    22    10    12    1
    23     4    14    1
    24     4     5   ar
    25    18    14   ar
    26    18    17   ar
    27    26    17    1
    28    26    27   ar
    29     1     6    1
    30     1     5   ar
    31    28    34    1
    32    28    27   ar
    33    14    15   ar
    34    17    16   ar
    35    16    15   ar
    36    16    21    1
    37    15    19    1
    38    27    32    1
    39    19    20    1
    40    32    33    1
