@<TRIPOS>MOLECULE
mol_data/opt/m06hf/geoms/mol2/12gl12gl12gl-12gl.out
 50 53 0 0 0
SMALL
GASTEIGER

@<TRIPOS>ATOM
      1 C           0.8506    1.3739    0.8846 C.ar    1  LIG1        0.1096
      2 C           2.0334    1.4262    0.2184 C.ar    1  LIG1        0.0852
      3 C           2.2299    2.8236   -0.0959 C.ar    1  LIG1        0.1819
      4 C           1.1596    3.4815    0.4311 C.ar    1  LIG1        0.2133
      5 O           0.3204    2.5953    1.0193 O.2     1  LIG1       -0.4549
      6 H           0.2946    0.5470    1.2906 H       1  LIG1        0.1042
      7 S           2.9804    0.0214   -0.2876 S.3     1  LIG1       -0.1361
      8 H           3.8498    0.0365    0.7322 H       1  LIG1        0.1073
      9 O           3.2053    3.4008   -0.8321 O.3     1  LIG1       -0.4902
     10 C           4.5391    3.2083   -0.3538 C.3     1  LIG1        0.0790
     11 H           5.1654    3.8538   -0.9642 H       1  LIG1        0.0660
     12 H           4.6023    3.5085    0.6930 H       1  LIG1        0.0660
     13 H           4.8388    2.1689   -0.4807 H       1  LIG1        0.0660
     14 C           0.7776    4.8807    0.4146 C.ar    1  LIG1        0.1912
     15 C           1.5062    6.0296    0.3327 C.ar    1  LIG1        0.0964
     16 C           0.5372    7.0895    0.3203 C.ar    1  LIG1        0.1827
     17 C          -0.6876    6.5032    0.4171 C.ar    1  LIG1        0.2144
     18 O          -0.5450    5.1619    0.4598 O.2     1  LIG1       -0.4435
     19 S           3.2507    6.2417    0.2577 S.3     1  LIG1       -0.1353
     20 H           3.2288    7.3756    0.9700 H       1  LIG1        0.1073
     21 O           0.8081    8.4158    0.2455 O.3     1  LIG1       -0.4902
     22 C           0.8888    8.9020   -1.1007 C.3     1  LIG1        0.0790
     23 H           1.1204    9.9609   -1.0227 H       1  LIG1        0.0660
     24 H           1.6763    8.3728   -1.6389 H       1  LIG1        0.0660
     25 H          -0.0720    8.7610   -1.5980 H       1  LIG1        0.0660
     26 C          -2.0102    7.0893    0.4809 C.ar    1  LIG1        0.1912
     27 C          -2.4307    8.3363    0.8421 C.ar    1  LIG1        0.0964
     28 C          -3.8535    8.3185    0.6396 C.ar    1  LIG1        0.1827
     29 C          -4.1775    7.0716    0.2012 C.ar    1  LIG1        0.2143
     30 O          -3.0593    6.3268    0.0900 O.2     1  LIG1       -0.4435
     31 S          -1.5277    9.7161    1.4580 S.3     1  LIG1       -0.1353
     32 H          -2.6429   10.2883    1.9370 H       1  LIG1        0.1073
     33 O          -4.6941    9.3600    0.8642 O.3     1  LIG1       -0.4902
     34 C          -4.9536   10.1440   -0.3068 C.3     1  LIG1        0.0790
     35 H          -5.6343   10.9312    0.0056 H       1  LIG1        0.0660
     36 H          -4.0210   10.5670   -0.6842 H       1  LIG1        0.0660
     37 H          -5.4221    9.5200   -1.0694 H       1  LIG1        0.0660
     38 C          -5.4646    6.4914   -0.1262 C.ar    1  LIG1        0.1902
     39 C          -6.7282    6.8148    0.2685 C.ar    1  LIG1        0.0956
     40 C          -7.5841    5.8886   -0.4323 C.ar    1  LIG1        0.1715
     41 C          -6.7764    5.0874   -1.1688 C.ar    1  LIG1        0.1354
     42 O          -5.4912    5.4560   -0.9964 O.2     1  LIG1       -0.4548
     43 H          -6.9723    4.2510   -1.8149 H       1  LIG1        0.1068
     44 S          -7.2783    8.0308    1.4188 S.3     1  LIG1       -0.1354
     45 H          -8.4447    7.3970    1.6122 H       1  LIG1        0.1073
     46 O          -8.9377    5.8424   -0.3177 O.3     1  LIG1       -0.4908
     47 C          -9.6048    6.7399   -1.2085 C.3     1  LIG1        0.0790
     48 H         -10.6670    6.6455   -0.9987 H       1  LIG1        0.0660
     49 H          -9.2740    7.7651   -1.0288 H       1  LIG1        0.0660
     50 H          -9.3953    6.4595   -2.2418 H       1  LIG1        0.0660
@<TRIPOS>BOND
     1    50    47    1
     2    43    41    1
     3    24    22    1
     4    25    22    1
     5    47    49    1
     6    47    48    1
     7    47    46    1
     8    41    42   ar
     9    41    40   ar
    10    22    23    1
    11    22    21    1
    12    37    34    1
    13    42    38   ar
    14    11    10    1
    15     9    10    1
    16     9     3    1
    17    36    34    1
    18    13    10    1
    19    40    46    1
    20    40    39   ar
    21    10    12    1
    22    34    35    1
    23    34    33    1
    24     7     2    1
    25     7     8    1
    26    38    29    1
    27    38    39   ar
    28     3     2   ar
    29     3     4   ar
    30    30    29   ar
    31    30    26   ar
    32    29    28   ar
    33     2     1   ar
    34    21    16    1
    35    19    15    1
    36    19    20    1
    37    39    44    1
    38    16    15   ar
    39    16    17   ar
    40    15    14   ar
    41    14     4    1
    42    14    18   ar
    43    17    18   ar
    44    17    26    1
    45     4     5   ar
    46    26    27   ar
    47    28    27   ar
    48    28    33    1
    49    27    31    1
    50     1     5   ar
    51     1     6    1
    52    44    45    1
    53    31    32    1
