@<TRIPOS>MOLECULE
mol_data/opt/m06hf/geoms/mol2/12gl12gl-12gl-12gl-.out
 50 53 0 0 0
SMALL
GASTEIGER

@<TRIPOS>ATOM
      1 C           0.8633    1.3979    0.9951 C.ar    1  LIG1        0.1096
      2 C           2.0413    1.4375    0.3195 C.ar    1  LIG1        0.0852
      3 C           2.2336    2.8281   -0.0256 C.ar    1  LIG1        0.1819
      4 C           1.1661    3.4957    0.4950 C.ar    1  LIG1        0.2133
      5 O           0.3324    2.6211    1.1077 O.2     1  LIG1       -0.4549
      6 H           0.3114    0.5789    1.4224 H       1  LIG1        0.1042
      7 S           2.9866    0.0234   -0.1632 S.3     1  LIG1       -0.1361
      8 H           3.8633    0.0613    0.8498 H       1  LIG1        0.1073
      9 O           3.2028    3.3911   -0.7808 O.3     1  LIG1       -0.4902
     10 C           4.5403    3.2102   -0.3085 C.3     1  LIG1        0.0790
     11 H           5.1613    3.8431   -0.9373 H       1  LIG1        0.0660
     12 H           4.6109    3.5328    0.7312 H       1  LIG1        0.0660
     13 H           4.8402    2.1686   -0.4154 H       1  LIG1        0.0660
     14 C           0.7823    4.8938    0.4516 C.ar    1  LIG1        0.1912
     15 C           1.5087    6.0415    0.3400 C.ar    1  LIG1        0.0964
     16 C           0.5384    7.0998    0.3122 C.ar    1  LIG1        0.1827
     17 C          -0.6850    6.5144    0.4308 C.ar    1  LIG1        0.2144
     18 O          -0.5403    5.1745    0.5007 O.2     1  LIG1       -0.4435
     19 S           3.2524    6.2542    0.2475 S.3     1  LIG1       -0.1353
     20 H           3.2342    7.4027    0.9362 H       1  LIG1        0.1073
     21 O           0.8071    8.4245    0.2071 O.3     1  LIG1       -0.4902
     22 C           0.8771    8.8819   -1.1497 C.3     1  LIG1        0.0790
     23 H           1.1080    9.9425   -1.0960 H       1  LIG1        0.0660
     24 H           1.6613    8.3422   -1.6823 H       1  LIG1        0.0660
     25 H          -0.0872    8.7293   -1.6367 H       1  LIG1        0.0660
     26 C          -2.0077    7.1003    0.4922 C.ar    1  LIG1        0.1912
     27 C          -2.4271    8.3542    0.8301 C.ar    1  LIG1        0.0964
     28 C          -3.8514    8.3305    0.6387 C.ar    1  LIG1        0.1827
     29 C          -4.1771    7.0742    0.2292 C.ar    1  LIG1        0.2143
     30 O          -3.0588    6.3285    0.1254 O.2     1  LIG1       -0.4435
     31 S          -1.5214    9.7477    1.4099 S.3     1  LIG1       -0.1353
     32 H          -2.6337   10.3284    1.8854 H       1  LIG1        0.1073
     33 O          -4.6915    9.3757    0.8475 O.3     1  LIG1       -0.4902
     34 C          -4.9616   10.1337   -0.3380 C.3     1  LIG1        0.0790
     35 H          -5.6409   10.9266   -0.0373 H       1  LIG1        0.0660
     36 H          -4.0326   10.5498   -0.7320 H       1  LIG1        0.0660
     37 H          -5.4353    9.4927   -1.0832 H       1  LIG1        0.0660
     38 C          -5.4659    6.4858   -0.0761 C.ar    1  LIG1        0.1902
     39 C          -6.7267    6.8160    0.3216 C.ar    1  LIG1        0.0956
     40 C          -7.5869    5.8743   -0.3528 C.ar    1  LIG1        0.1715
     41 C          -6.7839    5.0587   -1.0786 C.ar    1  LIG1        0.1354
     42 O          -5.4979    5.4323   -0.9241 O.2     1  LIG1       -0.4548
     43 H          -6.9837    4.2086   -1.7053 H       1  LIG1        0.1068
     44 S          -7.2695    8.0552    1.4506 S.3     1  LIG1       -0.1354
     45 H          -8.4334    7.4242    1.6664 H       1  LIG1        0.1073
     46 O          -8.9395    5.8290   -0.2267 O.3     1  LIG1       -0.4908
     47 C          -9.6147    6.7070   -1.1307 C.3     1  LIG1        0.0790
     48 H         -10.6751    6.6158   -0.9106 H       1  LIG1        0.0660
     49 H          -9.2838    7.7360   -0.9751 H       1  LIG1        0.0660
     50 H          -9.4131    6.4052   -2.1596 H       1  LIG1        0.0660
@<TRIPOS>BOND
     1    50    47    1
     2    43    41    1
     3    24    22    1
     4    25    22    1
     5    22    23    1
     6    22    21    1
     7    47    49    1
     8    47    48    1
     9    47    46    1
    10    37    34    1
    11    41    42   ar
    12    41    40   ar
    13    11    10    1
    14    42    38   ar
    15     9    10    1
    16     9     3    1
    17    36    34    1
    18    13    10    1
    19    40    46    1
    20    40    39   ar
    21    34    35    1
    22    34    33    1
    23    10    12    1
    24     7     2    1
    25     7     8    1
    26    38    29    1
    27    38    39   ar
    28     3     2   ar
    29     3     4   ar
    30    30    29   ar
    31    30    26   ar
    32    21    16    1
    33    29    28   ar
    34    19    15    1
    35    19    20    1
    36    16    15   ar
    37    16    17   ar
    38     2     1   ar
    39    39    44    1
    40    15    14   ar
    41    17    26    1
    42    17    18   ar
    43    14     4    1
    44    14    18   ar
    45    26    27   ar
    46     4     5   ar
    47    28    27   ar
    48    28    33    1
    49    27    31    1
    50     1     5   ar
    51     1     6    1
    52    31    32    1
    53    44    45    1
