@<TRIPOS>MOLECULE
mol_data/opt/m06hf/geoms/mol2/12gl12gl12gl-.out
 38 40 0 0 0
SMALL
GASTEIGER

@<TRIPOS>ATOM
      1 C           0.2686    1.4605    0.1494 C.ar    1  LIG1        0.1096
      2 C           1.5701    1.4794   -0.2390 C.ar    1  LIG1        0.0852
      3 C           1.9289    2.8787   -0.2933 C.ar    1  LIG1        0.1819
      4 C           0.8175    3.5679    0.0900 C.ar    1  LIG1        0.2133
      5 O          -0.1917    2.7015    0.3485 O.2     1  LIG1       -0.4549
      6 H          -0.4198    0.6481    0.3041 H       1  LIG1        0.1042
      7 S           2.5009    0.0626   -0.7402 S.3     1  LIG1       -0.1361
      8 H           3.1556   -0.1235    0.4142 H       1  LIG1        0.1073
      9 O           3.0871    3.4419   -0.7041 O.3     1  LIG1       -0.4902
     10 C           4.2526    3.0470    0.0237 C.3     1  LIG1        0.0790
     11 H           5.0445    3.7171   -0.3006 H       1  LIG1        0.0660
     12 H           4.0785    3.1669    1.0941 H       1  LIG1        0.0660
     13 H           4.5130    2.0172   -0.2166 H       1  LIG1        0.0660
     14 C           0.5469    4.9885    0.2086 C.ar    1  LIG1        0.1912
     15 C           1.3556    6.0665    0.4102 C.ar    1  LIG1        0.0964
     16 C           0.4778    7.2038    0.3856 C.ar    1  LIG1        0.1827
     17 C          -0.7806    6.7257    0.1911 C.ar    1  LIG1        0.2143
     18 O          -0.7411    5.3826    0.0711 O.2     1  LIG1       -0.4435
     19 S           3.0983    6.1313    0.6430 S.3     1  LIG1       -0.1353
     20 H           3.0400    7.2307    1.4063 H       1  LIG1        0.1073
     21 O           0.8481    8.4991    0.5449 O.3     1  LIG1       -0.4902
     22 C           1.1608    9.1554   -0.6903 C.3     1  LIG1        0.0790
     23 H           1.4238   10.1766   -0.4275 H       1  LIG1        0.0660
     24 H           1.9992    8.6531   -1.1754 H       1  LIG1        0.0660
     25 H           0.2853    9.1455   -1.3409 H       1  LIG1        0.0660
     26 C          -2.0515    7.4166    0.1007 C.ar    1  LIG1        0.1902
     27 C          -2.4575    8.6339    0.5592 C.ar    1  LIG1        0.0956
     28 C          -3.8217    8.7631    0.1070 C.ar    1  LIG1        0.1715
     29 C          -4.1234    7.6264   -0.5663 C.ar    1  LIG1        0.1354
     30 O          -3.0505    6.8108   -0.5819 O.2     1  LIG1       -0.4548
     31 H          -5.0199    7.2798   -1.0472 H       1  LIG1        0.1068
     32 S          -1.6127    9.8208    1.5495 S.3     1  LIG1       -0.1354
     33 H          -2.7618   10.4265    1.8808 H       1  LIG1        0.1073
     34 O          -4.6264    9.8284    0.3647 O.3     1  LIG1       -0.4908
     35 C          -4.5006   10.8751   -0.6006 C.3     1  LIG1        0.0790
     36 H          -5.1487   11.6802   -0.2635 H       1  LIG1        0.0660
     37 H          -3.4654   11.2184   -0.6532 H       1  LIG1        0.0660
     38 H          -4.8199   10.5159   -1.5805 H       1  LIG1        0.0660
@<TRIPOS>BOND
     1    38    35    1
     2    25    22    1
     3    24    22    1
     4    31    29    1
     5     7     2    1
     6     7     8    1
     7     9     3    1
     8     9    10    1
     9    22    23    1
    10    22    21    1
    11    37    35    1
    12    35    36    1
    13    35    34    1
    14    30    29   ar
    15    30    26   ar
    16    29    28   ar
    17    11    10    1
    18     3     2   ar
    19     3     4   ar
    20     2     1   ar
    21    13    10    1
    22    10    12    1
    23    18    17   ar
    24    18    14   ar
    25     4    14    1
    26     4     5   ar
    27    26    17    1
    28    26    27   ar
    29    28    34    1
    30    28    27   ar
    31     1     6    1
    32     1     5   ar
    33    17    16   ar
    34    14    15   ar
    35    16    15   ar
    36    16    21    1
    37    15    19    1
    38    27    32    1
    39    19    20    1
    40    32    33    1
