@<TRIPOS>MOLECULE
mol_data/opt/m06hf/geoms/mol2/12hd12hd-12hd-12hd.out
 42 45 0 0 0
SMALL
GASTEIGER

@<TRIPOS>ATOM
      1 C           0.1084    1.7604   -0.0448 C.ar    1  LIG1        0.1146
      2 C           1.4584    1.7079    0.0339 C.ar    1  LIG1        0.0812
      3 C           1.8990    3.0884    0.0484 C.ar    1  LIG1        0.1211
      4 C           0.7692    3.8591   -0.0235 C.ar    1  LIG1        0.1907
      5 O          -0.3090    3.0694   -0.0763 O.2     1  LIG1       -0.4565
      6 H          -0.6575    1.0085   -0.0693 H       1  LIG1        0.1049
      7 N           2.3098    0.6183    0.1576 N.pl3   1  LIG1       -0.3545
      8 H           1.9295   -0.2572   -0.1730 H       1  LIG1        0.1424
      9 H           3.2441    0.7850   -0.1923 H       1  LIG1        0.1424
     10 N           4.3681    3.8090    0.1410 N.1     1  LIG1       -0.1907
     11 C           3.2562    3.5217    0.1053 C.1     1  LIG1        0.1049
     12 C           0.5412    5.2730   -0.0632 C.ar    1  LIG1        0.1938
     13 C          -0.6200    5.9892   -0.1592 C.ar    1  LIG1        0.0925
     14 C          -0.2030    7.3694   -0.1938 C.ar    1  LIG1        0.1219
     15 C           1.1747    7.3773   -0.1045 C.ar    1  LIG1        0.1918
     16 O           1.6187    6.1198   -0.0256 O.2     1  LIG1       -0.4453
     17 N          -1.9102    5.5511   -0.1772 N.pl3   1  LIG1       -0.3539
     18 H          -2.6111    6.1835   -0.5315 H       1  LIG1        0.1425
     19 H          -2.0612    4.5677   -0.3402 H       1  LIG1        0.1425
     20 N          -1.8159    9.3520   -0.4960 N.1     1  LIG1       -0.1907
     21 C          -1.0836    8.4755   -0.3560 C.1     1  LIG1        0.1050
     22 C           2.1636    8.4095   -0.0718 C.ar    1  LIG1        0.1939
     23 C           2.1451    9.7843    0.0483 C.ar    1  LIG1        0.0925
     24 C           3.5349   10.1813    0.0422 C.ar    1  LIG1        0.1219
     25 C           4.2779    9.0323   -0.0687 C.ar    1  LIG1        0.1917
     26 O           3.4719    7.9739   -0.1400 O.2     1  LIG1       -0.4453
     27 N           1.1329   10.6645    0.1930 N.pl3   1  LIG1       -0.3539
     28 H           1.3611   11.6463    0.2107 H       1  LIG1        0.1425
     29 H           0.1700   10.4084    0.0460 H       1  LIG1        0.1425
     30 N           4.2623   12.6430    0.2184 N.1     1  LIG1       -0.1907
     31 C           3.9828   11.5314    0.1408 C.1     1  LIG1        0.1050
     32 C           5.6767    8.7643   -0.1140 C.ar    1  LIG1        0.1928
     33 C           6.3426    7.5609   -0.1931 C.ar    1  LIG1        0.0917
     34 C           7.7423    7.9329   -0.1753 C.ar    1  LIG1        0.1107
     35 C           7.7874    9.2921   -0.0906 C.ar    1  LIG1        0.1119
     36 O           6.5652    9.8026   -0.0538 O.2     1  LIG1       -0.4566
     37 H           8.6170    9.9773   -0.0497 H       1  LIG1        0.1043
     38 N           5.8507    6.3140   -0.2908 N.pl3   1  LIG1       -0.3540
     39 H           4.8627    6.1411   -0.1849 H       1  LIG1        0.1425
     40 H           6.4562    5.5148   -0.1880 H       1  LIG1        0.1425
     41 N           9.6945    6.2524   -0.2799 N.1     1  LIG1       -0.1907
     42 C           8.8425    7.0201   -0.2339 C.1     1  LIG1        0.1042
@<TRIPOS>BOND
     1    18    17    1
     2    20    21    3
     3    21    14    1
     4    19    17    1
     5    38    33    1
     6    38    40    1
     7    38    39    1
     8    41    42    3
     9    42    34    1
    10    14    13   ar
    11    14    15   ar
    12    33    34   ar
    13    33    32   ar
    14     9     7    1
    15    17    13    1
    16    34    35   ar
    17     8     7    1
    18    13    12   ar
    19    26    22   ar
    20    26    25   ar
    21    32    25    1
    22    32    36   ar
    23    15    22    1
    24    15    16   ar
    25    35    36   ar
    26    35    37    1
    27     5     1   ar
    28     5     4   ar
    29    22    23   ar
    30     6     1    1
    31    25    24   ar
    32    12    16   ar
    33    12     4    1
    34     1     2   ar
    35     4     3   ar
    36     2     3   ar
    37     2     7    1
    38    24    23   ar
    39    24    31    1
    40    29    27    1
    41    23    27    1
    42     3    11    1
    43    11    10    3
    44    31    30    3
    45    27    28    1
