@<TRIPOS>MOLECULE
mol_data/opt/m06hf/geoms/mol2/12hd12hd12hd12hd.out
 42 45 0 0 0
SMALL
GASTEIGER

@<TRIPOS>ATOM
      1 C           0.6622    1.8114    1.0644 C.ar    1  LIG1        0.1146
      2 C           1.8694    1.7621    0.4495 C.ar    1  LIG1        0.0812
      3 C           2.0617    3.0844   -0.1016 C.ar    1  LIG1        0.1211
      4 C           0.9592    3.8224    0.2471 C.ar    1  LIG1        0.1907
      5 O           0.1235    3.0598    0.9495 O.2     1  LIG1       -0.4565
      6 H           0.0844    1.0846    1.6043 H       1  LIG1        0.1049
      7 N           2.8038    0.7336    0.3755 N.pl3   1  LIG1       -0.3545
      8 H           2.4353   -0.1784    0.6082 H       1  LIG1        0.1424
      9 H           3.3240    0.7164   -0.4924 H       1  LIG1        0.1424
     10 N           4.0186    3.8942   -1.5681 N.1     1  LIG1       -0.1907
     11 C           3.1495    3.5211   -0.9132 C.1     1  LIG1        0.1049
     12 C           0.5965    5.2023    0.0212 C.ar    1  LIG1        0.1938
     13 C           1.3261    6.3478   -0.1674 C.ar    1  LIG1        0.0925
     14 C           0.3345    7.3904   -0.2967 C.ar    1  LIG1        0.1219
     15 C          -0.8977    6.8009   -0.1469 C.ar    1  LIG1        0.1918
     16 O          -0.7437    5.4942    0.0367 O.2     1  LIG1       -0.4453
     17 N           2.6757    6.5695   -0.1714 N.pl3   1  LIG1       -0.3539
     18 H           3.2859    5.8237   -0.4749 H       1  LIG1        0.1425
     19 H           2.9649    7.4873   -0.4776 H       1  LIG1        0.1425
     20 N           0.8275    9.8606   -0.8292 N.1     1  LIG1       -0.1907
     21 C           0.6059    8.7567   -0.5935 C.1     1  LIG1        0.1050
     22 C          -2.2381    7.3273   -0.1374 C.ar    1  LIG1        0.1939
     23 C          -2.7687    8.5662    0.1307 C.ar    1  LIG1        0.0925
     24 C          -4.1961    8.3816    0.0081 C.ar    1  LIG1        0.1219
     25 C          -4.4113    7.0576   -0.2899 C.ar    1  LIG1        0.1917
     26 O          -3.2466    6.4280   -0.3812 O.2     1  LIG1       -0.4453
     27 N          -2.1859    9.7384    0.5034 N.pl3   1  LIG1       -0.3539
     28 H          -1.2248    9.9206    0.2567 H       1  LIG1        0.1425
     29 H          -2.7848   10.5498    0.5355 H       1  LIG1        0.1425
     30 N          -5.9516   10.2553    0.1953 N.1     1  LIG1       -0.1907
     31 C          -5.1703    9.4154    0.1098 C.1     1  LIG1        0.1050
     32 C          -5.6105    6.2846   -0.4918 C.ar    1  LIG1        0.1928
     33 C          -6.9179    6.4391   -0.0930 C.ar    1  LIG1        0.0917
     34 C          -7.5832    5.2510   -0.5841 C.ar    1  LIG1        0.1107
     35 C          -6.6393    4.4983   -1.2115 C.ar    1  LIG1        0.1119
     36 O          -5.4629    5.1017   -1.1670 O.2     1  LIG1       -0.4566
     37 H          -6.6970    3.5480   -1.7135 H       1  LIG1        0.1043
     38 N          -7.5311    7.3924    0.6586 N.pl3   1  LIG1       -0.3540
     39 H          -7.1438    8.3228    0.7119 H       1  LIG1        0.1425
     40 H          -8.5362    7.3343    0.7261 H       1  LIG1        0.1425
     41 N         -10.0983    4.7949   -0.2530 N.1     1  LIG1       -0.1907
     42 C          -8.9748    4.9661   -0.4145 C.1     1  LIG1        0.1042
@<TRIPOS>BOND
     1    37    35    1
     2    10    11    3
     3    35    36   ar
     4    35    34   ar
     5    36    32   ar
     6    11     3    1
     7    20    21    3
     8    21    14    1
     9    34    42    1
    10    34    33   ar
    11     9     7    1
    12    32    25    1
    13    32    33   ar
    14    19    17    1
    15    18    17    1
    16    42    41    3
    17    26    25   ar
    18    26    22   ar
    19    14    13   ar
    20    14    15   ar
    21    25    24   ar
    22    17    13    1
    23    13    12   ar
    24    15    22    1
    25    15    16   ar
    26    22    23   ar
    27     3     4   ar
    28     3     2   ar
    29    33    38    1
    30    24    31    1
    31    24    23   ar
    32    12    16   ar
    33    12     4    1
    34    31    30    3
    35    23    27    1
    36     4     5   ar
    37    28    27    1
    38     7     2    1
    39     7     8    1
    40     2     1   ar
    41    27    29    1
    42    38    39    1
    43    38    40    1
    44     5     1   ar
    45     1     6    1
