@<TRIPOS>MOLECULE
mol_data/opt/m06hf/geoms/mol2/12hd6ae13he13hi.out
 48 51 0 0 0
SMALL
GASTEIGER

@<TRIPOS>ATOM
      1 C          -0.0656    1.8277    0.6027 C.ar    1  LIG1        0.1145
      2 C           1.2757    1.6700    0.4869 C.ar    1  LIG1        0.0811
      3 C           1.7909    3.0006    0.2566 C.ar    1  LIG1        0.1180
      4 C           0.7170    3.8514    0.2493 C.ar    1  LIG1        0.1554
      5 O          -0.3951    3.1435    0.4592 O.2     1  LIG1       -0.4597
      6 H          -0.8719    1.1436    0.7897 H       1  LIG1        0.1049
      7 N           2.0624    0.5319    0.6238 N.pl3   1  LIG1       -0.3545
      8 H           1.5836   -0.3350    0.4228 H       1  LIG1        0.1424
      9 H           2.9519    0.5916    0.1458 H       1  LIG1        0.1424
     10 N           4.2863    3.5395   -0.0982 N.1     1  LIG1       -0.1907
     11 C           3.1708    3.3191    0.0661 C.1     1  LIG1        0.1048
     12 C          -0.6903    5.8918    0.1796 C.ar    1  LIG1        0.0391
     13 C           0.5737    5.2959    0.0616 C.ar    1  LIG1        0.0379
     14 C           1.6396    6.1204   -0.2826 C.ar    1  LIG1       -0.0320
     15 C           1.4272    7.4888   -0.4485 C.ar    1  LIG1        0.0528
     16 C           0.1399    8.0157   -0.2005 C.ar    1  LIG1        0.1043
     17 N          -0.8916    7.1889    0.0579 N.ar    1  LIG1       -0.2515
     18 H           2.6300    5.7213   -0.4605 H       1  LIG1        0.0638
     19 H          -1.5589    5.2789    0.3869 H       1  LIG1        0.0837
     20 C           2.5037    8.2744   -0.9933 C.1     1  LIG1       -0.0674
     21 C           3.4241    8.8667   -1.4941 C.1     1  LIG1       -0.1138
     22 H           4.2319    9.3841   -1.9596 H       1  LIG1        0.1232
     23 C          -0.2205    9.4221   -0.2303 C.ar    1  LIG1        0.0888
     24 C           0.4293   10.6275    0.0334 C.ar    1  LIG1        0.0680
     25 C          -0.5674   11.6520   -0.0418 C.ar    1  LIG1        0.0727
     26 C          -1.7925   11.0400   -0.3015 C.ar    1  LIG1        0.0826
     27 N          -1.5636    9.7201   -0.4105 N.ar    1  LIG1       -0.3493
     28 H          -2.2593    8.9866   -0.4181 H       1  LIG1        0.1661
     29 N           1.7249   10.8785    0.4181 N.pl3   1  LIG1       -0.3553
     30 H           2.4405   10.2657    0.0569 H       1  LIG1        0.1424
     31 H           1.9650   11.8603    0.4215 H       1  LIG1        0.1424
     32 C          -0.3021   13.0465    0.0955 C.1     1  LIG1       -0.0656
     33 C          -0.0448   14.2166    0.2273 C.1     1  LIG1       -0.1138
     34 H           0.1783   15.2536    0.3237 H       1  LIG1        0.1232
     35 C          -3.1221   11.6054   -0.4689 C.ar    1  LIG1        0.0853
     36 C          -3.7766   12.6148    0.2099 C.ar    1  LIG1        0.0546
     37 C          -5.1008   12.6974   -0.3224 C.ar    1  LIG1       -0.0118
     38 C          -5.1963   11.7362   -1.2997 C.ar    1  LIG1        0.0069
     39 N          -4.0161   11.0660   -1.3745 N.ar    1  LIG1       -0.3578
     40 H          -3.7561   10.4147   -2.0968 H       1  LIG1        0.1654
     41 H          -6.0242   11.4912   -1.9438 H       1  LIG1        0.0810
     42 N          -3.3152   13.3571    1.3034 N.pl3   1  LIG1       -0.3561
     43 H          -2.3043   13.4051    1.3579 H       1  LIG1        0.1424
     44 H          -3.7083   14.2905    1.3244 H       1  LIG1        0.1424
     45 C          -6.1738   13.6415    0.1544 C.3     1  LIG1       -0.0365
     46 H          -7.1143   13.4313   -0.3545 H       1  LIG1        0.0279
     47 H          -5.9037   14.6814   -0.0466 H       1  LIG1        0.0279
     48 H          -6.3271   13.5278    1.2294 H       1  LIG1        0.0279
@<TRIPOS>BOND
     1    40    39    1
     2    22    21    1
     3    41    38    1
     4    21    20    3
     5    39    38   ar
     6    39    35   ar
     7    38    37   ar
     8    20    15    1
     9    35    26    1
    10    35    36   ar
    11    18    14    1
    12    15    14   ar
    13    15    16   ar
    14    28    27    1
    15    27    26   ar
    16    27    23   ar
    17    46    45    1
    18    37    45    1
    19    37    36   ar
    20    26    25   ar
    21    14    13   ar
    22    23    16    1
    23    23    24   ar
    24    16    17   ar
    25    10    11    3
    26    47    45    1
    27    25    24   ar
    28    25    32    1
    29    24    29    1
    30    30    29    1
    31    17    12   ar
    32    13    12   ar
    33    13     4    1
    34    11     3    1
    35    32    33    3
    36     9     7    1
    37    45    48    1
    38    12    19    1
    39    36    42    1
    40    33    34    1
    41     4     3   ar
    42     4     5   ar
    43     3     2   ar
    44    29    31    1
    45     8     7    1
    46     5     1   ar
    47     2     1   ar
    48     2     7    1
    49     1     6    1
    50    42    44    1
    51    42    43    1
