@<TRIPOS>MOLECULE
mol_data/opt/m06hf/geoms/mol2/12hd13id-12id-12ed.out
 45 48 0 0 0
SMALL
GASTEIGER

@<TRIPOS>ATOM
      1 C           0.7161    1.9506    1.2636 C.ar    1  LIG1        0.1145
      2 C           1.7346    1.7836    0.3838 C.ar    1  LIG1        0.0811
      3 C           1.9104    3.0771   -0.2401 C.ar    1  LIG1        0.1194
      4 C           0.9946    3.9173    0.3288 C.ar    1  LIG1        0.1703
      5 O           0.2742    3.2433    1.2314 O.2     1  LIG1       -0.4582
      6 H           0.2294    1.2891    1.9558 H       1  LIG1        0.1049
      7 N           2.5267    0.6749    0.1226 N.pl3   1  LIG1       -0.3545
      8 H           2.1123   -0.2129    0.3686 H       1  LIG1        0.1424
      9 H           2.9303    0.6662   -0.8050 H       1  LIG1        0.1424
     10 N           3.5219    3.5156   -2.2032 N.1     1  LIG1       -0.1907
     11 C           2.8026    3.3501   -1.3233 C.1     1  LIG1        0.1049
     12 C           0.6582    5.3171    0.1243 C.ar    1  LIG1        0.0882
     13 C           1.4299    6.3989   -0.2511 C.ar    1  LIG1       -0.0040
     14 C           0.5349    7.5067   -0.2823 C.ar    1  LIG1        0.0836
     15 C          -0.7267    7.0675    0.0943 C.ar    1  LIG1        0.1007
     16 N          -0.6285    5.7411    0.3327 N.ar    1  LIG1       -0.3481
     17 H          -1.3930    5.1473    0.6233 H       1  LIG1        0.1661
     18 C           2.9076    6.4523   -0.5444 C.3     1  LIG1       -0.0364
     19 H           3.2822    7.4485   -0.3118 H       1  LIG1        0.0279
     20 H           3.1041    6.2360   -1.5947 H       1  LIG1        0.0279
     21 H           3.4397    5.7215    0.0648 H       1  LIG1        0.0279
     22 N           1.1512    9.8995   -1.0284 N.1     1  LIG1       -0.1908
     23 C           0.8702    8.8376   -0.6929 C.1     1  LIG1        0.1017
     24 C          -1.9929    7.7723    0.2351 C.ar    1  LIG1        0.1573
     25 C          -2.3244    9.0385    0.6086 C.ar    1  LIG1        0.0149
     26 C          -3.7664    9.0598    0.5556 C.ar    1  LIG1        0.1041
     27 C          -4.1773    7.8158    0.1695 C.ar    1  LIG1        0.1894
     28 O          -3.1054    7.0334   -0.0236 O.2     1  LIG1       -0.4486
     29 C          -1.4436   10.1748    1.0566 C.3     1  LIG1       -0.0348
     30 H          -1.9880   10.7832    1.7784 H       1  LIG1        0.0279
     31 H          -1.1555   10.7943    0.2074 H       1  LIG1        0.0279
     32 H          -0.5393    9.7843    1.5215 H       1  LIG1        0.0279
     33 N          -5.2001   11.0753    1.2885 N.1     1  LIG1       -0.1907
     34 C          -4.5873   10.1677    0.9460 C.1     1  LIG1        0.1034
     35 C          -5.4839    7.2254   -0.0648 C.ar    1  LIG1        0.1876
     36 C          -6.6568    7.7421   -0.5336 C.ar    1  LIG1        0.0908
     37 C          -7.5774    6.6275   -0.5342 C.ar    1  LIG1        0.1055
     38 C          -6.8803    5.5524   -0.0856 C.ar    1  LIG1        0.1113
     39 O          -5.6220    5.9071    0.1995 O.2     1  LIG1       -0.4572
     40 H          -7.1553    4.5245    0.0728 H       1  LIG1        0.1043
     41 C          -6.9142    9.0729   -0.9762 C.1     1  LIG1       -0.0645
     42 C          -7.1272   10.1930   -1.3499 C.1     1  LIG1       -0.1138
     43 H          -7.3096   11.1946   -1.6668 H       1  LIG1        0.1232
     44 N         -10.0492    6.6527   -1.2722 N.1     1  LIG1       -0.1907
     45 C          -8.9506    6.6447   -0.9444 C.1     1  LIG1        0.1036
@<TRIPOS>BOND
     1    10    11    3
     2    43    42    1
     3    20    18    1
     4    42    41    3
     5    11     3    1
     6    44    45    3
     7    22    23    3
     8    41    36    1
     9    45    37    1
    10     9     7    1
    11    23    14    1
    12    18    19    1
    13    18    13    1
    14    18    21    1
    15    37    36   ar
    16    37    38   ar
    17    36    35   ar
    18    14    13   ar
    19    14    15   ar
    20    13    12   ar
    21     3     4   ar
    22     3     2   ar
    23    38    40    1
    24    38    39   ar
    25    35    27    1
    26    35    39   ar
    27    28    27   ar
    28    28    24   ar
    29    15    24    1
    30    15    16   ar
    31     7     8    1
    32     7     2    1
    33    12     4    1
    34    12    16   ar
    35    27    26   ar
    36    31    29    1
    37    24    25   ar
    38     4     5   ar
    39    16    17    1
    40     2     1   ar
    41    26    25   ar
    42    26    34    1
    43    25    29    1
    44    34    33    3
    45    29    32    1
    46    29    30    1
    47     5     1   ar
    48     1     6    1
