@<TRIPOS>MOLECULE
mol_data/opt/m06hf/geoms/mol2/12hd12hd12hd12hd-.out
 42 45 0 0 0
SMALL
GASTEIGER

@<TRIPOS>ATOM
      1 C           0.2557    1.7217    0.2822 C.ar    1  LIG1        0.1146
      2 C           1.5494    1.7133   -0.1188 C.ar    1  LIG1        0.0812
      3 C           1.8880    3.1048   -0.3218 C.ar    1  LIG1        0.1211
      4 C           0.7704    3.8349   -0.0067 C.ar    1  LIG1        0.1907
      5 O          -0.2085    3.0056    0.3581 O.2     1  LIG1       -0.4565
      6 H          -0.4337    0.9430    0.5489 H       1  LIG1        0.1049
      7 N           2.4428    0.6574   -0.2649 N.pl3   1  LIG1       -0.3545
      8 H           2.0037   -0.2493   -0.3490 H       1  LIG1        0.1424
      9 H           3.1345    0.8054   -0.9888 H       1  LIG1        0.1424
     10 N           4.1064    4.0343   -1.2423 N.1     1  LIG1       -0.1907
     11 C           3.1191    3.6114   -0.8302 C.1     1  LIG1        0.1049
     12 C           0.4970    5.2505    0.0173 C.ar    1  LIG1        0.1938
     13 C           1.2777    6.3700    0.1522 C.ar    1  LIG1        0.0925
     14 C           0.3416    7.4722    0.1596 C.ar    1  LIG1        0.1219
     15 C          -0.9188    6.9365    0.0312 C.ar    1  LIG1        0.1918
     16 O          -0.8275    5.6108   -0.0557 O.2     1  LIG1       -0.4453
     17 N           2.6210    6.5157    0.3436 N.pl3   1  LIG1       -0.3539
     18 H           3.2471    5.8010    0.0017 H       1  LIG1        0.1425
     19 H           2.9797    7.4569    0.2755 H       1  LIG1        0.1425
     20 N           0.9885    9.9439    0.4735 N.1     1  LIG1       -0.1907
     21 C           0.6912    8.8412    0.3341 C.1     1  LIG1        0.1050
     22 C          -2.2413    7.4856   -0.0435 C.ar    1  LIG1        0.1939
     23 C          -2.7865    8.7388   -0.2160 C.ar    1  LIG1        0.0925
     24 C          -4.2180    8.5230   -0.2538 C.ar    1  LIG1        0.1219
     25 C          -4.4203    7.1749   -0.1128 C.ar    1  LIG1        0.1917
     26 O          -3.2518    6.5503    0.0169 O.2     1  LIG1       -0.4453
     27 N          -2.2165    9.9532   -0.3812 N.pl3   1  LIG1       -0.3539
     28 H          -1.2455   10.1156   -0.1670 H       1  LIG1        0.1425
     29 H          -2.8248   10.7563   -0.4195 H       1  LIG1        0.1425
     30 N          -5.9123   10.4370   -0.5526 N.1     1  LIG1       -0.1907
     31 C          -5.1874    9.5563   -0.4192 C.1     1  LIG1        0.1050
     32 C          -5.5713    6.3285   -0.0837 C.ar    1  LIG1        0.1928
     33 C          -5.6439    4.9620    0.0424 C.ar    1  LIG1        0.0917
     34 C          -7.0606    4.6766   -0.0192 C.ar    1  LIG1        0.1107
     35 C          -7.6967    5.8720   -0.1711 C.ar    1  LIG1        0.1119
     36 O          -6.8197    6.8658   -0.2097 O.2     1  LIG1       -0.4566
     37 H          -8.7403    6.1214   -0.2614 H       1  LIG1        0.1043
     38 N          -4.6573    4.0524    0.2178 N.pl3   1  LIG1       -0.3540
     39 H          -4.8807    3.0739    0.1354 H       1  LIG1        0.1425
     40 H          -3.6933    4.3368    0.1309 H       1  LIG1        0.1425
     41 N          -8.0440    2.2983    0.1282 N.1     1  LIG1       -0.1907
     42 C          -7.6377    3.3697    0.0618 C.1     1  LIG1        0.1042
@<TRIPOS>BOND
     1    10    11    3
     2     9     7    1
     3    11     3    1
     4    30    31    3
     5    29    27    1
     6    31    24    1
     7    27    23    1
     8    27    28    1
     9     8     7    1
    10     3     2   ar
    11     3     4   ar
    12     7     2    1
    13    37    35    1
    14    24    23   ar
    15    24    25   ar
    16    23    22   ar
    17    36    35   ar
    18    36    32   ar
    19    35    34   ar
    20     2     1   ar
    21    25    32    1
    22    25    26   ar
    23    32    33   ar
    24    16    12   ar
    25    16    15   ar
    26    22    26   ar
    27    22    15    1
    28    34    33   ar
    29    34    42    1
    30     4    12    1
    31     4     5   ar
    32    18    17    1
    33    12    13   ar
    34    15    14   ar
    35    33    38    1
    36    42    41    3
    37    40    38    1
    38    39    38    1
    39    13    14   ar
    40    13    17    1
    41    14    21    1
    42    19    17    1
    43     1     5   ar
    44     1     6    1
    45    21    20    3
