@<TRIPOS>MOLECULE
mol_data/opt/m06hf/geoms/mol2/12hd4ea-12af-4ie6hh6ea4ea13il.out
 98 105 0 0 0
SMALL
GASTEIGER

@<TRIPOS>ATOM
      1 C           1.5335    1.6861    1.6190 C.ar    1  LIG1        0.1145
      2 C           2.5047    1.5436    0.6832 C.ar    1  LIG1        0.0811
      3 C           2.6359    2.8484    0.0751 C.ar    1  LIG1        0.1180
      4 C           1.7364    3.6715    0.6981 C.ar    1  LIG1        0.1551
      5 O           1.0721    2.9669    1.6200 O.2     1  LIG1       -0.4597
      6 H           1.0961    1.0122    2.3319 H       1  LIG1        0.1049
      7 N           3.2900    0.4417    0.3611 N.pl3   1  LIG1       -0.3545
      8 H           2.8506   -0.4519    0.5329 H       1  LIG1        0.1424
      9 H           3.6953    0.4920   -0.5650 H       1  LIG1        0.1424
     10 N           4.1745    3.2026   -1.9609 N.1     1  LIG1       -0.1907
     11 C           3.4846    3.1040   -1.0479 C.1     1  LIG1        0.1048
     12 C           2.2433    6.1081    0.2789 C.ar    1  LIG1        0.0360
     13 C           1.7806    7.4147    0.1143 C.ar    1  LIG1       -0.0350
     14 C           1.3249    5.0736    0.5224 C.ar    1  LIG1        0.0340
     15 C           0.4221    7.7070    0.2083 C.ar    1  LIG1        0.0186
     16 H           2.5041    8.1952   -0.0760 H       1  LIG1        0.0637
     17 C          -0.0342    5.3787    0.6346 C.ar    1  LIG1       -0.0492
     18 C          -0.4870    6.6791    0.4801 C.ar    1  LIG1       -0.0503
     19 H          -0.7330    4.5794    0.8410 H       1  LIG1        0.0625
     20 C           3.6655    5.8725    0.2374 C.1     1  LIG1       -0.0689
     21 C           4.8551    5.7097    0.2028 C.1     1  LIG1       -0.1139
     22 H           5.9065    5.5419    0.1532 H       1  LIG1        0.1232
     23 H          -1.5407    6.9071    0.5642 H       1  LIG1        0.0625
     24 C          -0.0554    9.0846    0.0265 C.ar    1  LIG1        0.1394
     25 C           0.5804   10.2639   -0.2203 C.ar    1  LIG1        0.0264
     26 C          -0.4571   11.2465   -0.2952 C.ar    1  LIG1        0.1632
     27 C          -1.6385   10.6055   -0.0700 C.ar    1  LIG1        0.1771
     28 O          -1.3883    9.2816    0.1058 O.2     1  LIG1       -0.4510
     29 H           1.6337   10.4408   -0.3513 H       1  LIG1        0.0692
     30 O          -0.2497   12.5591   -0.5796 O.3     1  LIG1       -0.5032
     31 H          -1.0437   12.9287   -0.9856 H       1  LIG1        0.2923
     32 C          -3.4387   12.1851    0.6720 C.ar    1  LIG1       -0.0390
     33 C          -4.7682   12.5983    0.5755 C.ar    1  LIG1       -0.0492
     34 C          -3.0354   11.0727   -0.0870 C.ar    1  LIG1        0.0250
     35 C          -5.7028   11.9309   -0.2142 C.ar    1  LIG1        0.0011
     36 H          -5.1055   13.4455    1.1607 H       1  LIG1        0.0627
     37 C          -3.9592   10.3842   -0.8734 C.ar    1  LIG1       -0.0347
     38 C          -5.2872   10.8024   -0.9421 C.ar    1  LIG1        0.0332
     39 H          -3.6394    9.5248   -1.4481 H       1  LIG1        0.0637
     40 C          -2.4912   12.8773    1.6362 C.3     1  LIG1       -0.0390
     41 H          -3.0421   13.5923    2.2450 H       1  LIG1        0.0278
     42 H          -1.6864   13.3995    1.1173 H       1  LIG1        0.0278
     43 H          -2.0308   12.1332    2.2883 H       1  LIG1        0.0278
     44 C          -6.2184   10.0810   -1.7795 C.1     1  LIG1       -0.0690
     45 C          -6.9967    9.4696   -2.4618 C.1     1  LIG1       -0.1139
     46 H          -7.6875    8.9361   -3.0730 H       1  LIG1        0.1232
     47 C          -8.1987   11.7003    0.2180 C.ar    1  LIG1        0.1247
     48 C          -7.1034   12.4401   -0.2821 C.ar    1  LIG1        0.0246
     49 C          -7.3548   13.6969   -0.8066 C.ar    1  LIG1       -0.0279
     50 C          -8.6524   14.2157   -0.8430 C.ar    1  LIG1        0.0517
     51 C          -9.6592   13.4038   -0.3115 C.ar    1  LIG1        0.0963
     52 N          -9.4275   12.1928    0.1919 N.ar    1  LIG1       -0.2299
     53 H          -6.5287   14.2778   -1.2022 H       1  LIG1        0.0644
     54 N          -8.0344   10.4680    0.8303 N.pl3   1  LIG1       -0.3426
     55 H          -8.9213   10.0048    0.9766 H       1  LIG1        0.1437
     56 H          -7.3245    9.8686    0.4332 H       1  LIG1        0.1437
     57 N          -8.9173   15.5013   -1.3473 N.pl3   1  LIG1       -0.3563
     58 H          -8.2059   15.8294   -1.9878 H       1  LIG1        0.1424
     59 H          -9.8389   15.5881   -1.7596 H       1  LIG1        0.1424
     60 C         -12.1276   13.1320   -0.8182 C.ar    1  LIG1        0.1230
     61 C         -11.0738   13.8813   -0.2734 C.ar    1  LIG1        0.0361
     62 C         -11.4019   15.0881    0.3433 C.ar    1  LIG1       -0.0478
     63 C         -12.7259   15.4969    0.4037 C.ar    1  LIG1       -0.0350
     64 C         -13.7019   14.6800   -0.1754 C.ar    1  LIG1        0.0736
     65 N         -13.3999   13.5236   -0.7631 N.ar    1  LIG1       -0.2377
     66 H         -10.6139   15.6905    0.7783 H       1  LIG1        0.0626
     67 C         -11.8747   11.8840   -1.5157 C.1     1  LIG1       -0.0491
     68 C         -11.6807   10.8636   -2.1170 C.1     1  LIG1       -0.1124
     69 H         -11.5133    9.9552   -2.6470 H       1  LIG1        0.1232
     70 H         -13.0043   16.4162    0.8967 H       1  LIG1        0.0639
     71 C         -15.6686   16.3165   -0.2016 C.ar    1  LIG1        0.0345
     72 C         -17.0483   16.5363   -0.1319 C.ar    1  LIG1       -0.0366
     73 C         -15.1590   15.0101   -0.1217 C.ar    1  LIG1        0.0158
     74 C         -17.9373   15.4757    0.0287 C.ar    1  LIG1       -0.0001
     75 H         -17.4238   17.5453   -0.2353 H       1  LIG1        0.0636
     76 C         -16.0595   13.9501    0.0093 C.ar    1  LIG1       -0.0508
     77 C         -17.4248   14.1743    0.0981 C.ar    1  LIG1       -0.0519
     78 H         -15.6592   12.9460    0.0514 H       1  LIG1        0.0625
     79 C         -14.8293   17.4745   -0.4262 C.1     1  LIG1       -0.0690
     80 C         -14.1865   18.4708   -0.6263 C.1     1  LIG1       -0.1139
     81 H         -13.6102   19.3473   -0.8133 H       1  LIG1        0.1232
     82 H         -18.0983   13.3406    0.2541 H       1  LIG1        0.0624
     83 C         -19.3875   15.7258    0.1108 C.ar    1  LIG1        0.0530
     84 C         -20.0931   16.7236    0.7544 C.ar    1  LIG1        0.0164
     85 C         -21.4702   16.4332    0.5311 C.ar    1  LIG1        0.1408
     86 C         -21.5642   15.2955   -0.2329 C.ar    1  LIG1        0.0446
     87 N         -20.2886   14.8713   -0.4686 N.ar    1  LIG1       -0.3574
     88 H         -20.0299   14.1044   -1.0682 H       1  LIG1        0.1655
     89 H         -22.4279   14.7705   -0.6001 H       1  LIG1        0.0844
     90 C         -19.5748   17.8455    1.6193 C.3     1  LIG1       -0.0342
     91 H         -20.3278   18.0804    2.3726 H       1  LIG1        0.0279
     92 H         -19.3782   18.7497    1.0382 H       1  LIG1        0.0279
     93 H         -18.6519   17.5493    2.1188 H       1  LIG1        0.0279
     94 O         -22.5203   17.1546    1.0306 O.3     1  LIG1       -0.4933
     95 C         -22.8162   18.3135    0.2614 C.3     1  LIG1        0.0789
     96 H         -23.6370   18.8208    0.7637 H       1  LIG1        0.0660
     97 H         -21.9464   18.9728    0.2102 H       1  LIG1        0.0660
     98 H         -23.1135   18.0283   -0.7504 H       1  LIG1        0.0660
@<TRIPOS>BOND
     1    46    45    1
     2    69    68    1
     3    45    44    3
     4    68    67    3
     5    58    57    1
     6    10    11    3
     7    44    38    1
     8    59    57    1
     9    67    60    1
    10    39    37    1
    11    57    50    1
    12    53    49    1
    13    88    87    1
    14    11     3    1
    15    31    30    1
    16    38    37   ar
    17    38    35   ar
    18    37    34   ar
    19    50    49   ar
    20    50    51   ar
    21    60    65   ar
    22    60    61   ar
    23    81    80    1
    24    49    48   ar
    25    65    64   ar
    26    98    95    1
    27    80    79    3
    28    89    86    1
    29    30    26    1
    30     9     7    1
    31    87    86   ar
    32    87    83   ar
    33    79    71    1
    34    29    25    1
    35    51    61    1
    36    51    52   ar
    37    26    25   ar
    38    26    27   ar
    39    48    35    1
    40    48    47   ar
    41    61    62   ar
    42    75    72    1
    43    86    85   ar
    44    25    24   ar
    45    35    33   ar
    46    71    72   ar
    47    71    73   ar
    48    64    73    1
    49    64    63   ar
    50    72    74   ar
    51    73    76   ar
    52    34    27    1
    53    34    32   ar
    54    16    13    1
    55    27    28   ar
    56    76    78    1
    57    76    77   ar
    58    24    28   ar
    59    24    15    1
    60    74    77   ar
    61    74    83    1
    62     3     2   ar
    63     3     4   ar
    64    77    82    1
    65    83    84   ar
    66    13    15   ar
    67    13    12   ar
    68    22    21    1
    69    52    47   ar
    70    21    20    3
    71    15    18   ar
    72    97    95    1
    73    47    54    1
    74    20    12    1
    75    95    96    1
    76    95    94    1
    77    12    14   ar
    78    62    63   ar
    79    62    66    1
    80     7     8    1
    81     7     2    1
    82    63    70    1
    83    56    54    1
    84    18    23    1
    85    18    17   ar
    86    14    17   ar
    87    14     4    1
    88    85    84   ar
    89    85    94    1
    90    33    32   ar
    91    33    36    1
    92    17    19    1
    93    32    40    1
    94     2     1   ar
    95     4     5   ar
    96    84    90    1
    97    54    55    1
    98    92    90    1
    99    42    40    1
   100     1     5   ar
   101     1     6    1
   102    90    93    1
   103    90    91    1
   104    40    41    1
   105    40    43    1
