@<TRIPOS>MOLECULE
mol_data/opt/m06hf/geoms/mol2/12hd12hd12hd.out
 32 34 0 0 0
SMALL
GASTEIGER

@<TRIPOS>ATOM
      1 C           0.3505    1.7465    0.5991 C.ar    1  LIG1        0.1146
      2 C           1.6317    1.7245    0.1572 C.ar    1  LIG1        0.0812
      3 C           1.9245    3.0921   -0.2083 C.ar    1  LIG1        0.1211
      4 C           0.7964    3.8238    0.0626 C.ar    1  LIG1        0.1907
      5 O          -0.1445    3.0173    0.5501 O.2     1  LIG1       -0.4565
      6 H          -0.3088    0.9849    0.9712 H       1  LIG1        0.1049
      7 N           2.5488    0.6797    0.0965 N.pl3   1  LIG1       -0.3545
      8 H           2.1332   -0.2400    0.1479 H       1  LIG1        0.1424
      9 H           3.1975    0.7522   -0.6770 H       1  LIG1        0.1424
     10 N           4.1001    3.9616   -1.2797 N.1     1  LIG1       -0.1907
     11 C           3.1296    3.5697   -0.8022 C.1     1  LIG1        0.1049
     12 C           0.4857    5.2294   -0.0540 C.ar    1  LIG1        0.1938
     13 C           1.2460    6.3699   -0.0339 C.ar    1  LIG1        0.0925
     14 C           0.2877    7.4453   -0.1536 C.ar    1  LIG1        0.1219
     15 C          -0.9598    6.8735   -0.2069 C.ar    1  LIG1        0.1917
     16 O          -0.8437    5.5514   -0.1554 O.2     1  LIG1       -0.4453
     17 N           2.5902    6.5563    0.1339 N.pl3   1  LIG1       -0.3539
     18 H           3.2220    5.8322   -0.1781 H       1  LIG1        0.1425
     19 H           2.9251    7.4953   -0.0249 H       1  LIG1        0.1425
     20 N           0.8698    9.9471   -0.3405 N.1     1  LIG1       -0.1907
     21 C           0.6076    8.8300   -0.2592 C.1     1  LIG1        0.1050
     22 C          -2.2905    7.4239   -0.2885 C.ar    1  LIG1        0.1928
     23 C          -2.8387    8.6406    0.0420 C.ar    1  LIG1        0.0917
     24 C          -4.2501    8.4842   -0.2397 C.ar    1  LIG1        0.1107
     25 C          -4.4259    7.2146   -0.6956 C.ar    1  LIG1        0.1119
     26 O          -3.2687    6.5736   -0.7316 O.2     1  LIG1       -0.4566
     27 H          -5.3046    6.6829   -1.0177 H       1  LIG1        0.1043
     28 N          -2.2956    9.7612    0.5931 N.pl3   1  LIG1       -0.3540
     29 H          -1.3150    9.9606    0.4636 H       1  LIG1        0.1425
     30 H          -2.8964   10.5708    0.6437 H       1  LIG1        0.1425
     31 N          -5.9905   10.3533    0.1088 N.1     1  LIG1       -0.1907
     32 C          -5.2393    9.5012   -0.0545 C.1     1  LIG1        0.1042
@<TRIPOS>BOND
     1    10    11    3
     2    27    25    1
     3    11     3    1
     4    26    25   ar
     5    26    22   ar
     6    25    24   ar
     7     9     7    1
     8    20    21    3
     9    22    15    1
    10    22    23   ar
    11    21    14    1
    12    24    32    1
    13    24    23   ar
    14     3     4   ar
    15     3     2   ar
    16    15    16   ar
    17    15    14   ar
    18    18    17    1
    19    16    12   ar
    20    14    13   ar
    21    32    31    3
    22    12    13   ar
    23    12     4    1
    24    13    17    1
    25    19    17    1
    26    23    28    1
    27     4     5   ar
    28     7     8    1
    29     7     2    1
    30     2     1   ar
    31    29    28    1
    32     5     1   ar
    33    28    30    1
    34     1     6    1
