@<TRIPOS>MOLECULE
mol_data/opt/m06hf/geoms/mol2/12hd12hd-12hd-12hd-.out
 42 45 0 0 0
SMALL
GASTEIGER

@<TRIPOS>ATOM
      1 C           0.1319    1.7409    0.1089 C.ar    1  LIG1        0.1146
      2 C           1.4860    1.7330    0.0751 C.ar    1  LIG1        0.0812
      3 C           1.8822    3.1260    0.0303 C.ar    1  LIG1        0.1211
      4 C           0.7251    3.8546    0.0432 C.ar    1  LIG1        0.1907
      5 O          -0.3296    3.0342    0.0901 O.2     1  LIG1       -0.4565
      6 H          -0.6073    0.9639    0.1609 H       1  LIG1        0.1049
      7 N           2.3787    0.6713    0.1381 N.pl3   1  LIG1       -0.3545
      8 H           2.0203   -0.2075   -0.2071 H       1  LIG1        0.1424
      9 H           3.2942    0.8854   -0.2349 H       1  LIG1        0.1424
     10 N           4.3327    3.9064   -0.1326 N.1     1  LIG1       -0.1907
     11 C           3.2292    3.5975   -0.0506 C.1     1  LIG1        0.1049
     12 C           0.4639    5.2648   -0.0017 C.ar    1  LIG1        0.1938
     13 C          -0.7000    5.9780   -0.0587 C.ar    1  LIG1        0.0925
     14 C          -0.2825    7.3579   -0.1344 C.ar    1  LIG1        0.1219
     15 C           1.0965    7.3612   -0.1075 C.ar    1  LIG1        0.1918
     16 O           1.5371    6.1077   -0.0257 O.2     1  LIG1       -0.4453
     17 N          -1.9941    5.5374   -0.0035 N.pl3   1  LIG1       -0.3539
     18 H          -2.6979    6.1472   -0.3921 H       1  LIG1        0.1425
     19 H          -2.1374    4.5499   -0.1537 H       1  LIG1        0.1425
     20 N          -1.8827    9.3586   -0.3896 N.1     1  LIG1       -0.1907
     21 C          -1.1604    8.4712   -0.2680 C.1     1  LIG1        0.1050
     22 C           2.1077    8.3805   -0.1408 C.ar    1  LIG1        0.1939
     23 C           2.1215    9.7563   -0.0923 C.ar    1  LIG1        0.0925
     24 C           3.5218   10.1072   -0.1612 C.ar    1  LIG1        0.1219
     25 C           4.2338    8.9306   -0.2207 C.ar    1  LIG1        0.1917
     26 O           3.3941    7.9065   -0.2128 O.2     1  LIG1       -0.4453
     27 N           1.1274   10.6685    0.0335 N.pl3   1  LIG1       -0.3539
     28 H           1.3644   11.6406   -0.0854 H       1  LIG1        0.1425
     29 H           0.1616   10.4143   -0.1032 H       1  LIG1        0.1425
     30 N           4.4120   12.5191   -0.2793 N.1     1  LIG1       -0.1907
     31 C           4.0244   11.4375   -0.2230 C.1     1  LIG1        0.1050
     32 C           5.6366    8.6144   -0.2657 C.ar    1  LIG1        0.1928
     33 C           6.7920    9.3066    0.0198 C.ar    1  LIG1        0.0917
     34 C           7.8454    8.3300   -0.1586 C.ar    1  LIG1        0.1107
     35 C           7.2458    7.1601   -0.5166 C.ar    1  LIG1        0.1119
     36 O           5.9374    7.3181   -0.5875 O.2     1  LIG1       -0.4566
     37 H           7.6412    6.1837   -0.7390 H       1  LIG1        0.1043
     38 N           7.0064   10.5761    0.4499 N.pl3   1  LIG1       -0.3540
     39 H           7.9645   10.8875    0.4956 H       1  LIG1        0.1425
     40 H           6.3100   11.2927    0.3134 H       1  LIG1        0.1425
     41 N          10.3393    8.8796    0.1856 N.1     1  LIG1       -0.1907
     42 C           9.2380    8.5976    0.0266 C.1     1  LIG1        0.1042
@<TRIPOS>BOND
     1    37    35    1
     2    36    35   ar
     3    36    32   ar
     4    35    34   ar
     5    18    17    1
     6    20    21    3
     7    30    31    3
     8    21    14    1
     9    32    25    1
    10    32    33   ar
    11     9     7    1
    12    31    24    1
    13    25    26   ar
    14    25    24   ar
    15    26    22   ar
    16     8     7    1
    17    24    23   ar
    18    34    33   ar
    19    34    42    1
    20    19    17    1
    21    22    15    1
    22    22    23   ar
    23    14    15   ar
    24    14    13   ar
    25    10    11    3
    26    15    16   ar
    27    29    27    1
    28    23    27    1
    29    28    27    1
    30    13    17    1
    31    13    12   ar
    32    11     3    1
    33    16    12   ar
    34    12     4    1
    35    33    38    1
    36    42    41    3
    37     3     4   ar
    38     3     2   ar
    39     4     5   ar
    40     2     1   ar
    41     2     7    1
    42     5     1   ar
    43     1     6    1
    44    40    38    1
    45    38    39    1
