@<TRIPOS>MOLECULE
mol_data/opt/m06hf/geoms/mol2/12hd12hd-.out
 22 23 0 0 0
SMALL
GASTEIGER

@<TRIPOS>ATOM
      1 C           0.1543    1.8522   -0.1122 C.ar    1  LIG1        0.1146
      2 C           1.5070    1.7987   -0.0700 C.ar    1  LIG1        0.0812
      3 C           1.9483    3.1780   -0.0219 C.ar    1  LIG1        0.1211
      4 C           0.8177    3.9459   -0.0389 C.ar    1  LIG1        0.1907
      5 O          -0.2627    3.1594   -0.0926 O.2     1  LIG1       -0.4565
      6 H          -0.6118    1.1004   -0.1423 H       1  LIG1        0.1049
      7 N           2.3607    0.7056   -0.0084 N.pl3   1  LIG1       -0.3545
      8 H           1.9884   -0.1458   -0.4041 H       1  LIG1        0.1424
      9 H           3.2982    0.9008   -0.3342 H       1  LIG1        0.1424
     10 N           4.4263    3.8790    0.0339 N.1     1  LIG1       -0.1907
     11 C           3.3112    3.6042    0.0154 C.1     1  LIG1        0.1049
     12 C           0.5841    5.3653   -0.0217 C.ar    1  LIG1        0.1928
     13 C          -0.5831    6.0793   -0.0370 C.ar    1  LIG1        0.0917
     14 C          -0.1602    7.4613   -0.0213 C.ar    1  LIG1        0.1107
     15 C           1.2020    7.4542    0.0048 C.ar    1  LIG1        0.1119
     16 O           1.6565    6.2073    0.0063 O.2     1  LIG1       -0.4566
     17 H           1.9252    8.2506    0.0229 H       1  LIG1        0.1043
     18 N          -1.8769    5.6390   -0.0106 N.pl3   1  LIG1       -0.3540
     19 H          -2.5838    6.2869   -0.3237 H       1  LIG1        0.1425
     20 H          -2.0299    4.6666   -0.2312 H       1  LIG1        0.1425
     21 N          -1.7822    9.4653   -0.0612 N.1     1  LIG1       -0.1907
     22 C          -1.0368    8.5926   -0.0389 C.1     1  LIG1        0.1042
@<TRIPOS>BOND
     1     8     7    1
     2     9     7    1
     3    19    18    1
     4    20    18    1
     5     6     1    1
     6     1     5   ar
     7     1     2   ar
     8     5     4   ar
     9     2     3   ar
    10     2     7    1
    11    21    22    3
    12    22    14    1
    13     4     3   ar
    14     4    12    1
    15    13    12   ar
    16    13    14   ar
    17    13    18    1
    18     3    11    1
    19    12    16   ar
    20    14    15   ar
    21    15    16   ar
    22    15    17    1
    23    11    10    3
