@<TRIPOS>MOLECULE
mol_data/opt/m06hf/geoms/mol2/12hd12hd-4hd12hd.out
 45 48 0 0 0
SMALL
GASTEIGER

@<TRIPOS>ATOM
      1 C          -0.0182    1.6861   -0.3307 C.ar    1  LIG1        0.1146
      2 C           1.3324    1.6069   -0.2717 C.ar    1  LIG1        0.0812
      3 C           1.7935    2.9762   -0.1739 C.ar    1  LIG1        0.1211
      4 C           0.6745    3.7649   -0.1821 C.ar    1  LIG1        0.1907
      5 O          -0.4162    2.9999   -0.2744 O.2     1  LIG1       -0.4565
      6 H          -0.7960    0.9494   -0.4008 H       1  LIG1        0.1049
      7 N           2.1659    0.4975   -0.2236 N.pl3   1  LIG1       -0.3545
      8 H           1.7507   -0.3587   -0.5628 H       1  LIG1        0.1424
      9 H           3.0850    0.6541   -0.6161 H       1  LIG1        0.1424
     10 N           4.2327    3.7792    0.0333 N.1     1  LIG1       -0.1907
     11 C           3.1431    3.4238   -0.0594 C.1     1  LIG1        0.1049
     12 C           0.4870    5.1832   -0.0990 C.ar    1  LIG1        0.1937
     13 C          -0.6419    5.9448    0.0235 C.ar    1  LIG1        0.0924
     14 C          -0.1625    7.3032    0.1013 C.ar    1  LIG1        0.1188
     15 C           1.2094    7.2651    0.0102 C.ar    1  LIG1        0.1568
     16 O           1.5951    5.9873   -0.1066 O.2     1  LIG1       -0.4484
     17 N          -1.9418    5.5578    0.1257 N.pl3   1  LIG1       -0.3539
     18 H          -2.6523    6.2601   -0.0094 H       1  LIG1        0.1425
     19 H          -2.1727    4.6094   -0.1231 H       1  LIG1        0.1425
     20 N          -1.7730    9.2906    0.4031 N.1     1  LIG1       -0.1907
     21 C          -1.0258    8.4275    0.2762 C.1     1  LIG1        0.1049
     22 C           3.5866    8.0630    0.3269 C.ar    1  LIG1        0.0361
     23 C           4.4718    9.1651    0.3487 C.ar    1  LIG1       -0.0284
     24 C           2.2250    8.3169    0.0045 C.ar    1  LIG1        0.0405
     25 C           4.0615   10.4490    0.0420 C.ar    1  LIG1        0.0382
     26 H           5.5011    8.9994    0.6457 H       1  LIG1        0.0644
     27 C           1.8246    9.6181   -0.3117 C.ar    1  LIG1       -0.0312
     28 C           2.7115   10.6821   -0.3021 C.ar    1  LIG1        0.0633
     29 H           0.7969    9.8110   -0.5902 H       1  LIG1        0.0638
     30 N           4.0619    6.8423    0.6475 N.pl3   1  LIG1       -0.3574
     31 H           3.5227    6.0010    0.5259 H       1  LIG1        0.1423
     32 H           5.0443    6.7243    0.8312 H       1  LIG1        0.1423
     33 N           1.8292   13.0029   -1.0456 N.1     1  LIG1       -0.1908
     34 C           2.2362   11.9855   -0.7042 C.1     1  LIG1        0.0999
     35 C           5.0565   11.5213    0.0701 C.ar    1  LIG1        0.1579
     36 C           6.3976   11.5088   -0.1868 C.ar    1  LIG1        0.0886
     37 C           6.8372   12.8638    0.0378 C.ar    1  LIG1        0.1106
     38 C           5.7326   13.5733    0.4019 C.ar    1  LIG1        0.1118
     39 O           4.6703   12.7809    0.4196 O.2     1  LIG1       -0.4597
     40 H           5.5900   14.6083    0.6589 H       1  LIG1        0.1043
     41 N           7.2091   10.4437   -0.5604 N.pl3   1  LIG1       -0.3540
     42 H           6.7598    9.7936   -1.1948 H       1  LIG1        0.1425
     43 H           8.1175   10.7347   -0.9015 H       1  LIG1        0.1425
     44 N           9.2736   13.6459   -0.2793 N.1     1  LIG1       -0.1907
     45 C           8.1801   13.3318   -0.1252 C.1     1  LIG1        0.1042
@<TRIPOS>BOND
     1    42    41    1
     2    33    34    3
     3    43    41    1
     4    34    28    1
     5     9     7    1
     6    29    27    1
     7     8     7    1
     8    41    36    1
     9     6     1    1
    10     1     5   ar
    11     1     2   ar
    12    27    28   ar
    13    27    24   ar
    14    28    25   ar
    15    44    45    3
    16     5     4   ar
    17     2     7    1
    18     2     3   ar
    19    36    37   ar
    20    36    35   ar
    21     4     3   ar
    22     4    12    1
    23     3    11    1
    24    45    37    1
    25    19    17    1
    26    16    12   ar
    27    16    15   ar
    28    12    13   ar
    29    11    10    3
    30    18    17    1
    31    24    15    1
    32    24    22   ar
    33    15    14   ar
    34    13    14   ar
    35    13    17    1
    36    37    38   ar
    37    25    35    1
    38    25    23   ar
    39    35    39   ar
    40    14    21    1
    41    21    20    3
    42    22    23   ar
    43    22    30    1
    44    23    26    1
    45    38    39   ar
    46    38    40    1
    47    31    30    1
    48    30    32    1
