@<TRIPOS>MOLECULE
mol_data/opt/m06hf/geoms/mol2/12hd12hd-12hd.out
 32 34 0 0 0
SMALL
GASTEIGER

@<TRIPOS>ATOM
      1 C           0.1632    1.7934   -0.1606 C.ar    1  LIG1        0.1146
      2 C           1.5157    1.7849   -0.1026 C.ar    1  LIG1        0.0812
      3 C           1.9067    3.1780   -0.0363 C.ar    1  LIG1        0.1211
      4 C           0.7486    3.9083   -0.0616 C.ar    1  LIG1        0.1907
      5 O          -0.3023    3.0869   -0.1330 O.2     1  LIG1       -0.4565
      6 H          -0.5762    1.0167   -0.2066 H       1  LIG1        0.1049
      7 N           2.4040    0.7191   -0.0362 N.pl3   1  LIG1       -0.3545
      8 H           2.0386   -0.1574   -0.3807 H       1  LIG1        0.1424
      9 H           3.3199    0.9224   -0.4139 H       1  LIG1        0.1424
     10 N           4.3019    4.1181    0.0829 N.1     1  LIG1       -0.1907
     11 C           3.2319    3.7003    0.0342 C.1     1  LIG1        0.1049
     12 C           0.4993    5.3164   -0.0382 C.ar    1  LIG1        0.1938
     13 C          -0.6618    6.0401   -0.0282 C.ar    1  LIG1        0.0925
     14 C          -0.2454    7.4228   -0.0163 C.ar    1  LIG1        0.1219
     15 C           1.1284    7.4184   -0.0201 C.ar    1  LIG1        0.1917
     16 O           1.5818    6.1616   -0.0298 O.2     1  LIG1       -0.4453
     17 N          -1.9506    5.6028    0.0124 N.pl3   1  LIG1       -0.3539
     18 H          -2.6727    6.2647   -0.2262 H       1  LIG1        0.1425
     19 H          -2.1213    4.6349   -0.2116 H       1  LIG1        0.1425
     20 N          -1.9056    9.3901   -0.0369 N.1     1  LIG1       -0.1907
     21 C          -1.1337    8.5399   -0.0226 C.1     1  LIG1        0.1050
     22 C           2.1145    8.4505   -0.0271 C.ar    1  LIG1        0.1928
     23 C           3.4884    8.3831   -0.0851 C.ar    1  LIG1        0.0917
     24 C           3.9074    9.7702   -0.0781 C.ar    1  LIG1        0.1107
     25 C           2.7760   10.5255   -0.0178 C.ar    1  LIG1        0.1119
     26 O           1.7000    9.7536    0.0137 O.2     1  LIG1       -0.4566
     27 H           2.6272   11.5913    0.0089 H       1  LIG1        0.1043
     28 N           4.3103    7.3183   -0.1566 N.pl3   1  LIG1       -0.3540
     29 H           3.9666    6.3731   -0.0661 H       1  LIG1        0.1425
     30 H           5.3063    7.4604   -0.1187 H       1  LIG1        0.1425
     31 N           6.3701   10.5301   -0.1519 N.1     1  LIG1       -0.1907
     32 C           5.2653   10.2199   -0.1204 C.1     1  LIG1        0.1042
@<TRIPOS>BOND
     1     9     7    1
     2     8     7    1
     3    18    17    1
     4    19    17    1
     5     6     1    1
     6     1     5   ar
     7     1     2   ar
     8    28    30    1
     9    28    23    1
    10    28    29    1
    11    31    32    3
    12     5     4   ar
    13    32    24    1
    14     2     3   ar
    15     2     7    1
    16    23    24   ar
    17    23    22   ar
    18    24    25   ar
    19     4    12    1
    20     4     3   ar
    21    12    16   ar
    22    12    13   ar
    23    20    21    3
    24     3    11    1
    25    16    15   ar
    26    13    14   ar
    27    13    17    1
    28    22    15    1
    29    22    26   ar
    30    21    14    1
    31    15    14   ar
    32    25    27    1
    33    25    26   ar
    34    11    10    3
