@<TRIPOS>MOLECULE
mol_data/opt/m06hf/geoms/mol2/12hd12hd12hd-12hd.out
 42 45 0 0 0
SMALL
GASTEIGER

@<TRIPOS>ATOM
      1 C           0.3015    1.7290    0.3436 C.ar    1  LIG1        0.1146
      2 C           1.6019    1.7188   -0.0327 C.ar    1  LIG1        0.0812
      3 C           1.9369    3.1063   -0.2688 C.ar    1  LIG1        0.1211
      4 C           0.8089    3.8381    0.0046 C.ar    1  LIG1        0.1907
      5 O          -0.1727    3.0121    0.3729 O.2     1  LIG1       -0.4565
      6 H          -0.3888    0.9531    0.6173 H       1  LIG1        0.1049
      7 N           2.5040    0.6653   -0.1333 N.pl3   1  LIG1       -0.3545
      8 H           2.0734   -0.2467   -0.1980 H       1  LIG1        0.1424
      9 H           3.2091    0.7977   -0.8471 H       1  LIG1        0.1424
     10 N           4.1709    4.0147   -1.1713 N.1     1  LIG1       -0.1907
     11 C           3.1758    3.6036   -0.7661 C.1     1  LIG1        0.1049
     12 C           0.5173    5.2480   -0.0154 C.ar    1  LIG1        0.1938
     13 C           1.2747    6.3901    0.0688 C.ar    1  LIG1        0.0925
     14 C           0.3182    7.4751    0.0452 C.ar    1  LIG1        0.1219
     15 C          -0.9286    6.9067   -0.0371 C.ar    1  LIG1        0.1918
     16 O          -0.8216    5.5795   -0.0786 O.2     1  LIG1       -0.4453
     17 N           2.6156    6.5673    0.2304 N.pl3   1  LIG1       -0.3539
     18 H           3.2531    5.8444   -0.0700 H       1  LIG1        0.1425
     19 H           2.9590    7.5100    0.1254 H       1  LIG1        0.1425
     20 N           0.8333    9.9941    0.1839 N.1     1  LIG1       -0.1907
     21 C           0.6020    8.8694    0.1209 C.1     1  LIG1        0.1050
     22 C          -2.2377    7.4584   -0.0857 C.ar    1  LIG1        0.1939
     23 C          -3.4697    6.8537   -0.1343 C.ar    1  LIG1        0.0925
     24 C          -4.4201    7.9402   -0.1520 C.ar    1  LIG1        0.1219
     25 C          -3.6876    9.1038   -0.1147 C.ar    1  LIG1        0.1917
     26 O          -2.3815    8.8253   -0.0748 O.2     1  LIG1       -0.4453
     27 N          -3.7718    5.5378   -0.1847 N.pl3   1  LIG1       -0.3539
     28 H          -4.7308    5.2529   -0.0712 H       1  LIG1        0.1425
     29 H          -3.0396    4.8576   -0.0536 H       1  LIG1        0.1425
     30 N          -6.9654    7.5703   -0.2383 N.1     1  LIG1       -0.1907
     31 C          -5.8365    7.7787   -0.1999 C.1     1  LIG1        0.1050
     32 C          -4.0381   10.4850   -0.1145 C.ar    1  LIG1        0.1928
     33 C          -3.2428   11.6098   -0.0778 C.ar    1  LIG1        0.0917
     34 C          -4.1875   12.7076   -0.1074 C.ar    1  LIG1        0.1107
     35 C          -5.4324   12.1569   -0.1593 C.ar    1  LIG1        0.1119
     36 O          -5.3600   10.8342   -0.1642 O.2     1  LIG1       -0.4566
     37 H          -6.4106   12.6049   -0.1949 H       1  LIG1        0.1043
     38 N          -1.9043   11.7289   -0.0352 N.pl3   1  LIG1       -0.3540
     39 H          -1.2987   10.9230    0.0181 H       1  LIG1        0.1425
     40 H          -1.4856   12.6426    0.0224 H       1  LIG1        0.1425
     41 N          -3.4901   15.1884   -0.0646 N.1     1  LIG1       -0.1907
     42 C          -3.8333   14.0933   -0.0849 C.1     1  LIG1        0.1042
@<TRIPOS>BOND
     1    10    11    3
     2     9     7    1
     3    11     3    1
     4     3     2   ar
     5     3     4   ar
     6    30    31    3
     7    31    24    1
     8     8     7    1
     9    37    35    1
    10    27    23    1
    11    27    28    1
    12    27    29    1
    13    36    35   ar
    14    36    32   ar
    15    35    34   ar
    16    24    23   ar
    17    24    25   ar
    18    23    22   ar
    19     7     2    1
    20    25    32    1
    21    25    26   ar
    22    32    33   ar
    23    34    42    1
    24    34    33   ar
    25    22    26   ar
    26    22    15    1
    27    42    41    3
    28    16    15   ar
    29    16    12   ar
    30    33    38    1
    31    18    17    1
    32    15    14   ar
    33    38    39    1
    34    38    40    1
    35     2     1   ar
    36    12     4    1
    37    12    13   ar
    38     4     5   ar
    39    14    13   ar
    40    14    21    1
    41    13    17    1
    42    21    20    3
    43    19    17    1
    44     1     5   ar
    45     1     6    1
