@<TRIPOS>MOLECULE
mol_data/opt/m06hf/geoms/mol2/12hd12hd12hd-12hd-.out
 42 45 0 0 0
SMALL
GASTEIGER

@<TRIPOS>ATOM
      1 C           0.1760    1.7423    0.2772 C.ar    1  LIG1        0.1146
      2 C           1.5000    1.6773   -0.0009 C.ar    1  LIG1        0.0812
      3 C           1.9173    3.0520   -0.1755 C.ar    1  LIG1        0.1211
      4 C           0.8068    3.8316    0.0293 C.ar    1  LIG1        0.1907
      5 O          -0.2381    3.0468    0.3002 O.2     1  LIG1       -0.4565
      6 H          -0.5671    0.9948    0.4817 H       1  LIG1        0.1049
      7 N           2.3538    0.5820   -0.0633 N.pl3   1  LIG1       -0.3545
      8 H           1.8927   -0.2973   -0.2515 H       1  LIG1        0.1424
      9 H           3.1556    0.7218   -0.6646 H       1  LIG1        0.1424
     10 N           4.2521    3.8518   -0.9113 N.1     1  LIG1       -0.1907
     11 C           3.2112    3.4942   -0.5762 C.1     1  LIG1        0.1049
     12 C           0.5780    5.2529    0.0233 C.ar    1  LIG1        0.1938
     13 C           1.3725    6.3639    0.1618 C.ar    1  LIG1        0.0925
     14 C           0.4597    7.4877    0.1205 C.ar    1  LIG1        0.1219
     15 C          -0.8001    6.9700   -0.0251 C.ar    1  LIG1        0.1918
     16 O          -0.7397    5.6382   -0.0913 O.2     1  LIG1       -0.4453
     17 N           2.7097    6.4925    0.3773 N.pl3   1  LIG1       -0.3539
     18 H           3.3392    5.7586    0.0874 H       1  LIG1        0.1425
     19 H           3.0821    7.4295    0.3341 H       1  LIG1        0.1425
     20 N           1.2439    9.9328    0.3060 N.1     1  LIG1       -0.1907
     21 C           0.8538    8.8558    0.2227 C.1     1  LIG1        0.1050
     22 C          -2.1077    7.5365   -0.1229 C.ar    1  LIG1        0.1939
     23 C          -3.3248    6.9132   -0.2366 C.ar    1  LIG1        0.0925
     24 C          -4.2746    7.9948   -0.3352 C.ar    1  LIG1        0.1219
     25 C          -3.5583    9.1681   -0.2519 C.ar    1  LIG1        0.1917
     26 O          -2.2625    8.8945   -0.1249 O.2     1  LIG1       -0.4453
     27 N          -3.6171    5.5895   -0.2352 N.pl3   1  LIG1       -0.3539
     28 H          -4.5367    5.2932   -0.5170 H       1  LIG1        0.1425
     29 H          -2.8584    4.9268   -0.2875 H       1  LIG1        0.1425
     30 N          -6.8014    7.7225   -0.7437 N.1     1  LIG1       -0.1907
     31 C          -5.6729    7.8492   -0.5609 C.1     1  LIG1        0.1050
     32 C          -3.9462   10.5537   -0.2550 C.ar    1  LIG1        0.1928
     33 C          -5.1151   11.2158    0.0443 C.ar    1  LIG1        0.0917
     34 C          -4.7775   12.6162   -0.0994 C.ar    1  LIG1        0.1107
     35 C          -3.4651   12.6734   -0.4551 C.ar    1  LIG1        0.1119
     36 O          -2.9599   11.4556   -0.5535 O.2     1  LIG1       -0.4566
     37 H          -2.8122   13.5044   -0.6614 H       1  LIG1        0.1043
     38 N          -6.3273   10.7689    0.4667 N.pl3   1  LIG1       -0.3540
     39 H          -7.0645   11.4547    0.5349 H       1  LIG1        0.1425
     40 H          -6.6239    9.8265    0.2624 H       1  LIG1        0.1425
     41 N          -6.4620   14.5286    0.2846 N.1     1  LIG1       -0.1907
     42 C          -5.6873   13.7003    0.1083 C.1     1  LIG1        0.1042
@<TRIPOS>BOND
     1    10    11    3
     2    30    31    3
     3     9     7    1
     4    37    35    1
     5    11     3    1
     6    31    24    1
     7    36    35   ar
     8    36    32   ar
     9    28    27    1
    10    35    34   ar
    11    24    25   ar
    12    24    23   ar
    13    29    27    1
    14    32    25    1
    15    32    33   ar
    16    25    26   ar
    17     8     7    1
    18    23    27    1
    19    23    22   ar
    20     3     2   ar
    21     3     4   ar
    22    26    22   ar
    23    22    15    1
    24    34    33   ar
    25    34    42    1
    26    16    15   ar
    27    16    12   ar
    28     7     2    1
    29    15    14   ar
    30     2     1   ar
    31    12     4    1
    32    12    13   ar
    33     4     5   ar
    34    33    38    1
    35    18    17    1
    36    42    41    3
    37    14    13   ar
    38    14    21    1
    39    13    17    1
    40    21    20    3
    41    40    38    1
    42     1     5   ar
    43     1     6    1
    44    19    17    1
    45    38    39    1
