@<TRIPOS>MOLECULE
mol_data/opt/m06hf/geoms/mol2/12hd12hd-12hd12hd-.out
 42 45 0 0 0
SMALL
GASTEIGER

@<TRIPOS>ATOM
      1 C           0.1348    1.7452   -0.1086 C.ar    1  LIG1        0.1146
      2 C           1.4883    1.7272   -0.0794 C.ar    1  LIG1        0.0812
      3 C           1.8924    3.1180   -0.0635 C.ar    1  LIG1        0.1211
      4 C           0.7389    3.8569   -0.0822 C.ar    1  LIG1        0.1907
      5 O          -0.3201    3.0434   -0.1063 O.2     1  LIG1       -0.4565
      6 H          -0.6114    0.9735   -0.1162 H       1  LIG1        0.1049
      7 N           2.3702    0.6574    0.0040 N.pl3   1  LIG1       -0.3545
      8 H           1.9836   -0.2315   -0.2803 H       1  LIG1        0.1424
      9 H           3.2711    0.8331   -0.4206 H       1  LIG1        0.1424
     10 N           4.2899    4.0581   -0.0261 N.1     1  LIG1       -0.1907
     11 C           3.2207    3.6358   -0.0377 C.1     1  LIG1        0.1049
     12 C           0.5075    5.2680   -0.0824 C.ar    1  LIG1        0.1938
     13 C          -0.6423    6.0106   -0.0856 C.ar    1  LIG1        0.0925
     14 C          -0.2015    7.3847   -0.0869 C.ar    1  LIG1        0.1219
     15 C           1.1770    7.3585   -0.0816 C.ar    1  LIG1        0.1918
     16 O           1.6071    6.0948   -0.0771 O.2     1  LIG1       -0.4453
     17 N          -1.9374    5.5890   -0.0391 N.pl3   1  LIG1       -0.3539
     18 H          -2.6492    6.2443   -0.3228 H       1  LIG1        0.1425
     19 H          -2.1147    4.6159   -0.2359 H       1  LIG1        0.1425
     20 N          -1.6899    9.4846   -0.1031 N.1     1  LIG1       -0.1907
     21 C          -1.0232    8.5477   -0.0928 C.1     1  LIG1        0.1050
     22 C           2.1542    8.3847   -0.0796 C.ar    1  LIG1        0.1939
     23 C           3.5326    8.3413   -0.0725 C.ar    1  LIG1        0.0925
     24 C           3.9452    9.7273   -0.0684 C.ar    1  LIG1        0.1219
     25 C           2.7970   10.4833   -0.0727 C.ar    1  LIG1        0.1917
     26 O           1.7217    9.6930   -0.0800 O.2     1  LIG1       -0.4453
     27 N           4.3612    7.2861   -0.0748 N.pl3   1  LIG1       -0.3539
     28 H           4.0204    6.3356   -0.0513 H       1  LIG1        0.1425
     29 H           5.3563    7.4377   -0.0397 H       1  LIG1        0.1425
     30 N           6.4156   10.4472   -0.0529 N.1     1  LIG1       -0.1907
     31 C           5.3017   10.1674   -0.0599 C.1     1  LIG1        0.1050
     32 C           2.5501   11.8875   -0.0682 C.ar    1  LIG1        0.1928
     33 C           1.3641   12.5892   -0.0666 C.ar    1  LIG1        0.0917
     34 C           1.7789   13.9772   -0.0522 C.ar    1  LIG1        0.1107
     35 C           3.1412   13.9829   -0.0474 C.ar    1  LIG1        0.1119
     36 O           3.6151   12.7464   -0.0573 O.2     1  LIG1       -0.4566
     37 H           3.8526   14.7909   -0.0372 H       1  LIG1        0.1043
     38 N           0.0927   12.1528   -0.0817 N.pl3   1  LIG1       -0.3540
     39 H          -0.6628   12.8171   -0.0419 H       1  LIG1        0.1425
     40 H          -0.1381   11.1700   -0.0724 H       1  LIG1        0.1425
     41 N           0.1393   15.9655   -0.0330 N.1     1  LIG1       -0.1907
     42 C           0.8932   15.1002   -0.0423 C.1     1  LIG1        0.1042
@<TRIPOS>BOND
     1     9     7    1
     2    18    17    1
     3     8     7    1
     4    19    17    1
     5     6     1    1
     6     1     5   ar
     7     1     2   ar
     8     5     4   ar
     9    20    21    3
    10    21    14    1
    11    14    13   ar
    12    14    15   ar
    13    13    12   ar
    14    13    17    1
    15    12     4    1
    16    12    16   ar
    17     4     3   ar
    18    38    40    1
    19    38    33    1
    20    38    39    1
    21    15    22    1
    22    15    16   ar
    23    26    22   ar
    24    26    25   ar
    25    22    23   ar
    26     2     3   ar
    27     2     7    1
    28    27    23    1
    29    27    28    1
    30    27    29    1
    31    25    24   ar
    32    25    32    1
    33    23    24   ar
    34    24    31    1
    35    32    33   ar
    36    32    36   ar
    37    33    34   ar
    38     3    11    1
    39    31    30    3
    40    36    35   ar
    41    34    35   ar
    42    34    42    1
    43    35    37    1
    44    42    41    3
    45    11    10    3
