@<TRIPOS>MOLECULE
mol_data/opt/m06hf/geoms/mol2/12hd12hd.out
 22 23 0 0 0
SMALL
GASTEIGER

@<TRIPOS>ATOM
      1 C           0.1917    1.7912    0.2975 C.ar    1  LIG1        0.1146
      2 C           1.5153    1.7797    0.0053 C.ar    1  LIG1        0.0812
      3 C           1.8555    3.1636   -0.2381 C.ar    1  LIG1        0.1211
      4 C           0.7085    3.8915   -0.0544 C.ar    1  LIG1        0.1907
      5 O          -0.2877    3.0693    0.2690 O.2     1  LIG1       -0.4565
      6 H          -0.5119    1.0179    0.5436 H       1  LIG1        0.1049
      7 N           2.4270    0.7294   -0.0141 N.pl3   1  LIG1       -0.3545
      8 H           2.0073   -0.1856   -0.1018 H       1  LIG1        0.1424
      9 H           3.1832    0.8576   -0.6745 H       1  LIG1        0.1424
     10 N           4.1360    4.0814   -1.0087 N.1     1  LIG1       -0.1907
     11 C           3.1204    3.6649   -0.6648 C.1     1  LIG1        0.1049
     12 C           0.4280    5.3088   -0.1195 C.ar    1  LIG1        0.1928
     13 C           1.1940    6.4296    0.0758 C.ar    1  LIG1        0.0917
     14 C           0.2662    7.5295   -0.0832 C.ar    1  LIG1        0.1107
     15 C          -0.9530    6.9857   -0.3441 C.ar    1  LIG1        0.1119
     16 O          -0.8692    5.6640   -0.3734 O.2     1  LIG1       -0.4566
     17 H          -1.9158    7.4314   -0.5258 H       1  LIG1        0.1043
     18 N           2.5065    6.5779    0.4321 N.pl3   1  LIG1       -0.3540
     19 H           3.1697    5.8719    0.1448 H       1  LIG1        0.1425
     20 H           2.8600    7.5231    0.3934 H       1  LIG1        0.1425
     21 N           0.9303   10.0125    0.1255 N.1     1  LIG1       -0.1907
     22 C           0.6063    8.9155    0.0286 C.1     1  LIG1        0.1042
@<TRIPOS>BOND
     1    10    11    3
     2     9     7    1
     3    11     3    1
     4    17    15    1
     5    16    15   ar
     6    16    12   ar
     7    15    14   ar
     8     3     4   ar
     9     3     2   ar
    10    12     4    1
    11    12    13   ar
    12     8     7    1
    13    14    22    1
    14    14    13   ar
    15     4     5   ar
    16     7     2    1
    17     2     1   ar
    18    22    21    3
    19    13    18    1
    20    19    18    1
    21     5     1   ar
    22     1     6    1
    23    20    18    1
