@<TRIPOS>MOLECULE
mol_data/opt/m06hf/geoms/mol2/12hd4hl-4de-12af.out
 54 57 0 0 0
SMALL
GASTEIGER

@<TRIPOS>ATOM
      1 C           0.6283    1.7043    0.3290 C.ar    1  LIG1        0.1352
      2 C           1.9713    1.7899    0.2182 C.ar    1  LIG1        0.1728
      3 C           2.2771    3.1923    0.0590 C.ar    1  LIG1        0.1388
      4 C           1.0749    3.8580    0.0898 C.ar    1  LIG1        0.1594
      5 O           0.0977    2.9536    0.2507 O.2     1  LIG1       -0.4577
      6 H          -0.0472    0.8804    0.4564 H       1  LIG1        0.1068
      7 O           2.8616    0.7774    0.2490 O.3     1  LIG1       -0.5028
      8 H           3.7583    1.1215    0.1445 H       1  LIG1        0.2923
      9 N           4.7863    3.7215   -0.1005 N.1     1  LIG1       -0.1906
     10 C           3.6440    3.6023   -0.0452 C.1     1  LIG1        0.1067
     11 C           1.5014    6.2763   -0.3796 C.ar    1  LIG1        0.1317
     12 C           1.0481    7.5891   -0.4293 C.ar    1  LIG1       -0.0049
     13 C           0.6328    5.2565    0.0194 C.ar    1  LIG1        0.0637
     14 C          -0.2667    7.9051   -0.0800 C.ar    1  LIG1        0.0660
     15 H           1.7014    8.3886   -0.7486 H       1  LIG1        0.0662
     16 C          -0.6875    5.5675    0.3541 C.ar    1  LIG1       -0.0050
     17 C          -1.1481    6.8790    0.3106 C.ar    1  LIG1        0.1318
     18 H          -1.3395    4.7627    0.6593 H       1  LIG1        0.0662
     19 O           2.7533    5.8993   -0.7161 O.3     1  LIG1       -0.4944
     20 C           3.7431    6.8900   -0.9359 C.3     1  LIG1        0.0788
     21 H           4.6765    6.3429   -1.0369 H       1  LIG1        0.0660
     22 H           3.5280    7.4486   -1.8494 H       1  LIG1        0.0660
     23 H           3.7946    7.5704   -0.0823 H       1  LIG1        0.0660
     24 O          -2.4108    7.2350    0.6391 O.3     1  LIG1       -0.4944
     25 C          -3.3321    6.2223    0.9899 C.3     1  LIG1        0.0788
     26 H          -4.2755    6.7350    1.1538 H       1  LIG1        0.0660
     27 H          -3.4393    5.4988    0.1766 H       1  LIG1        0.0660
     28 H          -3.0193    5.7097    1.9032 H       1  LIG1        0.0660
     29 C          -0.6637    9.3175   -0.1279 C.ar    1  LIG1        0.1819
     30 C           0.0922   10.4552   -0.1988 C.ar    1  LIG1        0.1818
     31 C          -0.8191   11.5641   -0.2405 C.ar    1  LIG1        0.1127
     32 C          -2.0723   11.0030   -0.2019 C.ar    1  LIG1        0.1575
     33 O          -1.9656    9.6723   -0.1316 O.2     1  LIG1       -0.4496
     34 O           1.4466   10.5448   -0.2372 O.3     1  LIG1       -0.4901
     35 C           2.0272   10.8682    1.0310 C.3     1  LIG1        0.0790
     36 H           3.0992   10.9341    0.8648 H       1  LIG1        0.0660
     37 H           1.6417   11.8259    1.3825 H       1  LIG1        0.0660
     38 H           1.7989   10.0801    1.7512 H       1  LIG1        0.0660
     39 C          -0.4410   12.9395   -0.3370 C.1     1  LIG1       -0.0622
     40 C          -0.0954   14.0889   -0.4057 C.1     1  LIG1       -0.1137
     41 H           0.2094   15.1072   -0.4826 H       1  LIG1        0.1232
     42 C          -4.5613   10.9115   -0.6531 C.ar    1  LIG1        0.1240
     43 C          -3.4135   11.6018   -0.2099 C.ar    1  LIG1        0.0559
     44 C          -3.5618   12.9145    0.2327 C.ar    1  LIG1       -0.0053
     45 C          -4.8214   13.4943    0.2121 C.ar    1  LIG1        0.1356
     46 C          -5.8998   12.7298   -0.2367 C.ar    1  LIG1        0.0704
     47 N          -5.7673   11.4810   -0.6530 N.ar    1  LIG1       -0.2424
     48 H          -2.7172   13.4876    0.5904 H       1  LIG1        0.0662
     49 H          -6.9011   13.1491   -0.2590 H       1  LIG1        0.0867
     50 C          -4.5075    9.5564   -1.1620 C.1     1  LIG1       -0.0491
     51 C          -4.4731    8.4386   -1.5980 C.1     1  LIG1       -0.1124
     52 H          -4.4267    7.4497   -1.9911 H       1  LIG1        0.1232
     53 O          -4.9520   14.7732    0.6404 O.3     1  LIG1       -0.5052
     54 H          -5.8650   15.0714    0.5633 H       1  LIG1        0.2922
@<TRIPOS>BOND
     1    52    51    1
     2    22    20    1
     3    51    50    3
     4    50    42    1
     5    21    20    1
     6    20    19    1
     7    20    23    1
     8    15    12    1
     9    19    11    1
    10    42    47   ar
    11    42    43   ar
    12    47    46   ar
    13    41    40    1
    14    12    11   ar
    15    12    14   ar
    16    40    39    3
    17    11    13   ar
    18    39    31    1
    19    49    46    1
    20    31    32   ar
    21    31    30   ar
    22    34    30    1
    23    34    35    1
    24    46    45   ar
    25    43    32    1
    26    43    44   ar
    27    32    33   ar
    28    30    29   ar
    29    33    29   ar
    30    29    14    1
    31     9    10    3
    32    14    17   ar
    33    10     3    1
    34    13     4    1
    35    13    16   ar
    36     3     4   ar
    37     3     2   ar
    38     4     5   ar
    39     8     7    1
    40    27    25    1
    41    45    44   ar
    42    45    53    1
    43     2     7    1
    44     2     1   ar
    45    44    48    1
    46     5     1   ar
    47    17    16   ar
    48    17    24    1
    49     1     6    1
    50    16    18    1
    51    54    53    1
    52    24    25    1
    53    36    35    1
    54    25    26    1
    55    25    28    1
    56    35    37    1
    57    35    38    1
