@<TRIPOS>MOLECULE
mol_data/opt/m06hf/geoms/mol2/12hd.out
 12 12 0 0 0
SMALL
GASTEIGER

@<TRIPOS>ATOM
      1 C           0.1163    1.8987   -0.0324 C.ar    1  LIG1        0.1136
      2 C           1.4727    1.8649   -0.0479 C.ar    1  LIG1        0.0804
      3 C           1.8796    3.2528   -0.0052 C.ar    1  LIG1        0.1100
      4 C           0.7378    3.9910    0.0319 C.ar    1  LIG1        0.1109
      5 O          -0.3207    3.1892    0.0170 O.2     1  LIG1       -0.4678
      6 H          -0.6355    1.1320   -0.0413 H       1  LIG1        0.1049
      7 H           0.5668    5.0526    0.0666 H       1  LIG1        0.1043
      8 N           2.3470    0.7826   -0.0313 N.pl3   1  LIG1       -0.3545
      9 H           1.9689   -0.0679   -0.4249 H       1  LIG1        0.1424
     10 H           3.2621    0.9951   -0.4073 H       1  LIG1        0.1424
     11 N           4.3283    4.0611   -0.0474 N.1     1  LIG1       -0.1907
     12 C           3.2304    3.7271   -0.0208 C.1     1  LIG1        0.1042
@<TRIPOS>BOND
     1     9     8    1
     2    10     8    1
     3     2     1   ar
     4     2     8    1
     5     2     3   ar
     6    11    12    3
     7     6     1    1
     8     1     5   ar
     9    12     3    1
    10     3     4   ar
    11     5     4   ar
    12     4     7    1
