@<TRIPOS>MOLECULE
mol_data/opt/m06hf/geoms/mol2/12he4hd-13dd-12ld.out
 48 51 0 0 0
SMALL
GASTEIGER

@<TRIPOS>ATOM
      1 C           0.3716    1.4511    0.2822 C.ar    1  LIG1        0.1144
      2 C           1.6599    1.4207   -0.1368 C.ar    1  LIG1        0.0791
      3 C           2.0492    2.8071   -0.2868 C.ar    1  LIG1        0.0910
      4 C           0.9585    3.5569    0.0701 C.ar    1  LIG1        0.1537
      5 O          -0.0494    2.7403    0.4057 O.2     1  LIG1       -0.4597
      6 H          -0.3364    0.6837    0.5338 H       1  LIG1        0.1049
      7 N           2.5128    0.3409   -0.3500 N.pl3   1  LIG1       -0.3546
      8 H           2.0468   -0.5051   -0.6483 H       1  LIG1        0.1424
      9 H           3.2926    0.5713   -0.9529 H       1  LIG1        0.1424
     10 C           3.3124    3.2434   -0.7954 C.1     1  LIG1       -0.0640
     11 C           4.3882    3.5812   -1.2154 C.1     1  LIG1       -0.1137
     12 H           5.3327    3.8906   -1.6013 H       1  LIG1        0.1232
     13 C           1.5861    5.9579    0.5854 C.ar    1  LIG1        0.0361
     14 C           1.1997    7.3152    0.5849 C.ar    1  LIG1       -0.0300
     15 C           0.6683    4.9988    0.0940 C.ar    1  LIG1        0.0404
     16 C          -0.0323    7.7312    0.1149 C.ar    1  LIG1        0.0187
     17 H           1.8958    8.0415    0.9820 H       1  LIG1        0.0643
     18 C          -0.5867    5.4155   -0.3347 C.ar    1  LIG1       -0.0312
     19 C          -0.9490    6.7575   -0.3395 C.ar    1  LIG1        0.0617
     20 H          -1.2926    4.6740   -0.6845 H       1  LIG1        0.0638
     21 N           2.7874    5.6145    1.1046 N.pl3   1  LIG1       -0.3574
     22 H           3.1516    4.6825    0.9877 H       1  LIG1        0.1423
     23 H           3.4482    6.3393    1.3312 H       1  LIG1        0.1423
     24 N          -3.3211    7.4119   -1.1516 N.1     1  LIG1       -0.1908
     25 C          -2.2647    7.1106   -0.8124 C.1     1  LIG1        0.0998
     26 C          -0.3306    9.1796    0.1013 C.ar    1  LIG1        0.0672
     27 C           0.5400   10.2566    0.0264 C.ar    1  LIG1        0.0950
     28 C          -0.2378   11.4497    0.0686 C.ar    1  LIG1        0.0980
     29 C          -1.5600   11.0592    0.1533 C.ar    1  LIG1        0.1051
     30 N          -1.5869    9.7027    0.1752 N.ar    1  LIG1       -0.3496
     31 H          -2.4449    9.1618    0.1977 H       1  LIG1        0.1661
     32 N           3.1114   10.1505   -0.1634 N.1     1  LIG1       -0.1908
     33 C           1.9670   10.2041   -0.0885 C.1     1  LIG1        0.1026
     34 N           0.6870   13.8558    0.1379 N.1     1  LIG1       -0.1908
     35 C           0.2633   12.7902    0.0895 C.1     1  LIG1        0.1027
     36 C          -2.7831   11.8382    0.2069 C.ar    1  LIG1        0.1948
     37 C          -3.1039   13.0774   -0.2529 C.ar    1  LIG1        0.1845
     38 C          -4.4995   13.2636    0.0852 C.ar    1  LIG1        0.1317
     39 C          -4.8953   12.1142    0.6954 C.ar    1  LIG1        0.1137
     40 O          -3.8753   11.2547    0.7691 O.2     1  LIG1       -0.4563
     41 H          -5.8406   11.8018    1.1033 H       1  LIG1        0.1044
     42 O          -2.2925   13.8915   -0.9410 O.3     1  LIG1       -0.4901
     43 C          -2.1124   15.2074   -0.3921 C.3     1  LIG1        0.0790
     44 H          -1.3245   15.6621   -0.9840 H       1  LIG1        0.0660
     45 H          -3.0376   15.7774   -0.4779 H       1  LIG1        0.0660
     46 H          -1.7935   15.1292    0.6472 H       1  LIG1        0.0660
     47 N          -5.9751   15.3176   -0.4268 N.1     1  LIG1       -0.1906
     48 C          -5.3254   14.3999   -0.1988 C.1     1  LIG1        0.1060
@<TRIPOS>BOND
     1    12    11    1
     2    11    10    3
     3    24    25    3
     4    44    43    1
     5     9     7    1
     6    42    43    1
     7    42    37    1
     8    25    19    1
     9    10     3    1
    10    20    18    1
    11     8     7    1
    12    45    43    1
    13    47    48    3
    14    43    46    1
    15     7     2    1
    16    19    18   ar
    17    19    16   ar
    18    18    15   ar
    19     3     2   ar
    20     3     4   ar
    21    37    38   ar
    22    37    36   ar
    23    48    38    1
    24    32    33    3
    25     2     1   ar
    26    33    27    1
    27    27    28   ar
    28    27    26   ar
    29    28    35    1
    30    28    29   ar
    31     4    15    1
    32     4     5   ar
    33    38    39   ar
    34    35    34    3
    35    15    13   ar
    36    26    16    1
    37    26    30   ar
    38    16    14   ar
    39    29    30   ar
    40    29    36    1
    41    30    31    1
    42    36    40   ar
    43     1     5   ar
    44     1     6    1
    45    14    13   ar
    46    14    17    1
    47    13    21    1
    48    39    40   ar
    49    39    41    1
    50    22    21    1
    51    21    23    1
