@<TRIPOS>MOLECULE
mol_data/opt/m06hf/geoms/mol2/12he12ie13dl-6ld-.out
 52 55 0 0 0
SMALL
GASTEIGER

@<TRIPOS>ATOM
      1 C           0.8119    1.9821    1.7738 C.ar    1  LIG1        0.1145
      2 C           1.7968    1.8124    0.8566 C.ar    1  LIG1        0.0792
      3 C           1.9048    3.0795    0.1664 C.ar    1  LIG1        0.0940
      4 C           0.9806    3.9035    0.7474 C.ar    1  LIG1        0.1871
      5 O           0.3195    3.2491    1.7083 O.2     1  LIG1       -0.4567
      6 H           0.3774    1.3325    2.5111 H       1  LIG1        0.1049
      7 N           2.6108    0.7107    0.6024 N.pl3   1  LIG1       -0.3546
      8 H           2.1809   -0.1811    0.8058 H       1  LIG1        0.1424
      9 H           3.0146    0.7310   -0.3254 H       1  LIG1        0.1424
     10 C           2.7595    3.3452   -0.9474 C.1     1  LIG1       -0.0639
     11 C           3.4852    3.5229   -1.8896 C.1     1  LIG1       -0.1137
     12 H           4.1229    3.6919   -2.7264 H       1  LIG1        0.1232
     13 C           0.6358    5.2939    0.4924 C.ar    1  LIG1        0.1760
     14 C           1.3948    6.3774    0.1818 C.ar    1  LIG1        0.0145
     15 C           0.4530    7.4625    0.0192 C.ar    1  LIG1        0.0755
     16 C          -0.7832    6.9423    0.2811 C.ar    1  LIG1        0.1688
     17 O          -0.6799    5.6277    0.5601 O.2     1  LIG1       -0.4486
     18 C           2.8878    6.4939    0.0525 C.3     1  LIG1       -0.0348
     19 H           3.2130    7.4190    0.5281 H       1  LIG1        0.0279
     20 H           3.1737    6.5198   -0.9997 H       1  LIG1        0.0279
     21 H           3.3754    5.6438    0.5266 H       1  LIG1        0.0279
     22 C           0.7802    8.7942   -0.3818 C.1     1  LIG1       -0.0655
     23 C           1.0739    9.9072   -0.7244 C.1     1  LIG1       -0.1138
     24 H           1.3084   10.9069   -1.0084 H       1  LIG1        0.1232
     25 C          -2.1367    7.4739    0.2661 C.ar    1  LIG1        0.1050
     26 C          -2.6504    8.7532    0.4755 C.ar    1  LIG1        0.1222
     27 C          -4.0617    8.6547    0.3109 C.ar    1  LIG1        0.1634
     28 C          -4.3624    7.3316    0.0233 C.ar    1  LIG1        0.0957
     29 N          -3.1720    6.6539    0.0110 N.ar    1  LIG1       -0.3476
     30 H          -3.0999    5.6651   -0.1932 H       1  LIG1        0.1661
     31 N          -1.3768   10.8383    1.3014 N.1     1  LIG1       -0.1907
     32 C          -1.9214    9.9015    0.9203 C.1     1  LIG1        0.1051
     33 O          -4.9974    9.6220    0.4331 O.3     1  LIG1       -0.4917
     34 C          -4.6287   10.9504    0.0526 C.3     1  LIG1        0.0789
     35 H          -5.5640   11.4815   -0.1041 H       1  LIG1        0.0660
     36 H          -4.0534   11.4266    0.8439 H       1  LIG1        0.0660
     37 H          -4.0492   10.9250   -0.8715 H       1  LIG1        0.0660
     38 C          -5.8050    5.3552   -0.6324 C.ar    1  LIG1        0.2240
     39 C          -5.6664    6.7060   -0.2201 C.ar    1  LIG1        0.0646
     40 C          -6.8477    7.4153   -0.0559 C.ar    1  LIG1       -0.0285
     41 C          -8.0720    6.7871   -0.3143 C.ar    1  LIG1        0.0707
     42 C          -8.0828    5.4612   -0.7209 C.ar    1  LIG1        0.0488
     43 N          -6.9566    4.7660   -0.8708 N.ar    1  LIG1       -0.2195
     44 H          -6.8152    8.4451    0.2699 H       1  LIG1        0.0639
     45 H          -9.0125    4.9478   -0.9282 H       1  LIG1        0.0844
     46 O          -4.6831    4.6291   -0.7876 O.3     1  LIG1       -0.4792
     47 C          -4.8315    3.2694   -1.2133 C.3     1  LIG1        0.0804
     48 H          -3.8185    2.8832   -1.2781 H       1  LIG1        0.0660
     49 H          -5.4191    2.7155   -0.4838 H       1  LIG1        0.0660
     50 H          -5.3266    3.2387   -2.1818 H       1  LIG1        0.0660
     51 N         -10.3057    8.0728   -0.0313 N.1     1  LIG1       -0.1908
     52 C          -9.3168    7.5046   -0.1561 C.1     1  LIG1        0.1007
@<TRIPOS>BOND
     1    12    11    1
     2    50    47    1
     3    11    10    3
     4    48    47    1
     5    47    46    1
     6    47    49    1
     7    24    23    1
     8    20    18    1
     9    10     3    1
    10    45    42    1
    11    37    34    1
    12    43    42   ar
    13    43    38   ar
    14    46    38    1
    15    23    22    3
    16    42    41   ar
    17    38    39   ar
    18    22    15    1
    19     9     7    1
    20    41    52    1
    21    41    40   ar
    22    39    40   ar
    23    39    28    1
    24    30    29    1
    25    52    51    3
    26    35    34    1
    27    40    44    1
    28    29    28   ar
    29    29    25   ar
    30    15    14   ar
    31    15    16   ar
    32    28    27   ar
    33    18    14    1
    34    18    21    1
    35    18    19    1
    36    34    33    1
    37    34    36    1
    38     3     4   ar
    39     3     2   ar
    40    14    13   ar
    41    25    16    1
    42    25    26   ar
    43    16    17   ar
    44    27    33    1
    45    27    26   ar
    46    26    32    1
    47    13    17   ar
    48    13     4    1
    49     7     8    1
    50     7     2    1
    51     4     5   ar
    52     2     1   ar
    53    32    31    3
    54     5     1   ar
    55     1     6    1
