@<TRIPOS>MOLECULE
mol_data/opt/m06hf/geoms/mol2/12he6el13ei-13if4ie13ff12hd-12la-.out
 99 106 0 0 0
SMALL
GASTEIGER

@<TRIPOS>ATOM
      1 C           1.3218    1.7857    0.4897 C.ar    1  LIG1        0.1144
      2 C           2.5174    1.8911   -0.1443 C.ar    1  LIG1        0.0791
      3 C           2.6844    3.3004   -0.4158 C.ar    1  LIG1        0.0910
      4 C           1.5664    3.9205    0.0800 C.ar    1  LIG1        0.1547
      5 O           0.7539    3.0122    0.6235 O.2     1  LIG1       -0.4597
      6 H           0.7762    0.9525    0.8920 H       1  LIG1        0.1049
      7 N           3.4620    0.9113   -0.4514 N.pl3   1  LIG1       -0.3546
      8 H           3.0635    0.0072   -0.6646 H       1  LIG1        0.1424
      9 H           4.1043    1.2114   -1.1743 H       1  LIG1        0.1424
     10 C           3.7994    3.8726   -1.1040 C.1     1  LIG1       -0.0640
     11 C           4.7575    4.3104   -1.6858 C.1     1  LIG1       -0.1137
     12 H           5.6021    4.7009   -2.2052 H       1  LIG1        0.1232
     13 C          -0.1390    5.7805    0.0341 C.ar    1  LIG1        0.1248
     14 C           1.1877    5.3383    0.1099 C.ar    1  LIG1        0.0558
     15 C           2.1997    6.3005    0.1890 C.ar    1  LIG1       -0.0044
     16 C           1.8661    7.6446    0.1949 C.ar    1  LIG1        0.1482
     17 C           0.4999    7.9975    0.1962 C.ar    1  LIG1        0.1312
     18 N          -0.4492    7.0778    0.0913 N.ar    1  LIG1       -0.2325
     19 H           3.2310    5.9793    0.2316 H       1  LIG1        0.0663
     20 C          -1.2549    4.8720   -0.1353 C.1     1  LIG1       -0.0491
     21 C          -2.1977    4.1473   -0.2967 C.1     1  LIG1       -0.1124
     22 H          -3.0349    3.5039   -0.4354 H       1  LIG1        0.1232
     23 O           2.7452    8.6529    0.1880 O.3     1  LIG1       -0.4929
     24 C           4.1237    8.3633    0.3233 C.3     1  LIG1        0.0789
     25 H           4.6182    9.3301    0.3271 H       1  LIG1        0.0660
     26 H           4.3134    7.8409    1.2637 H       1  LIG1        0.0660
     27 H           4.4738    7.7612   -0.5193 H       1  LIG1        0.0660
     28 C           0.0255    9.3912    0.2533 C.ar    1  LIG1        0.0849
     29 C           0.5364   10.6203    0.6704 C.ar    1  LIG1        0.0551
     30 C          -0.4947   11.5935    0.4915 C.ar    1  LIG1       -0.0077
     31 C          -1.5863   10.9264   -0.0274 C.ar    1  LIG1        0.0679
     32 N          -1.2518    9.6101   -0.1525 N.ar    1  LIG1       -0.3505
     33 H          -1.8320    8.8626   -0.5098 H       1  LIG1        0.1660
     34 C           1.7851   10.9562    1.2914 C.1     1  LIG1       -0.0672
     35 C           2.7783   11.3454    1.8486 C.1     1  LIG1       -0.1138
     36 H           3.6553   11.6872    2.3461 H       1  LIG1        0.1232
     37 C          -0.4127   13.0490    0.8663 C.3     1  LIG1       -0.0365
     38 H          -1.4141   13.4798    0.8822 H       1  LIG1        0.0279
     39 H           0.2000   13.6014    0.1508 H       1  LIG1        0.0279
     40 H           0.0426   13.1501    1.8519 H       1  LIG1        0.0279
     41 C          -2.9137   11.4223   -0.3944 C.ar    1  LIG1        0.0701
     42 C          -3.2730   12.5083   -1.1684 C.ar    1  LIG1        0.0183
     43 C          -4.6931   12.5157   -1.1844 C.ar    1  LIG1        0.1455
     44 C          -5.1600   11.4579   -0.4355 C.ar    1  LIG1        0.0895
     45 N          -4.0524   10.7833    0.0178 N.ar    1  LIG1       -0.3499
     46 H          -4.0793   10.0585    0.7190 H       1  LIG1        0.1661
     47 C          -2.3745   13.4529   -1.9218 C.3     1  LIG1       -0.0342
     48 H          -2.2888   14.4107   -1.4056 H       1  LIG1        0.0279
     49 H          -2.7896   13.6376   -2.9129 H       1  LIG1        0.0279
     50 H          -1.3801   13.0168   -2.0209 H       1  LIG1        0.0279
     51 O          -5.4342   13.4230   -1.8910 O.3     1  LIG1       -0.5044
     52 H          -6.2796   13.0228   -2.1278 H       1  LIG1        0.2922
     53 C          -7.5041   11.8724    0.3747 C.ar    1  LIG1       -0.0405
     54 C          -8.7990   11.4033    0.5630 C.ar    1  LIG1       -0.0478
     55 C          -6.5435   11.0067   -0.1843 C.ar    1  LIG1        0.0060
     56 C          -9.1870   10.0948    0.2389 C.ar    1  LIG1        0.0177
     57 H          -9.5404   12.0641    0.9922 H       1  LIG1        0.0627
     58 C          -6.9082    9.7033   -0.5064 C.ar    1  LIG1       -0.0362
     59 C          -8.2077    9.2332   -0.2985 C.ar    1  LIG1        0.0345
     60 H          -6.1779    9.0367   -0.9478 H       1  LIG1        0.0637
     61 C          -7.1292   13.2753    0.8164 C.3     1  LIG1       -0.0391
     62 H          -7.9855   13.7572    1.2855 H       1  LIG1        0.0278
     63 H          -6.7909   13.8789   -0.0270 H       1  LIG1        0.0278
     64 H          -6.3077   13.2228    1.5334 H       1  LIG1        0.0278
     65 C          -8.4646    7.8607   -0.6804 C.1     1  LIG1       -0.0690
     66 C          -8.6376    6.7149   -1.0104 C.1     1  LIG1       -0.1139
     67 H          -8.8098    5.7039   -1.3026 H       1  LIG1        0.1232
     68 C         -10.5816    9.7039    0.4848 C.ar    1  LIG1        0.0940
     69 C         -11.6441   10.4605    0.9717 C.ar    1  LIG1        0.1849
     70 C         -12.7865    9.6393    1.0260 C.ar    1  LIG1        0.1879
     71 C         -12.4007    8.3894    0.5713 C.ar    1  LIG1        0.1302
     72 N         -11.0766    8.4511    0.2543 N.ar    1  LIG1       -0.3458
     73 H         -10.5344    7.6799   -0.1081 H       1  LIG1        0.1662
     74 O         -11.6380   11.7701    1.3481 O.3     1  LIG1       -0.5019
     75 H         -12.5350   11.9942    1.6294 H       1  LIG1        0.2924
     76 O         -13.9872   10.0928    1.4557 O.3     1  LIG1       -0.5018
     77 H         -14.6418    9.3516    1.4090 H       1  LIG1        0.2924
     78 C         -13.1654    7.1763    0.4212 C.ar    1  LIG1        0.1774
     79 C         -14.4673    6.8701    0.6692 C.ar    1  LIG1        0.0909
     80 C         -14.6232    5.4846    0.2935 C.ar    1  LIG1        0.1219
     81 C         -13.3983    5.0626   -0.1385 C.ar    1  LIG1        0.1934
     82 O         -12.5231    6.0836   -0.0599 O.2     1  LIG1       -0.4468
     83 N         -15.4443    7.7713    1.1848 N.pl3   1  LIG1       -0.3540
     84 H         -16.2328    7.8581    0.5462 H       1  LIG1        0.1425
     85 H         -15.8023    7.4450    2.0803 H       1  LIG1        0.1425
     86 N         -16.8816    4.2423    0.3287 N.1     1  LIG1       -0.1907
     87 C         -15.8550    4.7570    0.3124 C.1     1  LIG1        0.1050
     88 C         -12.9197    3.7860   -0.6196 C.ar    1  LIG1        0.2123
     89 C         -13.3854    2.5232   -0.4057 C.ar    1  LIG1        0.1687
     90 C         -12.5263    1.6426   -1.1530 C.ar    1  LIG1        0.0187
     91 C         -11.6088    2.4543   -1.7340 C.ar    1  LIG1        0.0964
     92 O         -11.8275    3.7445   -1.4187 O.2     1  LIG1       -0.4560
     93 H         -10.7676    2.2578   -2.3752 H       1  LIG1        0.1031
     94 O         -14.4165    2.2230    0.4101 O.3     1  LIG1       -0.4912
     95 C         -15.4391    1.4142   -0.1722 C.3     1  LIG1        0.0790
     96 H         -16.2266    1.3490    0.5727 H       1  LIG1        0.0660
     97 H         -15.8225    1.8923   -1.0744 H       1  LIG1        0.0660
     98 H         -15.0499    0.4205   -0.4015 H       1  LIG1        0.0660
     99 H         -12.5812    0.5701   -1.2228 H       1  LIG1        0.0686
@<TRIPOS>BOND
     1    49    47    1
     2    93    91    1
     3    12    11    1
     4    52    51    1
     5    50    47    1
     6    47    48    1
     7    47    42    1
     8    51    43    1
     9    91    92   ar
    10    91    90   ar
    11    11    10    3
    12    92    88   ar
    13    67    66    1
    14    99    90    1
    15    43    42   ar
    16    43    44   ar
    17     9     7    1
    18    42    41   ar
    19    90    89   ar
    20    10     3    1
    21    97    95    1
    22    66    65    3
    23    60    58    1
    24    65    59    1
    25     8     7    1
    26    88    89   ar
    27    88    81    1
    28    27    24    1
    29    33    32    1
    30    58    59   ar
    31    58    55   ar
    32     7     2    1
    33    44    55    1
    34    44    45   ar
    35    22    21    1
    36     3     2   ar
    37     3     4   ar
    38    89    94    1
    39    98    95    1
    40    41    31    1
    41    41    45   ar
    42    59    56   ar
    43    21    20    3
    44    55    53   ar
    45    95    94    1
    46    95    96    1
    47    32    31   ar
    48    32    28   ar
    49     2     1   ar
    50    81    82   ar
    51    81    80   ar
    52    20    13    1
    53    73    72    1
    54    82    78   ar
    55    31    30   ar
    56    63    61    1
    57    45    46    1
    58    13    18   ar
    59    13    14   ar
    60     4    14    1
    61     4     5   ar
    62    18    17   ar
    63    14    15   ar
    64    39    37    1
    65    23    16    1
    66    23    24    1
    67    15    16   ar
    68    15    19    1
    69    16    17   ar
    70    17    28    1
    71    56    68    1
    72    56    54   ar
    73    28    29   ar
    74    72    68   ar
    75    72    71   ar
    76    80    87    1
    77    80    79   ar
    78    87    86    3
    79    24    25    1
    80    24    26    1
    81    53    54   ar
    82    53    61    1
    83    78    71    1
    84    78    79   ar
    85    68    69   ar
    86     1     5   ar
    87     1     6    1
    88    30    29   ar
    89    30    37    1
    90    84    83    1
    91    54    57    1
    92    71    70   ar
    93    79    83    1
    94    29    34    1
    95    61    62    1
    96    61    64    1
    97    37    38    1
    98    37    40    1
    99    69    70   ar
   100    69    74    1
   101    70    76    1
   102    83    85    1
   103    34    35    3
   104    74    75    1
   105    77    76    1
   106    35    36    1
