@<TRIPOS>MOLECULE
mol_data/opt/m06hf/geoms/mol2/12hf4hh-6dd13hh.out
 49 52 0 0 0
SMALL
GASTEIGER

@<TRIPOS>ATOM
      1 C           0.5133    1.5768   -0.7180 C.ar    1  LIG1        0.1169
      2 C           1.3909    1.5390    0.3138 C.ar    1  LIG1        0.1056
      3 C           1.6216    2.9165    0.6735 C.ar    1  LIG1        0.1838
      4 C           0.8765    3.6791   -0.1821 C.ar    1  LIG1        0.1797
      5 O           0.2017    2.8587   -1.0347 O.2     1  LIG1       -0.4572
      6 H           0.0508    0.8063   -1.3077 H       1  LIG1        0.1050
      7 N           1.9582    0.4593    1.0032 N.pl3   1  LIG1       -0.3527
      8 H           2.3242   -0.2631    0.3971 H       1  LIG1        0.1425
      9 H           2.6691    0.7864    1.6473 H       1  LIG1        0.1425
     10 O           2.4220    3.2597    1.6970 O.3     1  LIG1       -0.5020
     11 H           2.6517    4.2226    1.5671 H       1  LIG1        0.2924
     12 C           1.5347    6.0698    0.1694 C.ar    1  LIG1        0.0361
     13 C           1.1960    7.4141    0.1267 C.ar    1  LIG1       -0.0308
     14 C           0.6040    5.1159   -0.2727 C.ar    1  LIG1        0.0433
     15 C          -0.0374    7.8363   -0.3650 C.ar    1  LIG1        0.0073
     16 H           1.8975    8.1594    0.4864 H       1  LIG1        0.0643
     17 C          -0.6057    5.5418   -0.8190 C.ar    1  LIG1       -0.0279
     18 C          -0.9434    6.8949   -0.8825 C.ar    1  LIG1        0.0332
     19 H          -1.2982    4.7934   -1.1828 H       1  LIG1        0.0644
     20 N           2.8191    5.6350    0.6456 N.pl3   1  LIG1       -0.3574
     21 H           3.3729    5.2564   -0.1230 H       1  LIG1        0.1423
     22 H           3.3344    6.3987    1.0727 H       1  LIG1        0.1423
     23 N          -2.1668    7.3071   -1.3960 N.pl3   1  LIG1       -0.3575
     24 H          -2.1737    8.2033   -1.8622 H       1  LIG1        0.1423
     25 H          -2.6945    6.5988   -1.8837 H       1  LIG1        0.1423
     26 C          -1.4205    9.8162    0.4091 C.ar    1  LIG1        0.1486
     27 C          -0.3767    9.2858   -0.3684 C.ar    1  LIG1        0.0211
     28 C           0.3027   10.2045   -1.1586 C.ar    1  LIG1       -0.0317
     29 C          -0.0396   11.5559   -1.1209 C.ar    1  LIG1        0.0798
     30 C          -1.0453   12.0012   -0.2376 C.ar    1  LIG1        0.1077
     31 N          -1.7366   11.0962    0.4765 N.ar    1  LIG1       -0.2329
     32 H           1.0801    9.8663   -1.8318 H       1  LIG1        0.0638
     33 N          -2.8485    8.2517    1.9290 N.1     1  LIG1       -0.1893
     34 C          -2.2210    8.9278    1.2494 C.1     1  LIG1        0.1197
     35 N           1.0458   13.0774   -2.9127 N.1     1  LIG1       -0.1908
     36 C           0.5695   12.4303   -2.0916 C.1     1  LIG1        0.1014
     37 C          -1.4394   13.3790   -0.0205 C.ar    1  LIG1        0.0890
     38 C          -0.8036   14.6203   -0.1107 C.ar    1  LIG1        0.0727
     39 C          -1.7082   15.5806    0.4281 C.ar    1  LIG1        0.0637
     40 C          -2.8418   14.9041    0.8362 C.ar    1  LIG1        0.0249
     41 N          -2.6717   13.5977    0.5651 N.ar    1  LIG1       -0.3563
     42 H          -3.2896   12.8353    0.8010 H       1  LIG1        0.1655
     43 H          -3.7448   15.2755    1.2914 H       1  LIG1        0.0826
     44 N           0.4883   14.9684   -0.4721 N.pl3   1  LIG1       -0.3549
     45 H           0.8139   14.6359   -1.3696 H       1  LIG1        0.1424
     46 H           0.5983   15.9729   -0.3678 H       1  LIG1        0.1424
     47 N          -1.3677   16.9609    0.5012 N.pl3   1  LIG1       -0.3554
     48 H          -1.9595   17.5384   -0.0857 H       1  LIG1        0.1424
     49 H          -1.3870   17.3168    1.4499 H       1  LIG1        0.1424
@<TRIPOS>BOND
     1    35    36    3
     2    36    29    1
     3    25    23    1
     4    24    23    1
     5    32    28    1
     6    23    18    1
     7    45    44    1
     8     6     1    1
     9    19    17    1
    10    28    29   ar
    11    28    27   ar
    12    29    30   ar
    13     5     1   ar
    14     5     4   ar
    15    18    17   ar
    16    18    15   ar
    17    17    14   ar
    18     1     2   ar
    19    44    46    1
    20    44    38    1
    21    27    15    1
    22    27    26   ar
    23    15    13   ar
    24    14     4    1
    25    14    12   ar
    26    30    37    1
    27    30    31   ar
    28     4     3   ar
    29    21    20    1
    30    38    37   ar
    31    38    39   ar
    32    48    47    1
    33    37    41   ar
    34    13    12   ar
    35    13    16    1
    36    12    20    1
    37     2     3   ar
    38     2     7    1
    39     8     7    1
    40    26    31   ar
    41    26    34    1
    42    39    47    1
    43    39    40   ar
    44    47    49    1
    45    41    42    1
    46    41    40   ar
    47    20    22    1
    48     3    10    1
    49    40    43    1
    50     7     9    1
    51    34    33    3
    52    11    10    1
