@<TRIPOS>MOLECULE
mol_data/opt/m06hf/geoms/mol2/12hf4ha-4ia13ie-4ff-12ai-6fa-12df.out
 91 98 0 0 0
SMALL
GASTEIGER

@<TRIPOS>ATOM
      1 C           3.3353    2.3448    2.3682 C.ar    1  LIG1        0.1169
      2 C           3.3568    1.8759    1.0971 C.ar    1  LIG1        0.1056
      3 C           2.7326    2.9021    0.2992 C.ar    1  LIG1        0.1838
      4 C           2.3653    3.9016    1.1554 C.ar    1  LIG1        0.1796
      5 O           2.7313    3.5592    2.4197 O.2     1  LIG1       -0.4572
      6 H           3.6847    1.9394    3.3005 H       1  LIG1        0.1050
      7 N           3.8994    0.7001    0.5580 N.pl3   1  LIG1       -0.3527
      8 H           3.6413   -0.1336    1.0702 H       1  LIG1        0.1425
      9 H           3.6437    0.6128   -0.4191 H       1  LIG1        0.1425
     10 O           2.6145    2.7975   -1.0394 O.3     1  LIG1       -0.5020
     11 H           1.8953    3.4227   -1.3182 H       1  LIG1        0.2924
     12 C           0.8995    5.4753   -0.1169 C.ar    1  LIG1        0.0360
     13 C           0.4264    6.7622   -0.3508 C.ar    1  LIG1       -0.0326
     14 C           1.7841    5.2303    0.9448 C.ar    1  LIG1        0.0416
     15 C           0.7943    7.8211    0.4800 C.ar    1  LIG1       -0.0159
     16 H          -0.2684    6.9385   -1.1647 H       1  LIG1        0.0642
     17 C           2.1162    6.2860    1.7981 C.ar    1  LIG1       -0.0486
     18 C           1.6282    7.5659    1.5720 C.ar    1  LIG1       -0.0532
     19 H           2.7843    6.0880    2.6258 H       1  LIG1        0.0625
     20 N           0.4937    4.3787   -0.9386 N.pl3   1  LIG1       -0.3574
     21 H           0.0601    3.6502   -0.3707 H       1  LIG1        0.1423
     22 H          -0.1529    4.6662   -1.6657 H       1  LIG1        0.1423
     23 H           1.9152    8.3817    2.2226 H       1  LIG1        0.0624
     24 C           0.5016    9.8864   -0.9593 C.ar    1  LIG1       -0.0421
     25 C          -0.0194   11.1717   -1.1077 C.ar    1  LIG1       -0.0491
     26 C           0.2660    9.1998    0.2425 C.ar    1  LIG1       -0.0149
     27 C          -0.7454   11.7949   -0.0905 C.ar    1  LIG1       -0.0011
     28 H           0.1363   11.7041   -2.0388 H       1  LIG1        0.0627
     29 C          -0.4605    9.8209    1.2625 C.ar    1  LIG1       -0.0532
     30 C          -0.9583   11.1074    1.1074 C.ar    1  LIG1       -0.0520
     31 H          -0.6288    9.2809    2.1861 H       1  LIG1        0.0624
     32 C           1.3204    9.2786   -2.0866 C.3     1  LIG1       -0.0391
     33 H           1.7460   10.0724   -2.6997 H       1  LIG1        0.0278
     34 H           0.6980    8.6510   -2.7275 H       1  LIG1        0.0278
     35 H           2.1270    8.6644   -1.6868 H       1  LIG1        0.0278
     36 H          -1.4836   11.5889    1.9235 H       1  LIG1        0.0624
     37 C          -1.2687   13.1628   -0.2786 C.ar    1  LIG1        0.0511
     38 C          -0.6848   14.2880   -0.8216 C.ar    1  LIG1       -0.0092
     39 C          -1.6406   15.3439   -0.6974 C.ar    1  LIG1        0.0535
     40 C          -2.7698   14.8249   -0.0865 C.ar    1  LIG1        0.0664
     41 N          -2.5232   13.5088    0.1548 N.ar    1  LIG1       -0.3529
     42 H          -3.1705   12.8780    0.6025 H       1  LIG1        0.1659
     43 C           0.7005   14.4333   -1.3970 C.3     1  LIG1       -0.0365
     44 H           1.1038   15.4080   -1.1228 H       1  LIG1        0.0279
     45 H           0.6789   14.3706   -2.4872 H       1  LIG1        0.0279
     46 H           1.3561   13.6531   -1.0102 H       1  LIG1        0.0279
     47 C          -1.4594   16.6851   -1.1668 C.1     1  LIG1       -0.0673
     48 C          -1.2752   17.7979   -1.5854 C.1     1  LIG1       -0.1138
     49 H          -1.1121   18.7824   -1.9576 H       1  LIG1        0.1232
     50 C          -4.1365   16.6439    0.9476 C.ar    1  LIG1        0.1269
     51 C          -5.3757   17.2004    1.2405 C.ar    1  LIG1       -0.0053
     52 C          -4.0705   15.4354    0.2439 C.ar    1  LIG1        0.0444
     53 C          -6.5619   16.5672    0.8696 C.ar    1  LIG1        0.0621
     54 H          -5.4303   18.1468    1.7660 H       1  LIG1        0.0662
     55 C          -5.2584   14.8025   -0.1270 C.ar    1  LIG1       -0.0068
     56 C          -6.4977   15.3481    0.1833 C.ar    1  LIG1        0.1283
     57 H          -5.2053   13.8788   -0.6938 H       1  LIG1        0.0662
     58 O          -2.9699   17.2099    1.3473 O.3     1  LIG1       -0.5061
     59 H          -3.0949   18.1348    1.5833 H       1  LIG1        0.2922
     60 O          -7.6664   14.7215   -0.1531 O.3     1  LIG1       -0.5060
     61 H          -7.4951   13.9207   -0.6596 H       1  LIG1        0.2922
     62 C          -7.8535   17.1621    1.2388 C.ar    1  LIG1        0.1396
     63 C          -8.2814   17.8779    2.3138 C.ar    1  LIG1       -0.0122
     64 C          -9.6890   18.1165    2.1265 C.ar    1  LIG1       -0.0039
     65 C          -9.9989   17.5280    0.9351 C.ar    1  LIG1        0.1437
     66 O          -8.8892   16.9691    0.3954 O.2     1  LIG1       -0.4543
     67 H          -7.6913   18.1611    3.1704 H       1  LIG1        0.0658
     68 C         -10.6191   18.8054    3.0940 C.3     1  LIG1       -0.0361
     69 H         -11.6241   18.3906    3.0135 H       1  LIG1        0.0279
     70 H         -10.6636   19.8787    2.8998 H       1  LIG1        0.0279
     71 H         -10.2618   18.6560    4.1123 H       1  LIG1        0.0279
     72 C         -11.4619   16.1427   -0.5721 C.ar    1  LIG1        0.2239
     73 C         -11.2436   17.3244    0.1889 C.ar    1  LIG1        0.0788
     74 C         -12.2681   18.2613    0.2259 C.ar    1  LIG1       -0.0438
     75 C         -13.4711   18.0177   -0.4277 C.ar    1  LIG1       -0.0317
     76 C         -13.5831   16.8099   -1.1086 C.ar    1  LIG1        0.1112
     77 N         -12.6048   15.9092   -1.1866 N.ar    1  LIG1       -0.2093
     78 H         -12.1149   19.1931    0.7544 H       1  LIG1        0.0627
     79 O         -10.5431   15.1816   -0.7089 O.3     1  LIG1       -0.4919
     80 H          -9.6704   15.4289   -0.3619 H       1  LIG1        0.2938
     81 H         -14.2741   18.7398   -0.4105 H       1  LIG1        0.0640
     82 C         -14.8317   16.4506   -1.8141 C.ar    1  LIG1        0.1740
     83 C         -16.0942   16.9880   -1.8096 C.ar    1  LIG1        0.1402
     84 C         -16.8759   16.1795   -2.7033 C.ar    1  LIG1        0.1729
     85 C         -16.0347   15.2262   -3.1737 C.ar    1  LIG1        0.1353
     86 O         -14.8060   15.3987   -2.6304 O.2     1  LIG1       -0.4563
     87 H         -16.1572   14.4059   -3.8570 H       1  LIG1        0.1068
     88 N         -16.9545   19.0175   -0.4715 N.1     1  LIG1       -0.1906
     89 C         -16.5766   18.1108   -1.0660 C.1     1  LIG1        0.1067
     90 O         -18.1830   16.4213   -2.9438 O.3     1  LIG1       -0.5028
     91 H         -18.5532   15.7592   -3.5369 H       1  LIG1        0.2923
@<TRIPOS>BOND
     1    87    85    1
     2    91    90    1
     3    85    84   ar
     4    85    86   ar
     5    90    84    1
     6    34    32    1
     7    84    83   ar
     8    33    32    1
     9    86    82   ar
    10    45    43    1
    11    32    35    1
    12    32    24    1
    13    28    25    1
    14    49    48    1
    15    82    83   ar
    16    82    76    1
    17    83    89    1
    18    22    20    1
    19    48    47    3
    20    43    44    1
    21    43    46    1
    22    43    38    1
    23    11    10    1
    24    77    76   ar
    25    77    72   ar
    26    47    39    1
    27    16    13    1
    28    76    75   ar
    29    25    24   ar
    30    25    27   ar
    31    89    88    3
    32    10     3    1
    33    24    26   ar
    34    20    21    1
    35    20    12    1
    36    38    39   ar
    37    38    37   ar
    38    79    72    1
    39    79    80    1
    40    39    40   ar
    41    57    55    1
    42    61    60    1
    43    72    73   ar
    44    75    81    1
    45    75    74   ar
    46     9     7    1
    47    13    12   ar
    48    13    15   ar
    49    37    27    1
    50    37    41   ar
    51    60    56    1
    52    55    56   ar
    53    55    52   ar
    54    12    14   ar
    55    27    30   ar
    56    40    41   ar
    57    40    52    1
    58    41    42    1
    59    56    53   ar
    60    73    74   ar
    61    73    65    1
    62    74    78    1
    63    26    15    1
    64    26    29   ar
    65    52    50   ar
    66     3     2   ar
    67     3     4   ar
    68    66    65   ar
    69    66    62   ar
    70    15    18   ar
    71     7     8    1
    72     7     2    1
    73    53    62    1
    74    53    51   ar
    75    65    64   ar
    76    14     4    1
    77    14    17   ar
    78    50    51   ar
    79    50    58    1
    80     2     1   ar
    81    30    29   ar
    82    30    36    1
    83     4     5   ar
    84    62    63   ar
    85    51    54    1
    86    29    31    1
    87    58    59    1
    88    18    17   ar
    89    18    23    1
    90    17    19    1
    91    64    63   ar
    92    64    68    1
    93    63    67    1
    94     1     5   ar
    95     1     6    1
    96    70    68    1
    97    69    68    1
    98    68    71    1
