@<TRIPOS>MOLECULE
mol_data/opt/m06hf/geoms/mol2/12hf13ed6ia13ha6if13hl-12di-6fd.out
 94 101 0 0 0
SMALL
GASTEIGER

@<TRIPOS>ATOM
      1 C           1.3416    2.8291   -3.2165 C.ar    1  LIG1        0.1170
      2 C           2.6610    2.8059   -2.9081 C.ar    1  LIG1        0.1057
      3 C           2.8144    3.7039   -1.7892 C.ar    1  LIG1        0.1853
      4 C           1.5747    4.1897   -1.5073 C.ar    1  LIG1        0.1952
      5 O           0.6713    3.6669   -2.3794 O.2     1  LIG1       -0.4557
      6 H           0.7597    2.3218   -3.9637 H       1  LIG1        0.1050
      7 N           3.7197    2.0772   -3.4574 N.pl3   1  LIG1       -0.3527
      8 H           3.7195    2.0544   -4.4687 H       1  LIG1        0.1425
      9 H           4.6100    2.4040   -3.1013 H       1  LIG1        0.1425
     10 O           4.0307    3.9544   -1.2652 O.3     1  LIG1       -0.5020
     11 H           3.9634    4.3970   -0.4052 H       1  LIG1        0.2924
     12 C           1.0583    5.1501   -0.5521 C.ar    1  LIG1        0.1031
     13 C           1.5820    5.6719    0.6164 C.ar    1  LIG1        0.0710
     14 C           0.6178    6.6098    1.1085 C.ar    1  LIG1        0.0931
     15 C          -0.4569    6.6149    0.2402 C.ar    1  LIG1        0.0675
     16 N          -0.1587    5.7278   -0.7510 N.ar    1  LIG1       -0.3496
     17 H          -0.7307    5.5380   -1.5621 H       1  LIG1        0.1661
     18 C           2.8158    5.3049    1.2364 C.1     1  LIG1       -0.0661
     19 C           3.8480    4.9942    1.7741 C.1     1  LIG1       -0.1138
     20 H           4.7454    4.7217    2.2812 H       1  LIG1        0.1232
     21 N           0.8257    8.0151    3.2630 N.1     1  LIG1       -0.1908
     22 C           0.7291    7.3840    2.3086 C.1     1  LIG1        0.1025
     23 C          -2.9624    6.8323    0.0614 C.ar    1  LIG1        0.0481
     24 C          -1.7001    7.4076    0.2789 C.ar    1  LIG1        0.0207
     25 C          -1.6299    8.7760    0.5591 C.ar    1  LIG1       -0.0488
     26 C          -2.7881    9.5306    0.6039 C.ar    1  LIG1       -0.0336
     27 C          -3.9975    8.8761    0.3526 C.ar    1  LIG1        0.0892
     28 N          -4.0709    7.5667    0.0939 N.ar    1  LIG1       -0.2497
     29 H          -0.6652    9.2357    0.7347 H       1  LIG1        0.0625
     30 C          -3.1606    5.3507   -0.2007 C.3     1  LIG1       -0.0217
     31 H          -2.4312    4.7513    0.3436 H       1  LIG1        0.0293
     32 H          -3.0778    5.1312   -1.2688 H       1  LIG1        0.0293
     33 H          -4.1668    5.0889    0.1186 H       1  LIG1        0.0293
     34 H          -2.7927   10.5932    0.8033 H       1  LIG1        0.0640
     35 C          -5.2826    9.5849    0.3453 C.ar    1  LIG1        0.0863
     36 C          -5.6377   10.9052    0.5714 C.ar    1  LIG1        0.0523
     37 C          -7.0382   10.9982    0.3667 C.ar    1  LIG1       -0.0150
     38 C          -7.4921    9.7338    0.0317 C.ar    1  LIG1        0.0506
     39 N          -6.4185    8.8997    0.0389 N.ar    1  LIG1       -0.3514
     40 H          -6.3898    7.9198   -0.2067 H       1  LIG1        0.1660
     41 N          -4.7247   11.9347    0.9467 N.pl3   1  LIG1       -0.3563
     42 H          -4.9761   12.8144    0.5083 H       1  LIG1        0.1424
     43 H          -4.7261   12.0718    1.9543 H       1  LIG1        0.1424
     44 H          -7.6527   11.8772    0.4814 H       1  LIG1        0.0657
     45 C          -9.4441    8.1274    0.2405 C.ar    1  LIG1        0.0483
     46 C          -8.8630    9.2965   -0.2992 C.ar    1  LIG1        0.0229
     47 C          -9.6284   10.0819   -1.1476 C.ar    1  LIG1       -0.0072
     48 C         -10.9442    9.7307   -1.4630 C.ar    1  LIG1        0.1449
     49 C         -11.4379    8.5594   -0.8719 C.ar    1  LIG1        0.1305
     50 N         -10.6905    7.8027   -0.0595 N.ar    1  LIG1       -0.2460
     51 H          -9.2162   10.9727   -1.6032 H       1  LIG1        0.0662
     52 C          -8.7132    7.2051    1.1971 C.3     1  LIG1       -0.0217
     53 H          -8.0778    7.7741    1.8755 H       1  LIG1        0.0293
     54 H          -8.0919    6.4885    0.6538 H       1  LIG1        0.0293
     55 H          -9.4564    6.6480    1.7637 H       1  LIG1        0.0293
     56 O         -11.6159   10.5133   -2.3113 O.3     1  LIG1       -0.5045
     57 H         -12.5750   10.2397   -2.4414 H       1  LIG1        0.2922
     58 C         -12.8030    8.0266   -1.0803 C.ar    1  LIG1        0.0937
     59 C         -13.9566    8.4760   -1.7129 C.ar    1  LIG1        0.0948
     60 C         -14.9364    7.4680   -1.5620 C.ar    1  LIG1        0.1695
     61 C         -14.3656    6.4371   -0.8333 C.ar    1  LIG1        0.1279
     62 N         -13.0806    6.8105   -0.5571 N.ar    1  LIG1       -0.3460
     63 H         -12.3687    6.2953   -0.0518 H       1  LIG1        0.1662
     64 N         -14.1135    9.7119   -2.4149 N.pl3   1  LIG1       -0.3534
     65 H         -14.5605    9.5555   -3.3158 H       1  LIG1        0.1425
     66 H         -14.6766   10.3770   -1.8892 H       1  LIG1        0.1425
     67 O         -16.1891    7.4935   -2.0818 O.3     1  LIG1       -0.4910
     68 C         -17.1471    8.1881   -1.2783 C.3     1  LIG1        0.0790
     69 H         -18.1106    8.0297   -1.7537 H       1  LIG1        0.0660
     70 H         -17.1593    7.7746   -0.2688 H       1  LIG1        0.0660
     71 H         -16.9058    9.2528   -1.2398 H       1  LIG1        0.0660
     72 C         -14.8921    5.1624   -0.4058 C.ar    1  LIG1        0.1730
     73 C         -16.0836    4.5022   -0.5306 C.ar    1  LIG1        0.1025
     74 C         -15.9491    3.2333    0.1538 C.ar    1  LIG1        0.0135
     75 C         -14.6796    3.2142    0.6268 C.ar    1  LIG1        0.1451
     76 O         -14.0404    4.3839    0.2967 O.2     1  LIG1       -0.4515
     77 N         -18.3147    5.2252   -1.6010 N.1     1  LIG1       -0.1907
     78 C         -17.2953    4.9416   -1.1545 C.1     1  LIG1        0.1033
     79 C         -17.0396    2.2058    0.3037 C.3     1  LIG1       -0.0349
     80 H         -16.8369    1.5638    1.1602 H       1  LIG1        0.0279
     81 H         -17.1140    1.5947   -0.5972 H       1  LIG1        0.0279
     82 H         -17.9935    2.7106    0.4537 H       1  LIG1        0.0279
     83 C         -13.0174    2.6127    2.4232 C.ar    1  LIG1        0.2233
     84 C         -13.9106    2.2251    1.3919 C.ar    1  LIG1        0.0801
     85 C         -14.0558    0.8690    1.1462 C.ar    1  LIG1       -0.0271
     86 C         -13.3555   -0.0449    1.9351 C.ar    1  LIG1        0.0707
     87 C         -12.5140    0.4464    2.9323 C.ar    1  LIG1        0.0488
     88 N         -12.3498    1.7419    3.1599 N.ar    1  LIG1       -0.2196
     89 H         -14.6942    0.5236    0.3433 H       1  LIG1        0.0640
     90 H         -11.9561   -0.2368    3.5605 H       1  LIG1        0.0844
     91 O         -12.7953    3.8946    2.7237 O.3     1  LIG1       -0.4919
     92 H         -13.2457    4.4863    2.1084 H       1  LIG1        0.2937
     93 N         -13.5900   -2.5955    1.5456 N.1     1  LIG1       -0.1908
     94 C         -13.4839   -1.4664    1.7187 C.1     1  LIG1        0.1007
@<TRIPOS>BOND
     1     8     7    1
     2     6     1    1
     3     7     9    1
     4     7     2    1
     5    65    64    1
     6     1     2   ar
     7     1     5   ar
     8     2     3   ar
     9    57    56    1
    10    64    66    1
    11    64    59    1
    12     5     4   ar
    13    56    48    1
    14    67    60    1
    15    67    68    1
    16     3     4   ar
    17     3    10    1
    18    69    68    1
    19    59    60   ar
    20    59    58   ar
    21    51    47    1
    22    77    78    3
    23    17    16    1
    24    60    61   ar
    25     4    12    1
    26    48    47   ar
    27    48    49   ar
    28    68    71    1
    29    68    70    1
    30    32    30    1
    31    10    11    1
    32    78    73    1
    33    47    46   ar
    34    58    49    1
    35    58    62   ar
    36    49    50   ar
    37    61    62   ar
    38    61    72    1
    39    16    12   ar
    40    16    15   ar
    41    81    79    1
    42    62    63    1
    43    12    13   ar
    44    73    72   ar
    45    73    74   ar
    46    72    76   ar
    47    46    38    1
    48    46    45   ar
    49    40    39    1
    50    30    23    1
    51    30    33    1
    52    30    31    1
    53    50    45   ar
    54    38    39   ar
    55    38    37   ar
    56    39    35   ar
    57    23    28   ar
    58    23    24   ar
    59    28    27   ar
    60    74    79    1
    61    74    75   ar
    62    15    24    1
    63    15    14   ar
    64    45    52    1
    65    24    25   ar
    66    76    75   ar
    67    79    82    1
    68    79    80    1
    69    89    85    1
    70    35    27    1
    71    35    36   ar
    72    27    26   ar
    73    37    44    1
    74    37    36   ar
    75    42    41    1
    76    25    26   ar
    77    25    29    1
    78    36    41    1
    79    26    34    1
    80    13    14   ar
    81    13    18    1
    82    75    84    1
    83    54    52    1
    84    41    43    1
    85    14    22    1
    86    85    84   ar
    87    85    86   ar
    88    52    55    1
    89    52    53    1
    90    18    19    3
    91    84    83   ar
    92    93    94    3
    93    94    86    1
    94    19    20    1
    95    86    87   ar
    96    92    91    1
    97    22    21    3
    98    83    91    1
    99    83    88   ar
   100    87    88   ar
   101    87    90    1
