@<TRIPOS>MOLECULE
mol_data/opt/m06hf/geoms/mol2/12hf12de-12da6ea12le-4hd-4ah6fi.out
 92 99 0 0 0
SMALL
GASTEIGER

@<TRIPOS>ATOM
      1 C           1.5884    2.4906   -0.5884 C.ar    1  LIG1        0.1171
      2 C           2.6073    2.8015   -1.4279 C.ar    1  LIG1        0.1057
      3 C           2.6121    4.2392   -1.5105 C.ar    1  LIG1        0.1870
      4 C           1.5914    4.6764   -0.7125 C.ar    1  LIG1        0.2140
      5 O           0.9645    3.6128   -0.1517 O.2     1  LIG1       -0.4541
      6 H           1.2122    1.5536   -0.2197 H       1  LIG1        0.1050
      7 N           3.5372    1.9915   -2.0811 N.pl3   1  LIG1       -0.3527
      8 H           3.1335    1.1778   -2.5257 H       1  LIG1        0.1425
      9 H           4.0919    2.5301   -2.7361 H       1  LIG1        0.1425
     10 O           3.4688    4.8738   -2.3342 O.3     1  LIG1       -0.5019
     11 H           3.7629    5.7334   -2.0018 H       1  LIG1        0.2924
     12 C           1.0685    5.9901   -0.4157 C.ar    1  LIG1        0.1929
     13 C           1.6106    7.2459   -0.4913 C.ar    1  LIG1        0.1167
     14 C           0.5712    8.1745   -0.1175 C.ar    1  LIG1        0.0916
     15 C          -0.5022    7.3901    0.1852 C.ar    1  LIG1        0.1886
     16 O          -0.2003    6.0832   -0.0031 O.2     1  LIG1       -0.4458
     17 N           4.0635    7.6790   -1.1434 N.1     1  LIG1       -0.1907
     18 C           2.9630    7.5277   -0.8468 C.1     1  LIG1        0.1043
     19 C           0.6539    9.5976   -0.0954 C.1     1  LIG1       -0.0644
     20 C           0.7201   10.7954   -0.0754 C.1     1  LIG1       -0.1138
     21 H           0.7713   11.8595   -0.0368 H       1  LIG1        0.1232
     22 C          -1.8519    7.6621    0.6455 C.ar    1  LIG1        0.1891
     23 C          -2.4374    8.6302    1.4178 C.ar    1  LIG1        0.1011
     24 C          -3.8169    8.2553    1.5477 C.ar    1  LIG1        0.0024
     25 C          -3.9517    7.0921    0.8515 C.ar    1  LIG1        0.1398
     26 O          -2.7696    6.7559    0.2989 O.2     1  LIG1       -0.4503
     27 N          -1.3145   10.6374    2.5875 N.1     1  LIG1       -0.1907
     28 C          -1.7971    9.7433    2.0547 C.1     1  LIG1        0.1031
     29 H          -4.5663    8.7692    2.1241 H       1  LIG1        0.0668
     30 C          -4.9539    4.8006    0.5065 C.ar    1  LIG1        0.1246
     31 C          -5.0969    6.1963    0.6352 C.ar    1  LIG1        0.0511
     32 C          -6.3872    6.7265    0.5804 C.ar    1  LIG1       -0.0463
     33 C          -7.4714    5.8847    0.4122 C.ar    1  LIG1       -0.0318
     34 C          -7.2164    4.5131    0.2887 C.ar    1  LIG1        0.1111
     35 N          -5.9961    3.9898    0.3337 N.ar    1  LIG1       -0.2345
     36 H          -6.5290    7.7971    0.6572 H       1  LIG1        0.0626
     37 C          -3.6494    4.1719    0.5580 C.1     1  LIG1       -0.0491
     38 C          -2.5466    3.6987    0.5889 C.1     1  LIG1       -0.1124
     39 H          -1.5463    3.3254    0.5987 H       1  LIG1        0.1232
     40 H          -8.4879    6.2502    0.3697 H       1  LIG1        0.0640
     41 C          -8.3276    3.5737    0.0868 C.ar    1  LIG1        0.1964
     42 C          -9.6367    3.7635   -0.2330 C.ar    1  LIG1        0.1832
     43 C         -10.2339    2.4541   -0.3258 C.ar    1  LIG1        0.1127
     44 C          -9.2274    1.5690   -0.0237 C.ar    1  LIG1        0.1566
     45 O          -8.0948    2.2495    0.2181 O.2     1  LIG1       -0.4482
     46 O         -10.2618    4.9477   -0.4409 O.3     1  LIG1       -0.4901
     47 C         -10.4909    5.2323   -1.8277 C.3     1  LIG1        0.0790
     48 H         -11.0190    6.1813   -1.8571 H       1  LIG1        0.0660
     49 H          -9.5338    5.3088   -2.3467 H       1  LIG1        0.0660
     50 H         -11.1013    4.4468   -2.2737 H       1  LIG1        0.0660
     51 C         -11.5834    2.1862   -0.7155 C.1     1  LIG1       -0.0622
     52 C         -12.7238    1.9765   -1.0358 C.1     1  LIG1       -0.1137
     53 H         -13.7316    1.7929   -1.3311 H       1  LIG1        0.1232
     54 C         -10.1085   -0.7240    0.6112 C.ar    1  LIG1        0.0360
     55 C          -9.8700   -2.1138    0.6504 C.ar    1  LIG1       -0.0314
     56 C          -9.1134    0.1045    0.0429 C.ar    1  LIG1        0.0405
     57 C          -8.6984   -2.6785    0.1813 C.ar    1  LIG1        0.0013
     58 H         -10.6132   -2.7569    1.1061 H       1  LIG1        0.0643
     59 C          -7.9255   -0.4624   -0.4159 C.ar    1  LIG1       -0.0313
     60 C          -7.7074   -1.8327   -0.3581 C.ar    1  LIG1        0.0602
     61 H          -7.1614    0.1846   -0.8270 H       1  LIG1        0.0638
     62 N         -11.2412   -0.2283    1.1742 N.pl3   1  LIG1       -0.3574
     63 H         -11.5397    0.7164    0.9950 H       1  LIG1        0.1423
     64 H         -11.9481   -0.8728    1.4855 H       1  LIG1        0.1423
     65 N          -5.4745   -2.7640   -1.2940 N.1     1  LIG1       -0.1908
     66 C          -6.4690   -2.3620   -0.8835 C.1     1  LIG1        0.0998
     67 C          -9.5263   -5.0136   -0.1778 C.ar    1  LIG1       -0.0533
     68 C          -9.3664   -6.3879   -0.0607 C.ar    1  LIG1       -0.0515
     69 C          -8.5168   -4.1574    0.2661 C.ar    1  LIG1       -0.0148
     70 C          -8.2105   -6.9441    0.4924 C.ar    1  LIG1        0.0079
     71 H         -10.1599   -7.0531   -0.3769 H       1  LIG1        0.0624
     72 C          -7.3499   -4.6955    0.8043 C.ar    1  LIG1       -0.0327
     73 C          -7.1905   -6.0744    0.9063 C.ar    1  LIG1        0.0331
     74 H          -6.5569   -4.0403    1.1450 H       1  LIG1        0.0642
     75 H         -10.4260   -4.6028   -0.6169 H       1  LIG1        0.0624
     76 N          -6.0194   -6.6253    1.4871 N.pl3   1  LIG1       -0.3575
     77 H          -5.6194   -7.3670    0.9161 H       1  LIG1        0.1423
     78 H          -5.3130   -5.9293    1.6976 H       1  LIG1        0.1423
     79 C          -7.7567   -9.0683    1.8353 C.ar    1  LIG1        0.2203
     80 C          -8.0933   -8.4265    0.6161 C.ar    1  LIG1        0.0455
     81 C          -8.4185   -9.2416   -0.4636 C.ar    1  LIG1       -0.0445
     82 C          -8.4379  -10.6296   -0.3377 C.ar    1  LIG1       -0.0315
     83 C          -8.1247  -11.1330    0.9212 C.ar    1  LIG1        0.0343
     84 N          -7.7863  -10.3842    1.9674 N.ar    1  LIG1       -0.2207
     85 H          -8.6614   -8.7787   -1.4150 H       1  LIG1        0.0628
     86 H          -8.1405  -12.2041    1.0946 H       1  LIG1        0.0833
     87 O          -7.4210   -8.3712    2.9306 O.3     1  LIG1       -0.4920
     88 H          -6.8641   -7.5974    2.6655 H       1  LIG1        0.2937
     89 C          -8.7810  -11.5368   -1.5021 C.3     1  LIG1       -0.0383
     90 H          -8.8194  -12.5751   -1.1735 H       1  LIG1        0.0278
     91 H          -8.0306  -11.4512   -2.2896 H       1  LIG1        0.0278
     92 H          -9.7522  -11.2715   -1.9220 H       1  LIG1        0.0278
@<TRIPOS>BOND
     1     9     7    1
     2     8     7    1
     3    49    47    1
     4    10    11    1
     5    10     3    1
     6    91    89    1
     7    50    47    1
     8     7     2    1
     9    92    89    1
    10    48    47    1
    11    47    46    1
    12     3     2   ar
    13     3     4   ar
    14    89    90    1
    15    89    82    1
    16     2     1   ar
    17    85    81    1
    18    53    52    1
    19    65    66    3
    20    17    18    3
    21    52    51    3
    22    66    60    1
    23    18    13    1
    24    61    59    1
    25    51    43    1
    26     4    12    1
    27     4     5   ar
    28    75    67    1
    29     1     6    1
    30     1     5   ar
    31    13    12   ar
    32    13    14   ar
    33    81    82   ar
    34    81    80   ar
    35    46    42    1
    36    59    60   ar
    37    59    56   ar
    38    12    16   ar
    39    71    68    1
    40    60    57   ar
    41    82    83   ar
    42    43    42   ar
    43    43    44   ar
    44    42    41   ar
    45    67    68   ar
    46    67    69   ar
    47    14    19    1
    48    14    15   ar
    49    19    20    3
    50    20    21    1
    51    68    70   ar
    52    44    56    1
    53    44    45   ar
    54    16    15   ar
    55    56    54   ar
    56    41    45   ar
    57    41    34    1
    58    57    69    1
    59    57    55   ar
    60    15    22    1
    61    69    72   ar
    62    34    35   ar
    63    34    33   ar
    64    26    22   ar
    65    26    25   ar
    66    35    30   ar
    67    40    33    1
    68    33    32   ar
    69    70    80    1
    70    70    73   ar
    71    30    37    1
    72    30    31   ar
    73    37    38    3
    74    32    31   ar
    75    32    36    1
    76    38    39    1
    77    54    55   ar
    78    54    62    1
    79    80    79   ar
    80    31    25    1
    81    22    23   ar
    82    55    58    1
    83    72    73   ar
    84    72    74    1
    85    25    24   ar
    86    73    76    1
    87    77    76    1
    88    83    86    1
    89    83    84   ar
    90    63    62    1
    91    62    64    1
    92    23    24   ar
    93    23    28    1
    94    76    78    1
    95    24    29    1
    96    79    84   ar
    97    79    87    1
    98    28    27    3
    99    88    87    1
