@<TRIPOS>MOLECULE
mol_data/opt/m06hf/geoms/mol2/12hg12hg-.out
 22 23 0 0 0
SMALL
GASTEIGER

@<TRIPOS>ATOM
      1 C           0.2224    1.7867   -0.6045 C.ar    1  LIG1        0.1144
      2 C           1.4927    1.8074   -0.1265 C.ar    1  LIG1        0.0769
      3 C           1.7358    3.1717    0.2805 C.ar    1  LIG1        0.0745
      4 C           0.5901    3.8509   -0.0043 C.ar    1  LIG1        0.1865
      5 O          -0.3290    3.0266   -0.5436 O.2     1  LIG1       -0.4567
      6 H          -0.3973    0.9999   -0.9946 H       1  LIG1        0.1049
      7 N           2.4088    0.7664    0.0527 N.pl3   1  LIG1       -0.3547
      8 H           2.2097   -0.0519   -0.5074 H       1  LIG1        0.1424
      9 H           3.3645    1.0768   -0.0816 H       1  LIG1        0.1424
     10 S           3.2167    3.7289    1.0566 S.3     1  LIG1       -0.1371
     11 H           3.2239    4.9433    0.4517 H       1  LIG1        0.1073
     12 C           0.2834    5.2642    0.1388 C.ar    1  LIG1        0.1924
     13 C           1.0453    6.3655   -0.1100 C.ar    1  LIG1        0.0874
     14 C           0.2396    7.4967    0.2792 C.ar    1  LIG1        0.0640
     15 C          -0.9371    6.9783    0.7152 C.ar    1  LIG1        0.1077
     16 O          -0.9277    5.6441    0.6239 O.2     1  LIG1       -0.4568
     17 H          -1.8294    7.4424    1.0985 H       1  LIG1        0.1041
     18 N           2.3506    6.3939   -0.6333 N.pl3   1  LIG1       -0.3541
     19 H           2.4088    5.9580   -1.5487 H       1  LIG1        0.1425
     20 H           2.7117    7.3422   -0.6663 H       1  LIG1        0.1425
     21 S           0.7257    9.1939    0.2431 S.3     1  LIG1       -0.1378
     22 H           0.3211    9.4558   -1.0061 H       1  LIG1        0.1073
@<TRIPOS>BOND
     1    19    18    1
     2    22    21    1
     3     6     1    1
     4    20    18    1
     5    18    13    1
     6     1     5   ar
     7     1     2   ar
     8     5     4   ar
     9     8     7    1
    10     2     7    1
    11     2     3   ar
    12    13    12   ar
    13    13    14   ar
    14     9     7    1
    15     4    12    1
    16     4     3   ar
    17    12    16   ar
    18    21    14    1
    19    14    15   ar
    20     3    10    1
    21    11    10    1
    22    16    15   ar
    23    15    17    1
