@<TRIPOS>MOLECULE
mol_data/opt/m06hf/geoms/mol2/12hg12hg-12hg-12hg-.out
 42 45 0 0 0
SMALL
GASTEIGER

@<TRIPOS>ATOM
      1 C           1.1810    1.4606   -0.0365 C.ar    1  LIG1        0.1144
      2 C           2.4140    1.8555    0.3718 C.ar    1  LIG1        0.0769
      3 C           2.3836    3.2990    0.3713 C.ar    1  LIG1        0.0745
      4 C           1.1355    3.6405   -0.0540 C.ar    1  LIG1        0.1865
      5 O           0.4011    2.5389   -0.3041 O.2     1  LIG1       -0.4567
      6 H           0.7313    0.4937   -0.1711 H       1  LIG1        0.1049
      7 N           3.5087    1.0997    0.8037 N.pl3   1  LIG1       -0.3547
      8 H           3.4867    0.1390    0.4888 H       1  LIG1        0.1424
      9 H           4.3895    1.5413    0.5642 H       1  LIG1        0.1424
     10 S           3.7177    4.3184    0.9043 S.3     1  LIG1       -0.1371
     11 H           3.4853    5.3027   -0.0094 H       1  LIG1        0.1073
     12 C           0.5422    4.9451   -0.2948 C.ar    1  LIG1        0.1934
     13 C           1.0702    6.0862   -0.8244 C.ar    1  LIG1        0.0882
     14 C           0.0162    7.0670   -0.7963 C.ar    1  LIG1        0.0752
     15 C          -1.0585    6.4268   -0.2529 C.ar    1  LIG1        0.1875
     16 O          -0.7496    5.1484    0.0484 O.2     1  LIG1       -0.4455
     17 N           2.3783    6.2581   -1.3292 N.pl3   1  LIG1       -0.3541
     18 H           2.5217    5.7476   -2.1956 H       1  LIG1        0.1425
     19 H           2.5822    7.2432   -1.4745 H       1  LIG1        0.1425
     20 S           0.1425    8.6913   -1.4628 S.3     1  LIG1       -0.1371
     21 H          -0.6840    9.2607   -0.5301 H       1  LIG1        0.1073
     22 C          -2.3863    6.9210    0.0638 C.ar    1  LIG1        0.1935
     23 C          -2.7907    8.1330    0.5427 C.ar    1  LIG1        0.0882
     24 C          -4.2231    8.0584    0.6594 C.ar    1  LIG1        0.0752
     25 C          -4.5559    6.8030    0.2429 C.ar    1  LIG1        0.1875
     26 O          -3.4543    6.1122   -0.1180 O.2     1  LIG1       -0.4455
     27 N          -1.9616    9.2227    0.8896 N.pl3   1  LIG1       -0.3541
     28 H          -2.5138   10.0607    1.0500 H       1  LIG1        0.1425
     29 H          -1.3954    9.0228    1.7104 H       1  LIG1        0.1425
     30 S          -5.2407    9.3176    1.3533 S.3     1  LIG1       -0.1371
     31 H          -6.2837    9.1239    0.4991 H       1  LIG1        0.1073
     32 C          -5.8645    6.1922    0.1039 C.ar    1  LIG1        0.1924
     33 C          -7.0365    6.7229   -0.3447 C.ar    1  LIG1        0.0874
     34 C          -8.0211    5.6806   -0.1911 C.ar    1  LIG1        0.0640
     35 C          -7.3535    4.6162    0.3249 C.ar    1  LIG1        0.1077
     36 O          -6.0593    4.9073    0.4946 O.2     1  LIG1       -0.4568
     37 H          -7.6791    3.6283    0.6022 H       1  LIG1        0.1041
     38 N          -7.2420    8.0205   -0.8467 N.pl3   1  LIG1       -0.3541
     39 H          -6.6582    8.2183   -1.6542 H       1  LIG1        0.1425
     40 H          -8.2205    8.1754   -1.0703 H       1  LIG1        0.1425
     41 S          -9.7462    5.8067   -0.5486 S.3     1  LIG1       -0.1378
     42 H          -9.6817    5.4284   -1.8323 H       1  LIG1        0.1073
@<TRIPOS>BOND
     1    18    17    1
     2    42    41    1
     3    39    38    1
     4    19    17    1
     5    20    14    1
     6    20    21    1
     7    17    13    1
     8    40    38    1
     9    38    33    1
    10    13    14   ar
    11    13    12   ar
    12    14    15   ar
    13    41    34    1
    14    33    34   ar
    15    33    32   ar
    16     5     4   ar
    17     5     1   ar
    18    12     4    1
    19    12    16   ar
    20    15    16   ar
    21    15    22    1
    22    34    35   ar
    23     6     1    1
    24    26    22   ar
    25    26    25   ar
    26     4     3   ar
    27     1     2   ar
    28    11    10    1
    29    22    23   ar
    30    32    25    1
    31    32    36   ar
    32    25    24   ar
    33    35    36   ar
    34    35    37    1
    35     3     2   ar
    36     3    10    1
    37     2     7    1
    38     8     7    1
    39    31    30    1
    40    23    24   ar
    41    23    27    1
    42     9     7    1
    43    24    30    1
    44    27    28    1
    45    27    29    1
