@<TRIPOS>MOLECULE
mol_data/opt/m06hf/geoms/mol2/12hg12hg12hg12hg.out
 42 45 0 0 0
SMALL
GASTEIGER

@<TRIPOS>ATOM
      1 C           1.1819    1.4615   -0.0341 C.ar    1  LIG1        0.1144
      2 C           2.4157    1.8586    0.3695 C.ar    1  LIG1        0.0769
      3 C           2.3854    3.3020    0.3611 C.ar    1  LIG1        0.0745
      4 C           1.1364    3.6412   -0.0636 C.ar    1  LIG1        0.1865
      5 O           0.4015    2.5383   -0.3061 O.2     1  LIG1       -0.4567
      6 H           0.7320    0.4938   -0.1624 H       1  LIG1        0.1049
      7 N           3.5113    1.1051    0.8033 N.pl3   1  LIG1       -0.3547
      8 H           3.4883    0.1425    0.4943 H       1  LIG1        0.1424
      9 H           4.3917    1.5451    0.5593 H       1  LIG1        0.1424
     10 S           3.7207    4.3244    0.8854 S.3     1  LIG1       -0.1371
     11 H           3.4858    5.3035   -0.0332 H       1  LIG1        0.1073
     12 C           0.5424    4.9444   -0.3104 C.ar    1  LIG1        0.1934
     13 C           1.0692    6.0827   -0.8471 C.ar    1  LIG1        0.0882
     14 C           0.0149    7.0633   -0.8227 C.ar    1  LIG1        0.0752
     15 C          -1.0587    6.4257   -0.2740 C.ar    1  LIG1        0.1875
     16 O          -0.7489    5.1491    0.0339 O.2     1  LIG1       -0.4455
     17 N           2.3764    6.2523   -1.3551 N.pl3   1  LIG1       -0.3541
     18 H           2.5179    5.7383   -2.2199 H       1  LIG1        0.1425
     19 H           2.5802    7.2367   -1.5048 H       1  LIG1        0.1425
     20 S           0.1398    8.6839   -1.4984 S.3     1  LIG1       -0.1371
     21 H          -0.6855    9.2584   -0.5678 H       1  LIG1        0.1073
     22 C          -2.3861    6.9213    0.0421 C.ar    1  LIG1        0.1935
     23 C          -2.7899    8.1359    0.5151 C.ar    1  LIG1        0.0882
     24 C          -4.2222    8.0621    0.6337 C.ar    1  LIG1        0.0752
     25 C          -4.5555    6.8045    0.2243 C.ar    1  LIG1        0.1875
     26 O          -3.4544    6.1116   -0.1342 O.2     1  LIG1       -0.4455
     27 N          -1.9603    9.2274    0.8552 N.pl3   1  LIG1       -0.3541
     28 H          -2.5123   10.0658    1.0137 H       1  LIG1        0.1425
     29 H          -1.3915    9.0309    1.6749 H       1  LIG1        0.1425
     30 S          -5.2391    9.3249    1.3220 S.3     1  LIG1       -0.1371
     31 H          -6.2829    9.1267    0.4700 H       1  LIG1        0.1073
     32 C          -5.8644    6.1930    0.0901 C.ar    1  LIG1        0.1924
     33 C          -7.0369    6.7214   -0.3598 C.ar    1  LIG1        0.0874
     34 C          -8.0214    5.6799   -0.1993 C.ar    1  LIG1        0.0640
     35 C          -7.3530    4.6182    0.3214 C.ar    1  LIG1        0.1077
     36 O          -6.0587    4.9102    0.4879 O.2     1  LIG1       -0.4568
     37 H          -7.6784    3.6319    0.6045 H       1  LIG1        0.1041
     38 N          -7.2429    8.0162   -0.8686 N.pl3   1  LIG1       -0.3541
     39 H          -6.6602    8.2095   -1.6779 H       1  LIG1        0.1425
     40 H          -8.2217    8.1700   -1.0917 H       1  LIG1        0.1425
     41 S          -9.7469    5.8043   -0.5551 S.3     1  LIG1       -0.1378
     42 H          -9.6842    5.4192   -1.8369 H       1  LIG1        0.1073
@<TRIPOS>BOND
     1    18    17    1
     2    42    41    1
     3    39    38    1
     4    19    17    1
     5    20    14    1
     6    20    21    1
     7    17    13    1
     8    40    38    1
     9    38    33    1
    10    13    14   ar
    11    13    12   ar
    12    14    15   ar
    13    41    34    1
    14    33    34   ar
    15    33    32   ar
    16    12     4    1
    17    12    16   ar
    18     5     4   ar
    19     5     1   ar
    20    15    16   ar
    21    15    22    1
    22    34    35   ar
    23     6     1    1
    24    26    22   ar
    25    26    25   ar
    26     4     3   ar
    27     1     2   ar
    28    11    10    1
    29    22    23   ar
    30    32    25    1
    31    32    36   ar
    32    25    24   ar
    33    35    36   ar
    34    35    37    1
    35     3     2   ar
    36     3    10    1
    37     2     7    1
    38    31    30    1
    39     8     7    1
    40    23    24   ar
    41    23    27    1
    42     9     7    1
    43    24    30    1
    44    27    28    1
    45    27    29    1
