@<TRIPOS>MOLECULE
mol_data/opt/m06hf/geoms/mol2/12hg12hg-12hg.out
 32 34 0 0 0
SMALL
GASTEIGER

@<TRIPOS>ATOM
      1 C           0.6226    1.7450   -1.1737 C.ar    1  LIG1        0.1144
      2 C           1.7187    1.7412   -0.3724 C.ar    1  LIG1        0.0769
      3 C           1.7688    3.0537    0.2281 C.ar    1  LIG1        0.0745
      4 C           0.7029    3.7338   -0.2810 C.ar    1  LIG1        0.1865
      5 O           0.0081    2.9551   -1.1329 O.2     1  LIG1       -0.4567
      6 H           0.1708    0.9923   -1.7937 H       1  LIG1        0.1049
      7 N           2.6072    0.7067   -0.0649 N.pl3   1  LIG1       -0.3547
      8 H           2.6298   -0.0295   -0.7580 H       1  LIG1        0.1424
      9 H           3.5395    1.0523    0.1322 H       1  LIG1        0.1424
     10 S           2.9527    3.5359    1.4410 S.3     1  LIG1       -0.1371
     11 H           3.0700    4.8206    1.0224 H       1  LIG1        0.1073
     12 C           0.3025    5.1159   -0.0894 C.ar    1  LIG1        0.1934
     13 C           1.0651    6.2453   -0.0424 C.ar    1  LIG1        0.0882
     14 C           0.1588    7.3271    0.2386 C.ar    1  LIG1        0.0752
     15 C          -1.0800    6.7568    0.2946 C.ar    1  LIG1        0.1875
     16 O          -1.0054    5.4277    0.0839 O.2     1  LIG1       -0.4455
     17 N           2.4571    6.3329   -0.2157 N.pl3   1  LIG1       -0.3541
     18 H           2.7642    5.8339   -1.0460 H       1  LIG1        0.1425
     19 H           2.7671    7.2986   -0.2539 H       1  LIG1        0.1425
     20 S           0.6364    9.0047    0.4964 S.3     1  LIG1       -0.1371
     21 H          -0.4301    9.5380   -0.1561 H       1  LIG1        0.1073
     22 C          -2.3801    7.3823    0.4585 C.ar    1  LIG1        0.1924
     23 C          -2.8772    8.5305   -0.0808 C.ar    1  LIG1        0.0874
     24 C          -4.1969    8.6876    0.4776 C.ar    1  LIG1        0.0640
     25 C          -4.3799    7.6172    1.2943 C.ar    1  LIG1        0.1077
     26 O          -3.3044    6.8237    1.2816 O.2     1  LIG1       -0.4568
     27 H          -5.2078    7.3187    1.9141 H       1  LIG1        0.1041
     28 N          -2.2318    9.3872   -0.9894 N.pl3   1  LIG1       -0.3541
     29 H          -1.9648    8.9123   -1.8467 H       1  LIG1        0.1425
     30 H          -2.8014   10.2020   -1.1959 H       1  LIG1        0.1425
     31 S          -5.3091   10.0264    0.1802 S.3     1  LIG1       -0.1378
     32 H          -5.9242    9.4939   -0.8824 H       1  LIG1        0.1073
@<TRIPOS>BOND
     1    29    28    1
     2     6     1    1
     3    30    28    1
     4     1     5   ar
     5     1     2   ar
     6     5     4   ar
     7    18    17    1
     8    28    23    1
     9    32    31    1
    10     8     7    1
    11     2     7    1
    12     2     3   ar
    13     4    12    1
    14     4     3   ar
    15    19    17    1
    16    17    13    1
    17    21    20    1
    18    12    13   ar
    19    12    16   ar
    20    23    22   ar
    21    23    24   ar
    22     7     9    1
    23    13    14   ar
    24    16    15   ar
    25    31    24    1
    26     3    10    1
    27    14    15   ar
    28    14    20    1
    29    15    22    1
    30    22    26   ar
    31    24    25   ar
    32    11    10    1
    33    26    25   ar
    34    25    27    1
