@<TRIPOS>MOLECULE
mol_data/opt/m06hf/geoms/mol2/12hg12hg12hg.out
 32 34 0 0 0
SMALL
GASTEIGER

@<TRIPOS>ATOM
      1 C           0.6292    1.7453   -1.1837 C.ar    1  LIG1        0.1144
      2 C           1.7187    1.7400   -0.3733 C.ar    1  LIG1        0.0769
      3 C           1.7647    3.0520    0.2287 C.ar    1  LIG1        0.0745
      4 C           0.7035    3.7333   -0.2886 C.ar    1  LIG1        0.1865
      5 O           0.0152    2.9558   -1.1469 O.2     1  LIG1       -0.4567
      6 H           0.1819    0.9935   -1.8080 H       1  LIG1        0.1049
      7 N           2.6038    0.7046   -0.0594 N.pl3   1  LIG1       -0.3547
      8 H           2.6316   -0.0310   -0.7530 H       1  LIG1        0.1424
      9 H           3.5347    1.0494    0.1457 H       1  LIG1        0.1424
     10 S           2.9389    3.5322    1.4518 S.3     1  LIG1       -0.1371
     11 H           3.0605    4.8172    1.0354 H       1  LIG1        0.1073
     12 C           0.3025    5.1155   -0.0991 C.ar    1  LIG1        0.1934
     13 C           1.0656    6.2443   -0.0447 C.ar    1  LIG1        0.0882
     14 C           0.1577    7.3265    0.2298 C.ar    1  LIG1        0.0752
     15 C          -1.0819    6.7571    0.2750 C.ar    1  LIG1        0.1875
     16 O          -1.0066    5.4281    0.0637 O.2     1  LIG1       -0.4455
     17 N           2.4590    6.3311   -0.2064 N.pl3   1  LIG1       -0.3541
     18 H           2.7726    5.8325   -1.0346 H       1  LIG1        0.1425
     19 H           2.7700    7.2966   -0.2413 H       1  LIG1        0.1425
     20 S           0.6344    9.0035    0.4930 S.3     1  LIG1       -0.1371
     21 H          -0.4263    9.5382   -0.1678 H       1  LIG1        0.1073
     22 C          -2.3829    7.3834    0.4288 C.ar    1  LIG1        0.1924
     23 C          -2.8747    8.5323   -0.1136 C.ar    1  LIG1        0.0874
     24 C          -4.1988    8.6900    0.4340 C.ar    1  LIG1        0.0640
     25 C          -4.3894    7.6190    1.2482 C.ar    1  LIG1        0.1077
     26 O          -3.3144    6.8247    1.2437 O.2     1  LIG1       -0.4568
     27 H          -5.2226    7.3206    1.8609 H       1  LIG1        0.1041
     28 N          -2.2212    9.3894   -1.0161 N.pl3   1  LIG1       -0.3541
     29 H          -1.9475    8.9150   -1.8716 H       1  LIG1        0.1425
     30 H          -2.7885   10.2048   -1.2265 H       1  LIG1        0.1425
     31 S          -5.3076   10.0298    0.1287 S.3     1  LIG1       -0.1378
     32 H          -5.9142    9.4987   -0.9395 H       1  LIG1        0.1073
@<TRIPOS>BOND
     1    29    28    1
     2     6     1    1
     3    30    28    1
     4     1     5   ar
     5     1     2   ar
     6     5     4   ar
     7    18    17    1
     8    28    23    1
     9    32    31    1
    10     8     7    1
    11     2     7    1
    12     2     3   ar
    13     4    12    1
    14     4     3   ar
    15    19    17    1
    16    17    13    1
    17    21    20    1
    18    23    22   ar
    19    23    24   ar
    20    12    13   ar
    21    12    16   ar
    22     7     9    1
    23    13    14   ar
    24    16    15   ar
    25    31    24    1
    26     3    10    1
    27    14    15   ar
    28    14    20    1
    29    15    22    1
    30    22    26   ar
    31    24    25   ar
    32    11    10    1
    33    26    25   ar
    34    25    27    1
