@<TRIPOS>MOLECULE
mol_data/opt/m06hf/geoms/mol2/12hg12hg.out
 22 23 0 0 0
SMALL
GASTEIGER

@<TRIPOS>ATOM
      1 C           0.2264    1.7883   -0.6147 C.ar    1  LIG1        0.1144
      2 C           1.4929    1.8075   -0.1265 C.ar    1  LIG1        0.0769
      3 C           1.7330    3.1706    0.2859 C.ar    1  LIG1        0.0745
      4 C           0.5899    3.8509   -0.0063 C.ar    1  LIG1        0.1865
      5 O          -0.3251    3.0283   -0.5550 O.2     1  LIG1       -0.4567
      6 H          -0.3903    1.0027   -1.0117 H       1  LIG1        0.1049
      7 N           2.4072    0.7657    0.0574 N.pl3   1  LIG1       -0.3547
      8 H           2.2125   -0.0509   -0.5066 H       1  LIG1        0.1424
      9 H           3.3640    1.0763   -0.0682 H       1  LIG1        0.1424
     10 S           3.2078    3.7255    1.0753 S.3     1  LIG1       -0.1371
     11 H           3.2204    4.9413    0.4733 H       1  LIG1        0.1073
     12 C           0.2824    5.2639    0.1380 C.ar    1  LIG1        0.1924
     13 C           1.0465    6.3656   -0.1019 C.ar    1  LIG1        0.0874
     14 C           0.2381    7.4961    0.2838 C.ar    1  LIG1        0.0640
     15 C          -0.9422    6.9769    0.7090 C.ar    1  LIG1        0.1077
     16 O          -0.9325    5.6430    0.6143 O.2     1  LIG1       -0.4568
     17 H          -1.8374    7.4403    1.0863 H       1  LIG1        0.1041
     18 N           2.3560    6.3949   -0.6147 N.pl3   1  LIG1       -0.3541
     19 H           2.4214    5.9614   -1.5307 H       1  LIG1        0.1425
     20 H           2.7176    7.3432   -0.6424 H       1  LIG1        0.1425
     21 S           0.7249    9.1932    0.2559 S.3     1  LIG1       -0.1378
     22 H           0.3305    9.4584   -0.9958 H       1  LIG1        0.1073
@<TRIPOS>BOND
     1    19    18    1
     2     6     1    1
     3    22    21    1
     4    20    18    1
     5    18    13    1
     6     1     5   ar
     7     1     2   ar
     8     5     4   ar
     9     8     7    1
    10     2     7    1
    11     2     3   ar
    12    13    12   ar
    13    13    14   ar
    14     9     7    1
    15     4    12    1
    16     4     3   ar
    17    12    16   ar
    18    21    14    1
    19    14    15   ar
    20     3    10    1
    21    11    10    1
    22    16    15   ar
    23    15    17    1
