@<TRIPOS>MOLECULE
mol_data/opt/m06hf/geoms/mol2/12hg12hg12hg-12hg.out
 42 45 0 0 0
SMALL
GASTEIGER

@<TRIPOS>ATOM
      1 C           1.3854    2.0131   -2.0025 C.ar    1  LIG1        0.1144
      2 C           2.2701    1.8602   -0.9836 C.ar    1  LIG1        0.0769
      3 C           2.0719    3.0001   -0.1196 C.ar    1  LIG1        0.0745
      4 C           1.0936    3.7444   -0.7085 C.ar    1  LIG1        0.1865
      5 O           0.6750    3.1601   -1.8482 O.2     1  LIG1       -0.4567
      6 H           1.1529    1.4102   -2.8615 H       1  LIG1        0.1049
      7 N           3.1527    0.8121   -0.7061 N.pl3   1  LIG1       -0.3547
      8 H           3.3887    0.2559   -1.5173 H       1  LIG1        0.1424
      9 H           3.9869    1.1350   -0.2291 H       1  LIG1        0.1424
     10 S           2.9041    3.2339    1.4176 S.3     1  LIG1       -0.1371
     11 H           3.0138    4.5796    1.3104 H       1  LIG1        0.1073
     12 C           0.5420    5.0299   -0.3200 C.ar    1  LIG1        0.1934
     13 C           1.1721    6.1383    0.1650 C.ar    1  LIG1        0.0882
     14 C           0.1340    7.0917    0.4565 C.ar    1  LIG1        0.0752
     15 C          -1.0301    6.4865    0.0786 C.ar    1  LIG1        0.1875
     16 O          -0.7930    5.2506   -0.4031 O.2     1  LIG1       -0.4455
     17 N           2.5540    6.3107    0.3552 N.pl3   1  LIG1       -0.3541
     18 H           3.0823    6.0651   -0.4771 H       1  LIG1        0.1425
     19 H           2.7723    7.2593    0.6432 H       1  LIG1        0.1425
     20 S           0.3863    8.6641    1.2143 S.3     1  LIG1       -0.1371
     21 H          -0.4936    9.3332    0.4252 H       1  LIG1        0.1073
     22 C          -2.3785    7.0212    0.0526 C.ar    1  LIG1        0.1935
     23 C          -2.8139    8.2563   -0.3285 C.ar    1  LIG1        0.0882
     24 C          -4.2287    8.2788   -0.0668 C.ar    1  LIG1        0.0752
     25 C          -4.5276    7.0342    0.4061 C.ar    1  LIG1        0.1875
     26 O          -3.4228    6.2655    0.4690 O.2     1  LIG1       -0.4455
     27 N          -2.0331    9.2980   -0.8613 N.pl3   1  LIG1       -0.3541
     28 H          -1.4772    8.9816   -1.6511 H       1  LIG1        0.1425
     29 H          -2.6103   10.0860   -1.1389 H       1  LIG1        0.1425
     30 S          -5.2730    9.6820   -0.2821 S.3     1  LIG1       -0.1371
     31 H          -6.3391    8.9739   -0.7465 H       1  LIG1        0.1073
     32 C          -5.8132    6.4508    0.7464 C.ar    1  LIG1        0.1924
     33 C          -7.0261    6.5643    0.1368 C.ar    1  LIG1        0.0874
     34 C          -7.9417    5.7943    0.9418 C.ar    1  LIG1        0.0640
     35 C          -7.1977    5.2803    1.9558 C.ar    1  LIG1        0.1077
     36 O          -5.9196    5.6565    1.8410 O.2     1  LIG1       -0.4568
     37 H          -7.4553    4.6499    2.7895 H       1  LIG1        0.1041
     38 N          -7.3192    7.2801   -1.0390 N.pl3   1  LIG1       -0.3541
     39 H          -6.8069    6.9261   -1.8419 H       1  LIG1        0.1425
     40 H          -8.3168    7.2761   -1.2286 H       1  LIG1        0.1425
     41 S          -9.6765    5.6066    0.6717 S.3     1  LIG1       -0.1378
     42 H          -9.5973    4.5533   -0.1514 H       1  LIG1        0.1073
@<TRIPOS>BOND
     1     6     1    1
     2     1     5   ar
     3     1     2   ar
     4     5     4   ar
     5    39    38    1
     6    28    27    1
     7     8     7    1
     8    40    38    1
     9    29    27    1
    10    38    33    1
    11     2     7    1
    12     2     3   ar
    13    27    23    1
    14    31    30    1
    15     4    12    1
    16     4     3   ar
    17     7     9    1
    18    18    17    1
    19    16    12   ar
    20    16    15   ar
    21    23    24   ar
    22    23    22   ar
    23    12    13   ar
    24    30    24    1
    25    42    41    1
    26     3    10    1
    27    24    25   ar
    28    22    15    1
    29    22    26   ar
    30    15    14   ar
    31    33    32   ar
    32    33    34   ar
    33    13    17    1
    34    13    14   ar
    35    17    19    1
    36    25    26   ar
    37    25    32    1
    38    21    20    1
    39    14    20    1
    40    41    34    1
    41    32    36   ar
    42    34    35   ar
    43    11    10    1
    44    36    35   ar
    45    35    37    1
