@<TRIPOS>MOLECULE
mol_data/opt/m06hf/geoms/mol2/12hg12hg-12hg12hg.out
 42 45 0 0 0
SMALL
GASTEIGER

@<TRIPOS>ATOM
      1 C           1.1812    1.4606   -0.0400 C.ar    1  LIG1        0.1144
      2 C           2.4196    1.8579    0.3489 C.ar    1  LIG1        0.0769
      3 C           2.3893    3.3014    0.3398 C.ar    1  LIG1        0.0745
      4 C           1.1354    3.6403   -0.0704 C.ar    1  LIG1        0.1865
      5 O           0.3977    2.5373   -0.3036 O.2     1  LIG1       -0.4567
      6 H           0.7296    0.4929   -0.1624 H       1  LIG1        0.1049
      7 N           3.5201    1.1047    0.7704 N.pl3   1  LIG1       -0.3547
      8 H           3.4938    0.1420    0.4618 H       1  LIG1        0.1424
      9 H           4.3976    1.5447    0.5161 H       1  LIG1        0.1424
     10 S           3.7306    4.3239    0.8481 S.3     1  LIG1       -0.1371
     11 H           3.4857    5.3026   -0.0684 H       1  LIG1        0.1073
     12 C           0.5390    4.9435   -0.3112 C.ar    1  LIG1        0.1934
     13 C           1.0596    6.0812   -0.8551 C.ar    1  LIG1        0.0882
     14 C           0.0062    7.0623   -0.8187 C.ar    1  LIG1        0.0752
     15 C          -1.0610    6.4256   -0.2566 C.ar    1  LIG1        0.1875
     16 O          -0.7480    5.1490    0.0484 O.2     1  LIG1       -0.4455
     17 N           2.3608    6.2499   -1.3788 N.pl3   1  LIG1       -0.3541
     18 H           2.4922    5.7340   -2.2440 H       1  LIG1        0.1425
     19 H           2.5626    7.2340   -1.5330 H       1  LIG1        0.1425
     20 S           0.1234    8.6824   -1.4969 S.3     1  LIG1       -0.1371
     21 H          -0.6903    9.2577   -0.5566 H       1  LIG1        0.1073
     22 C          -2.3843    6.9219    0.0752 C.ar    1  LIG1        0.1935
     23 C          -2.7821    8.1369    0.5521 C.ar    1  LIG1        0.0882
     24 C          -4.2128    8.0632    0.6889 C.ar    1  LIG1        0.0752
     25 C          -4.5512    6.8053    0.2848 C.ar    1  LIG1        0.1875
     26 O          -3.4547    6.1121   -0.0869 O.2     1  LIG1       -0.4455
     27 N          -1.9482    9.2287    0.8808 N.pl3   1  LIG1       -0.3541
     28 H          -2.4982   10.0677    1.0436 H       1  LIG1        0.1425
     29 H          -1.3709    9.0337    1.6949 H       1  LIG1        0.1425
     30 S          -5.2207    9.3268    1.3888 S.3     1  LIG1       -0.1371
     31 H          -6.2753    9.1279    0.5502 H       1  LIG1        0.1073
     32 C          -5.8617    6.1938    0.1675 C.ar    1  LIG1        0.1924
     33 C          -7.0397    6.7218   -0.2683 C.ar    1  LIG1        0.0874
     34 C          -8.0221    5.6806   -0.0947 C.ar    1  LIG1        0.0640
     35 C          -7.3475    4.6193    0.4187 C.ar    1  LIG1        0.1077
     36 O          -6.0511    4.9113    0.5688 O.2     1  LIG1       -0.4568
     37 H          -7.6693    3.6332    0.7066 H       1  LIG1        0.1041
     38 N          -7.2520    8.0162   -0.7754 N.pl3   1  LIG1       -0.3541
     39 H          -6.6793    8.2089   -1.5921 H       1  LIG1        0.1425
     40 H          -8.2334    8.1698   -0.9865 H       1  LIG1        0.1425
     41 S          -9.7519    5.8046   -0.4293 S.3     1  LIG1       -0.1378
     42 H          -9.7051    5.4184   -1.7114 H       1  LIG1        0.1073
@<TRIPOS>BOND
     1    18    17    1
     2    42    41    1
     3    39    38    1
     4    19    17    1
     5    20    14    1
     6    20    21    1
     7    17    13    1
     8    40    38    1
     9    13    14   ar
    10    13    12   ar
    11    14    15   ar
    12    38    33    1
    13    41    34    1
    14    12     4    1
    15    12    16   ar
    16     5     4   ar
    17     5     1   ar
    18    33    34   ar
    19    33    32   ar
    20    15    16   ar
    21    15    22    1
    22     6     1    1
    23    34    35   ar
    24    26    22   ar
    25    26    25   ar
    26     4     3   ar
    27    11    10    1
    28     1     2   ar
    29    22    23   ar
    30    32    25    1
    31    32    36   ar
    32    25    24   ar
    33     3     2   ar
    34     3    10    1
    35     2     7    1
    36    35    36   ar
    37    35    37    1
    38     8     7    1
    39     9     7    1
    40    31    30    1
    41    23    24   ar
    42    23    27    1
    43    24    30    1
    44    27    28    1
    45    27    29    1
