@<TRIPOS>MOLECULE
mol_data/opt/m06hf/geoms/mol2/12hg12hg-12hg-.out
 32 34 0 0 0
SMALL
GASTEIGER

@<TRIPOS>ATOM
      1 C           0.6256    1.7507   -1.1884 C.ar    1  LIG1        0.1144
      2 C           1.7202    1.7433   -0.3850 C.ar    1  LIG1        0.0769
      3 C           1.7689    3.0530    0.2217 C.ar    1  LIG1        0.0745
      4 C           0.7038    3.7353   -0.2861 C.ar    1  LIG1        0.1865
      5 O           0.0108    2.9605   -1.1430 O.2     1  LIG1       -0.4567
      6 H           0.1750    1.0009   -1.8127 H       1  LIG1        0.1049
      7 N           2.6082    0.7075   -0.0807 N.pl3   1  LIG1       -0.3547
      8 H           2.6322   -0.0254   -0.7773 H       1  LIG1        0.1424
      9 H           3.5401    1.0524    0.1198 H       1  LIG1        0.1424
     10 S           2.9504    3.5296    1.4392 S.3     1  LIG1       -0.1371
     11 H           3.0683    4.8163    1.0269 H       1  LIG1        0.1073
     12 C           0.3028    5.1164   -0.0888 C.ar    1  LIG1        0.1934
     13 C           1.0652    6.2457   -0.0349 C.ar    1  LIG1        0.0882
     14 C           0.1581    7.3260    0.2495 C.ar    1  LIG1        0.0752
     15 C          -1.0806    6.7553    0.3004 C.ar    1  LIG1        0.1875
     16 O          -1.0055    5.4272    0.0836 O.2     1  LIG1       -0.4455
     17 N           2.4575    6.3343   -0.2051 N.pl3   1  LIG1       -0.3541
     18 H           2.7662    5.8393   -1.0372 H       1  LIG1        0.1425
     19 H           2.7674    7.3003   -0.2382 H       1  LIG1        0.1425
     20 S           0.6350    9.0025    0.5161 S.3     1  LIG1       -0.1371
     21 H          -0.4303    9.5387   -0.1359 H       1  LIG1        0.1073
     22 C          -2.3812    7.3798    0.4649 C.ar    1  LIG1        0.1924
     23 C          -2.8775    8.5304   -0.0700 C.ar    1  LIG1        0.0874
     24 C          -4.1982    8.6847    0.4866 C.ar    1  LIG1        0.0640
     25 C          -4.3826    7.6104    1.2980 C.ar    1  LIG1        0.1077
     26 O          -3.3070    6.8171    1.2836 O.2     1  LIG1       -0.4568
     27 H          -5.2116    7.3089    1.9148 H       1  LIG1        0.1041
     28 N          -2.2305    9.3915   -0.9733 N.pl3   1  LIG1       -0.3541
     29 H          -1.9618    8.9207   -1.8323 H       1  LIG1        0.1425
     30 H          -2.7999   10.2072   -1.1770 H       1  LIG1        0.1425
     31 S          -5.3101   10.0247    0.1936 S.3     1  LIG1       -0.1378
     32 H          -5.9232    9.4971   -0.8726 H       1  LIG1        0.1073
@<TRIPOS>BOND
     1    29    28    1
     2     6     1    1
     3     1     5   ar
     4     1     2   ar
     5    30    28    1
     6     5     4   ar
     7    18    17    1
     8    28    23    1
     9    32    31    1
    10     8     7    1
    11     2     7    1
    12     2     3   ar
    13     4    12    1
    14     4     3   ar
    15    19    17    1
    16    17    13    1
    17    21    20    1
    18    12    13   ar
    19    12    16   ar
    20     7     9    1
    21    23    22   ar
    22    23    24   ar
    23    13    14   ar
    24    16    15   ar
    25    31    24    1
    26     3    10    1
    27    14    15   ar
    28    14    20    1
    29    15    22    1
    30    22    26   ar
    31    24    25   ar
    32    11    10    1
    33    26    25   ar
    34    25    27    1
