@<TRIPOS>MOLECULE
mol_data/opt/m06hf/geoms/mol2/12hg12hg12hg12hg-.out
 42 45 0 0 0
SMALL
GASTEIGER

@<TRIPOS>ATOM
      1 C           1.1801    1.4596   -0.0422 C.ar    1  LIG1        0.1144
      2 C           2.4146    1.8564    0.3596 C.ar    1  LIG1        0.0769
      3 C           2.3847    3.2999    0.3510 C.ar    1  LIG1        0.0745
      4 C           1.1352    3.6394   -0.0719 C.ar    1  LIG1        0.1865
      5 O           0.3996    2.5367   -0.3132 O.2     1  LIG1       -0.4567
      6 H           0.7296    0.4921   -0.1697 H       1  LIG1        0.1049
      7 N           3.5106    1.1026    0.7919 N.pl3   1  LIG1       -0.3547
      8 H           3.4871    0.1401    0.4826 H       1  LIG1        0.1424
      9 H           4.3907    1.5425    0.5469 H       1  LIG1        0.1424
     10 S           3.7210    4.3218    0.8735 S.3     1  LIG1       -0.1371
     11 H           3.4858    5.3010   -0.0449 H       1  LIG1        0.1073
     12 C           0.5416    4.9428   -0.3180 C.ar    1  LIG1        0.1934
     13 C           1.0681    6.0806   -0.8560 C.ar    1  LIG1        0.0882
     14 C           0.0146    7.0620   -0.8297 C.ar    1  LIG1        0.0752
     15 C          -1.0585    6.4253   -0.2790 C.ar    1  LIG1        0.1875
     16 O          -0.7490    5.1485    0.0285 O.2     1  LIG1       -0.4455
     17 N           2.3746    6.2493   -1.3662 N.pl3   1  LIG1       -0.3541
     18 H           2.5148    5.7338   -2.2303 H       1  LIG1        0.1425
     19 H           2.5782    7.2334   -1.5178 H       1  LIG1        0.1425
     20 S           0.1391    8.6824   -1.5059 S.3     1  LIG1       -0.1371
     21 H          -0.6840    9.2574   -0.5736 H       1  LIG1        0.1073
     22 C          -2.3849    6.9218    0.0395 C.ar    1  LIG1        0.1935
     23 C          -2.7873    8.1366    0.5130 C.ar    1  LIG1        0.0882
     24 C          -4.2193    8.0632    0.6351 C.ar    1  LIG1        0.0752
     25 C          -4.5540    6.8056    0.2268 C.ar    1  LIG1        0.1875
     26 O          -3.4538    6.1124   -0.1340 O.2     1  LIG1       -0.4455
     27 N          -1.9565    9.2280    0.8508 N.pl3   1  LIG1       -0.3541
     28 H          -2.5080   10.0671    1.0084 H       1  LIG1        0.1425
     29 H          -1.3876    9.0325    1.6707 H       1  LIG1        0.1425
     30 S          -5.2341    9.3267    1.3253 S.3     1  LIG1       -0.1371
     31 H          -6.2800    9.1286    0.4759 H       1  LIG1        0.1073
     32 C          -5.8633    6.1945    0.0958 C.ar    1  LIG1        0.1924
     33 C          -7.0366    6.7231   -0.3517 C.ar    1  LIG1        0.0874
     34 C          -8.0211    5.6820   -0.1887 C.ar    1  LIG1        0.0640
     35 C          -7.3520    4.6203    0.3310 C.ar    1  LIG1        0.1077
     36 O          -6.0571    4.9119    0.4945 O.2     1  LIG1       -0.4568
     37 H          -7.6770    3.6342    0.6150 H       1  LIG1        0.1041
     38 N          -7.2434    8.0179   -0.8603 N.pl3   1  LIG1       -0.3541
     39 H          -6.6624    8.2109   -1.6709 H       1  LIG1        0.1425
     40 H          -8.2226    8.1719   -1.0813 H       1  LIG1        0.1425
     41 S          -9.7473    5.8067   -0.5409 S.3     1  LIG1       -0.1378
     42 H          -9.6875    5.4212   -1.8227 H       1  LIG1        0.1073
@<TRIPOS>BOND
     1    18    17    1
     2    42    41    1
     3    39    38    1
     4    19    17    1
     5    20    14    1
     6    20    21    1
     7    17    13    1
     8    40    38    1
     9    38    33    1
    10    13    14   ar
    11    13    12   ar
    12    14    15   ar
    13    41    34    1
    14    33    34   ar
    15    33    32   ar
    16    12     4    1
    17    12    16   ar
    18     5     4   ar
    19     5     1   ar
    20    15    16   ar
    21    15    22    1
    22    34    35   ar
    23     6     1    1
    24    26    22   ar
    25    26    25   ar
    26     4     3   ar
    27    11    10    1
    28     1     2   ar
    29    22    23   ar
    30    32    25    1
    31    32    36   ar
    32    25    24   ar
    33    35    36   ar
    34    35    37    1
    35     3     2   ar
    36     3    10    1
    37     2     7    1
    38    31    30    1
    39     8     7    1
    40    23    24   ar
    41    23    27    1
    42     9     7    1
    43    24    30    1
    44    27    28    1
    45    27    29    1
