@<TRIPOS>MOLECULE
mol_data/opt/m06hf/geoms/mol2/12hg12hg12hg-12hg-.out
 42 45 0 0 0
SMALL
GASTEIGER

@<TRIPOS>ATOM
      1 C           1.1789    1.4586   -0.0717 C.ar    1  LIG1        0.1144
      2 C           2.4120    1.8521    0.3374 C.ar    1  LIG1        0.0769
      3 C           2.3825    3.2957    0.3389 C.ar    1  LIG1        0.0745
      4 C           1.1347    3.6385   -0.0863 C.ar    1  LIG1        0.1865
      5 O           0.3997    2.5377   -0.3381 O.2     1  LIG1       -0.4567
      6 H           0.7286    0.4921   -0.2077 H       1  LIG1        0.1049
      7 N           3.5061    1.0950    0.7686 N.pl3   1  LIG1       -0.3547
      8 H           3.4835    0.1347    0.4524 H       1  LIG1        0.1424
      9 H           4.3873    1.5364    0.5299 H       1  LIG1        0.1424
     10 S           3.7172    4.3135    0.8735 S.3     1  LIG1       -0.1371
     11 H           3.4856    5.2991   -0.0390 H       1  LIG1        0.1073
     12 C           0.5424    4.9438   -0.3256 C.ar    1  LIG1        0.1934
     13 C           1.0712    6.0852   -0.8536 C.ar    1  LIG1        0.0882
     14 C           0.0179    7.0667   -0.8244 C.ar    1  LIG1        0.0752
     15 C          -1.0574    6.4264   -0.2821 C.ar    1  LIG1        0.1875
     16 O          -0.7494    5.1474    0.0176 O.2     1  LIG1       -0.4455
     17 N           2.3796    6.2570   -1.3577 N.pl3   1  LIG1       -0.3541
     18 H           2.5229    5.7475   -2.2248 H       1  LIG1        0.1425
     19 H           2.5841    7.2421   -1.5017 H       1  LIG1        0.1425
     20 S           0.1454    8.6918   -1.4887 S.3     1  LIG1       -0.1371
     21 H          -0.6810    9.2605   -0.5555 H       1  LIG1        0.1073
     22 C          -2.3849    6.9211    0.0348 C.ar    1  LIG1        0.1935
     23 C          -2.7887    8.1327    0.5153 C.ar    1  LIG1        0.0882
     24 C          -4.2212    8.0589    0.6315 C.ar    1  LIG1        0.0752
     25 C          -4.5547    6.8043    0.2132 C.ar    1  LIG1        0.1875
     26 O          -3.4534    6.1132   -0.1483 O.2     1  LIG1       -0.4455
     27 N          -1.9589    9.2215    0.8638 N.pl3   1  LIG1       -0.3541
     28 H          -2.5107   10.0596    1.0252 H       1  LIG1        0.1425
     29 H          -1.3932    9.0200    1.6844 H       1  LIG1        0.1425
     30 S          -5.2382    9.3179    1.3267 S.3     1  LIG1       -0.1371
     31 H          -6.2810    9.1259    0.4720 H       1  LIG1        0.1073
     32 C          -5.8637    6.1945    0.0730 C.ar    1  LIG1        0.1924
     33 C          -7.0351    6.7266   -0.3752 C.ar    1  LIG1        0.0874
     34 C          -8.0205    5.6847   -0.2232 C.ar    1  LIG1        0.0640
     35 C          -7.3537    4.6192    0.2916 C.ar    1  LIG1        0.1077
     36 O          -6.0594    4.9092    0.4619 O.2     1  LIG1       -0.4568
     37 H          -7.6800    3.6312    0.5675 H       1  LIG1        0.1041
     38 N          -7.2396    8.0249   -0.8755 N.pl3   1  LIG1       -0.3541
     39 H          -6.6555    8.2234   -1.6826 H       1  LIG1        0.1425
     40 H          -8.2180    8.1807   -1.0991 H       1  LIG1        0.1425
     41 S          -9.7454    5.8124   -0.5810 S.3     1  LIG1       -0.1378
     42 H          -9.6809    5.4358   -1.8652 H       1  LIG1        0.1073
@<TRIPOS>BOND
     1    18    17    1
     2    42    41    1
     3    39    38    1
     4    19    17    1
     5    20    14    1
     6    20    21    1
     7    17    13    1
     8    40    38    1
     9    38    33    1
    10    13    14   ar
    11    13    12   ar
    12    14    15   ar
    13    41    34    1
    14    33    34   ar
    15    33    32   ar
    16     5     4   ar
    17     5     1   ar
    18    12     4    1
    19    12    16   ar
    20    15    16   ar
    21    15    22    1
    22    34    35   ar
    23     6     1    1
    24    26    22   ar
    25    26    25   ar
    26     4     3   ar
    27     1     2   ar
    28    11    10    1
    29    22    23   ar
    30    32    25    1
    31    32    36   ar
    32    25    24   ar
    33    35    36   ar
    34    35    37    1
    35     2     3   ar
    36     2     7    1
    37     3    10    1
    38     8     7    1
    39    31    30    1
    40    23    24   ar
    41    23    27    1
    42     9     7    1
    43    24    30    1
    44    27    28    1
    45    27    29    1
