@<TRIPOS>MOLECULE
mol_data/opt/m06hf/geoms/mol2/12hg12hg-12hg12hg-.out
 42 45 0 0 0
SMALL
GASTEIGER

@<TRIPOS>ATOM
      1 C           1.1810    1.4599   -0.0639 C.ar    1  LIG1        0.1144
      2 C           2.4206    1.8556    0.3228 C.ar    1  LIG1        0.0769
      3 C           2.3907    3.2991    0.3187 C.ar    1  LIG1        0.0745
      4 C           1.1358    3.6397   -0.0869 C.ar    1  LIG1        0.1865
      5 O           0.3971    2.5377   -0.3217 O.2     1  LIG1       -0.4567
      6 H           0.7290    0.4927   -0.1883 H       1  LIG1        0.1049
      7 N           3.5221    1.1006    0.7387 N.pl3   1  LIG1       -0.3547
      8 H           3.4943    0.1389    0.4275 H       1  LIG1        0.1424
      9 H           4.3990    1.5410    0.4831 H       1  LIG1        0.1424
     10 S           3.7338    4.3196    0.8264 S.3     1  LIG1       -0.1371
     11 H           3.4859    5.3013   -0.0861 H       1  LIG1        0.1073
     12 C           0.5387    4.9438   -0.3216 C.ar    1  LIG1        0.1934
     13 C           1.0580    6.0834   -0.8628 C.ar    1  LIG1        0.0882
     14 C           0.0045    7.0642   -0.8205 C.ar    1  LIG1        0.0752
     15 C          -1.0612    6.4255   -0.2579 C.ar    1  LIG1        0.1875
     16 O          -0.7474    5.1479    0.0419 O.2     1  LIG1       -0.4455
     17 N           2.3578    6.2539   -1.3892 N.pl3   1  LIG1       -0.3541
     18 H           2.4866    5.7422   -2.2573 H       1  LIG1        0.1425
     19 H           2.5597    7.2387   -1.5393 H       1  LIG1        0.1425
     20 S           0.1202    8.6866   -1.4935 S.3     1  LIG1       -0.1371
     21 H          -0.6913    9.2588   -0.5496 H       1  LIG1        0.1073
     22 C          -2.3837    6.9206    0.0787 C.ar    1  LIG1        0.1935
     23 C          -2.7803    8.1340    0.5607 C.ar    1  LIG1        0.0882
     24 C          -4.2107    8.0603    0.6998 C.ar    1  LIG1        0.0752
     25 C          -4.5503    6.8038    0.2920 C.ar    1  LIG1        0.1875
     26 O          -3.4547    6.1117   -0.0843 O.2     1  LIG1       -0.4455
     27 N          -1.9455    9.2243    0.8917 N.pl3   1  LIG1       -0.3541
     28 H          -2.4948   10.0625    1.0604 H       1  LIG1        0.1425
     29 H          -1.3649    9.0255    1.7025 H       1  LIG1        0.1425
     30 S          -5.2170    9.3216    1.4063 S.3     1  LIG1       -0.1371
     31 H          -6.2732    9.1259    0.5690 H       1  LIG1        0.1073
     32 C          -5.8612    6.1931    0.1752 C.ar    1  LIG1        0.1924
     33 C          -7.0399    6.7230   -0.2563 C.ar    1  LIG1        0.0874
     34 C          -8.0223    5.6815   -0.0843 C.ar    1  LIG1        0.0640
     35 C          -7.3469    4.6182    0.4238 C.ar    1  LIG1        0.1077
     36 O          -6.0501    4.9093    0.5723 O.2     1  LIG1       -0.4568
     37 H          -7.6684    3.6312    0.7090 H       1  LIG1        0.1041
     38 N          -7.2528    8.0193   -0.7586 N.pl3   1  LIG1       -0.3541
     39 H          -6.6818    8.2146   -1.5757 H       1  LIG1        0.1425
     40 H          -8.2347    8.1739   -0.9671 H       1  LIG1        0.1425
     41 S          -9.7528    5.8072   -0.4148 S.3     1  LIG1       -0.1378
     42 H          -9.7087    5.4256   -1.6984 H       1  LIG1        0.1073
@<TRIPOS>BOND
     1    18    17    1
     2    42    41    1
     3    39    38    1
     4    19    17    1
     5    20    14    1
     6    20    21    1
     7    17    13    1
     8    40    38    1
     9    13    14   ar
    10    13    12   ar
    11    14    15   ar
    12    38    33    1
    13    41    34    1
    14     5     4   ar
    15     5     1   ar
    16    12     4    1
    17    12    16   ar
    18    15    16   ar
    19    15    22    1
    20    33    34   ar
    21    33    32   ar
    22     6     1    1
    23     4     3   ar
    24    11    10    1
    25    34    35   ar
    26    26    22   ar
    27    26    25   ar
    28     1     2   ar
    29    22    23   ar
    30    32    25    1
    31    32    36   ar
    32    25    24   ar
    33     3     2   ar
    34     3    10    1
    35     2     7    1
    36    35    36   ar
    37    35    37    1
    38     8     7    1
    39     9     7    1
    40    23    24   ar
    41    23    27    1
    42    31    30    1
    43    24    30    1
    44    27    28    1
    45    27    29    1
