@<TRIPOS>MOLECULE
mol_data/opt/m06hf/geoms/mol2/12hg12hg-12hg-12hg.out
 42 45 0 0 0
SMALL
GASTEIGER

@<TRIPOS>ATOM
      1 C           1.1828    1.4624   -0.0296 C.ar    1  LIG1        0.1144
      2 C           2.4144    1.8571    0.3829 C.ar    1  LIG1        0.0769
      3 C           2.3836    3.3006    0.3845 C.ar    1  LIG1        0.0745
      4 C           1.1366    3.6423   -0.0439 C.ar    1  LIG1        0.1865
      5 O           0.4033    2.5409   -0.2978 O.2     1  LIG1       -0.4567
      6 H           0.7339    0.4955   -0.1669 H       1  LIG1        0.1049
      7 N           3.5081    1.1010    0.8168 N.pl3   1  LIG1       -0.3547
      8 H           3.4871    0.1406    0.5008 H       1  LIG1        0.1424
      9 H           4.3896    1.5430    0.5803 H       1  LIG1        0.1424
     10 S           3.7159    4.3197    0.9225 S.3     1  LIG1       -0.1371
     11 H           3.4852    5.3052    0.0097 H       1  LIG1        0.1073
     12 C           0.5433    4.9470   -0.2845 C.ar    1  LIG1        0.1934
     13 C           1.0722    6.0893   -0.8106 C.ar    1  LIG1        0.0882
     14 C           0.0174    7.0692   -0.7845 C.ar    1  LIG1        0.0752
     15 C          -1.0586    6.4274   -0.2456 C.ar    1  LIG1        0.1875
     16 O          -0.7497    5.1488    0.0548 O.2     1  LIG1       -0.4455
     17 N           2.3819    6.2629   -1.3109 N.pl3   1  LIG1       -0.3541
     18 H           2.5279    5.7551   -2.1785 H       1  LIG1        0.1425
     19 H           2.5860    7.2484   -1.4526 H       1  LIG1        0.1425
     20 S           0.1451    8.6946   -1.4481 S.3     1  LIG1       -0.1371
     21 H          -0.6850    9.2622   -0.5176 H       1  LIG1        0.1073
     22 C          -2.3877    6.9203    0.0674 C.ar    1  LIG1        0.1935
     23 C          -2.7944    8.1313    0.5469 C.ar    1  LIG1        0.0882
     24 C          -4.2272    8.0562    0.6579 C.ar    1  LIG1        0.0752
     25 C          -4.5580    6.8014    0.2380 C.ar    1  LIG1        0.1875
     26 O          -3.4548    6.1115   -0.1199 O.2     1  LIG1       -0.4455
     27 N          -1.9669    9.2207    0.8989 N.pl3   1  LIG1       -0.3541
     28 H          -2.5200   10.0578    1.0606 H       1  LIG1        0.1425
     29 H          -1.4020    9.0186    1.7199 H       1  LIG1        0.1425
     30 S          -5.2479    9.3138    1.3501 S.3     1  LIG1       -0.1371
     31 H          -6.2874    9.1212    0.4915 H       1  LIG1        0.1073
     32 C          -5.8659    6.1904    0.0930 C.ar    1  LIG1        0.1924
     33 C          -7.0364    6.7215   -0.3590 C.ar    1  LIG1        0.0874
     34 C          -8.0212    5.6786   -0.2107 C.ar    1  LIG1        0.0640
     35 C          -7.3551    4.6135    0.3058 C.ar    1  LIG1        0.1077
     36 O          -6.0617    4.9047    0.4808 O.2     1  LIG1       -0.4568
     37 H          -7.6814    3.6251    0.5803 H       1  LIG1        0.1041
     38 N          -7.2404    8.0198   -0.8596 N.pl3   1  LIG1       -0.3541
     39 H          -6.6538    8.2190   -1.6647 H       1  LIG1        0.1425
     40 H          -8.2181    8.1748   -1.0864 H       1  LIG1        0.1425
     41 S          -9.7450    5.8048   -0.5742 S.3     1  LIG1       -0.1378
     42 H          -9.6758    5.4288   -1.8584 H       1  LIG1        0.1073
@<TRIPOS>BOND
     1    18    17    1
     2    42    41    1
     3    39    38    1
     4    19    17    1
     5    20    14    1
     6    20    21    1
     7    17    13    1
     8    40    38    1
     9    38    33    1
    10    13    14   ar
    11    13    12   ar
    12    14    15   ar
    13    41    34    1
    14    33    34   ar
    15    33    32   ar
    16     5     4   ar
    17     5     1   ar
    18    12     4    1
    19    12    16   ar
    20    15    16   ar
    21    15    22    1
    22    34    35   ar
    23     6     1    1
    24    26    22   ar
    25    26    25   ar
    26     4     3   ar
    27     1     2   ar
    28    11    10    1
    29    22    23   ar
    30    32    25    1
    31    32    36   ar
    32    25    24   ar
    33    35    36   ar
    34    35    37    1
    35     2     3   ar
    36     2     7    1
    37     3    10    1
    38    31    30    1
    39     8     7    1
    40    23    24   ar
    41    23    27    1
    42     9     7    1
    43    24    30    1
    44    27    28    1
    45    27    29    1
