@<TRIPOS>MOLECULE
mol_data/opt/m06hf/geoms/mol2/12hg12hg12hg-.out
 32 34 0 0 0
SMALL
GASTEIGER

@<TRIPOS>ATOM
      1 C           0.6320    1.7482   -1.1875 C.ar    1  LIG1        0.1144
      2 C           1.7203    1.7415   -0.3756 C.ar    1  LIG1        0.0769
      3 C           1.7652    3.0523    0.2291 C.ar    1  LIG1        0.0745
      4 C           0.7045    3.7344   -0.2883 C.ar    1  LIG1        0.1865
      5 O           0.0177    2.9584   -1.1491 O.2     1  LIG1       -0.4567
      6 H           0.1858    0.9975   -1.8139 H       1  LIG1        0.1049
      7 N           2.6053    0.7057   -0.0625 N.pl3   1  LIG1       -0.3547
      8 H           2.6342   -0.0285   -0.7575 H       1  LIG1        0.1424
      9 H           3.5358    1.0504    0.1446 H       1  LIG1        0.1424
     10 S           2.9375    3.5304    1.4548 S.3     1  LIG1       -0.1371
     11 H           3.0594    4.8162    1.0411 H       1  LIG1        0.1073
     12 C           0.3029    5.1161   -0.0966 C.ar    1  LIG1        0.1934
     13 C           1.0655    6.2450   -0.0389 C.ar    1  LIG1        0.0882
     14 C           0.1570    7.3264    0.2365 C.ar    1  LIG1        0.0752
     15 C          -1.0825    6.7565    0.2788 C.ar    1  LIG1        0.1875
     16 O          -1.0065    5.4280    0.0649 O.2     1  LIG1       -0.4455
     17 N           2.4592    6.3325   -0.1983 N.pl3   1  LIG1       -0.3541
     18 H           2.7741    5.8358   -1.0272 H       1  LIG1        0.1425
     19 H           2.7699    7.2982   -0.2307 H       1  LIG1        0.1425
     20 S           0.6328    9.0030    0.5038 S.3     1  LIG1       -0.1371
     21 H          -0.4270    9.5387   -0.1575 H       1  LIG1        0.1073
     22 C          -2.3839    7.3822    0.4319 C.ar    1  LIG1        0.1924
     23 C          -2.8752    8.5321   -0.1089 C.ar    1  LIG1        0.0874
     24 C          -4.2003    8.6881    0.4369 C.ar    1  LIG1        0.0640
     25 C          -4.3917    7.6155    1.2488 C.ar    1  LIG1        0.1077
     26 O          -3.3165    6.8215    1.2442 O.2     1  LIG1       -0.4568
     27 H          -5.2257    7.3156    1.8595 H       1  LIG1        0.1041
     28 N          -2.2207    9.3911   -1.0087 N.pl3   1  LIG1       -0.3541
     29 H          -1.9456    8.9186   -1.8648 H       1  LIG1        0.1425
     30 H          -2.7879   10.2068   -1.2183 H       1  LIG1        0.1425
     31 S          -5.3090   10.0282    0.1325 S.3     1  LIG1       -0.1378
     32 H          -5.9136    9.4992   -0.9377 H       1  LIG1        0.1073
@<TRIPOS>BOND
     1    29    28    1
     2     6     1    1
     3    30    28    1
     4     1     5   ar
     5     1     2   ar
     6     5     4   ar
     7    18    17    1
     8    28    23    1
     9    32    31    1
    10     8     7    1
    11     2     7    1
    12     2     3   ar
    13     4    12    1
    14     4     3   ar
    15    19    17    1
    16    17    13    1
    17    21    20    1
    18    23    22   ar
    19    23    24   ar
    20    12    13   ar
    21    12    16   ar
    22     7     9    1
    23    13    14   ar
    24    16    15   ar
    25    31    24    1
    26     3    10    1
    27    14    15   ar
    28    14    20    1
    29    15    22    1
    30    22    26   ar
    31    24    25   ar
    32    11    10    1
    33    26    25   ar
    34    25    27    1
