@<TRIPOS>MOLECULE
mol_data/opt/m06hf/geoms/mol2/12hh12hh12hh12hh.out
 46 49 0 0 0
SMALL
GASTEIGER

@<TRIPOS>ATOM
      1 C           1.0171    1.5926    0.2893 C.ar    1  LIG1        0.1152
      2 C           2.2084    1.8717   -0.3002 C.ar    1  LIG1        0.0846
      3 C           2.2000    3.2906   -0.5405 C.ar    1  LIG1        0.0951
      4 C           1.0161    3.7528   -0.0539 C.ar    1  LIG1        0.1939
      5 O           0.2912    2.7154    0.4381 O.2     1  LIG1       -0.4560
      6 H           0.5663    0.6762    0.6282 H       1  LIG1        0.1049
      7 N           3.3000    1.0431   -0.6872 N.pl3   1  LIG1       -0.3541
      8 H           3.8429    0.7419    0.1158 H       1  LIG1        0.1425
      9 H           2.9902    0.2238   -1.1976 H       1  LIG1        0.1425
     10 N           3.2411    4.0176   -1.1565 N.pl3   1  LIG1       -0.3535
     11 H           3.9680    3.3610   -1.4323 H       1  LIG1        0.1425
     12 H           2.9040    4.5115   -1.9788 H       1  LIG1        0.1425
     13 C           0.5274    5.1095    0.0550 C.ar    1  LIG1        0.1950
     14 C           1.2223    6.2681    0.2489 C.ar    1  LIG1        0.0959
     15 C           0.2286    7.3135    0.2678 C.ar    1  LIG1        0.0959
     16 C          -0.9789    6.6968    0.0903 C.ar    1  LIG1        0.1950
     17 O          -0.8049    5.3721   -0.0446 O.2     1  LIG1       -0.4447
     18 N           2.5805    6.4337    0.4950 N.pl3   1  LIG1       -0.3535
     19 H           3.1588    5.6851    0.1110 H       1  LIG1        0.1425
     20 H           2.9238    7.3511    0.2431 H       1  LIG1        0.1425
     21 N           0.4562    8.7009    0.5003 N.pl3   1  LIG1       -0.3535
     22 H           0.7997    8.8588    1.4445 H       1  LIG1        0.1425
     23 H           1.1335    9.0807   -0.1560 H       1  LIG1        0.1425
     24 C          -2.3475    7.1900    0.0332 C.ar    1  LIG1        0.1950
     25 C          -2.8731    8.4402   -0.1361 C.ar    1  LIG1        0.0959
     26 C          -4.3046    8.2781   -0.0568 C.ar    1  LIG1        0.0959
     27 C          -4.5157    6.9389    0.1127 C.ar    1  LIG1        0.1950
     28 O          -3.3300    6.2740    0.1767 O.2     1  LIG1       -0.4447
     29 N          -2.2542    9.6952   -0.3093 N.pl3   1  LIG1       -0.3535
     30 H          -1.2860    9.6576    0.0111 H       1  LIG1        0.1425
     31 H          -2.2848    9.9854   -1.2828 H       1  LIG1        0.1425
     32 N          -5.2184    9.3117   -0.0711 N.pl3   1  LIG1       -0.3535
     33 H          -4.8112   10.2077   -0.2946 H       1  LIG1        0.1425
     34 H          -6.1227    9.1051   -0.4877 H       1  LIG1        0.1425
     35 C          -5.7716    6.2287    0.1841 C.ar    1  LIG1        0.1939
     36 C          -6.9520    6.5141   -0.4297 C.ar    1  LIG1        0.0951
     37 C          -7.9056    5.5575    0.0674 C.ar    1  LIG1        0.0846
     38 C          -7.2141    4.7585    0.9199 C.ar    1  LIG1        0.1152
     39 O          -5.9277    5.1487    0.9934 O.2     1  LIG1       -0.4560
     40 H          -7.4947    3.8973    1.5012 H       1  LIG1        0.1049
     41 N          -7.2295    7.5199   -1.3781 N.pl3   1  LIG1       -0.3535
     42 H          -6.5736    7.4794   -2.1542 H       1  LIG1        0.1425
     43 H          -8.1763    7.3859   -1.7247 H       1  LIG1        0.1425
     44 N          -9.2582    5.5348   -0.3726 N.pl3   1  LIG1       -0.3541
     45 H          -9.5960    4.5895   -0.5137 H       1  LIG1        0.1425
     46 H          -9.8720    6.0091    0.2824 H       1  LIG1        0.1425
@<TRIPOS>BOND
     1    42    41    1
     2    12    10    1
     3    43    41    1
     4    11    10    1
     5    41    36    1
     6    31    29    1
     7     9     7    1
     8    10     3    1
     9     7     2    1
    10     7     8    1
    11     3     2   ar
    12     3     4   ar
    13    45    44    1
    14    34    32    1
    15    36    37   ar
    16    36    35   ar
    17    44    37    1
    18    44    46    1
    19    29    25    1
    20    29    30    1
    21     2     1   ar
    22    33    32    1
    23    23    21    1
    24    25    26   ar
    25    25    24   ar
    26    32    26    1
    27    26    27   ar
    28     4    13    1
    29     4     5   ar
    30    17    13   ar
    31    17    16   ar
    32    24    16    1
    33    24    28   ar
    34    13    14   ar
    35    37    38   ar
    36    16    15   ar
    37    19    18    1
    38    27    28   ar
    39    27    35    1
    40    35    39   ar
    41    20    18    1
    42    14    15   ar
    43    14    18    1
    44    15    21    1
    45     1     5   ar
    46     1     6    1
    47    21    22    1
    48    38    39   ar
    49    38    40    1
