@<TRIPOS>MOLECULE
mol_data/opt/m06hf/geoms/mol2/12hh12hh12hh12hh-.out
 46 49 0 0 0
SMALL
GASTEIGER

@<TRIPOS>ATOM
      1 C           0.7943    1.7365    0.9088 C.ar    1  LIG1        0.1152
      2 C           1.9419    1.8277    0.1876 C.ar    1  LIG1        0.0846
      3 C           1.9846    3.1788   -0.3070 C.ar    1  LIG1        0.0951
      4 C           0.8749    3.7984    0.1785 C.ar    1  LIG1        0.1939
      5 O           0.1428    2.9144    0.9050 O.2     1  LIG1       -0.4560
      6 H           0.3282    0.9259    1.4413 H       1  LIG1        0.1049
      7 N           2.9505    0.8728   -0.1249 N.pl3   1  LIG1       -0.3541
      8 H           3.5670    0.7074    0.6643 H       1  LIG1        0.1425
      9 H           2.5561   -0.0114   -0.4252 H       1  LIG1        0.1425
     10 N           3.0007    3.7147   -1.1272 N.pl3   1  LIG1       -0.3535
     11 H           3.6688    2.9753   -1.3337 H       1  LIG1        0.1425
     12 H           2.6151    4.0718   -1.9978 H       1  LIG1        0.1425
     13 C           0.4617    5.1801    0.0815 C.ar    1  LIG1        0.1950
     14 C           1.2140    6.3141   -0.0165 C.ar    1  LIG1        0.0959
     15 C           0.2682    7.4001   -0.1040 C.ar    1  LIG1        0.0959
     16 C          -0.9731    6.8335   -0.0294 C.ar    1  LIG1        0.1950
     17 O          -0.8666    5.4964    0.0699 O.2     1  LIG1       -0.4447
     18 N           2.5963    6.4536    0.0442 N.pl3   1  LIG1       -0.3535
     19 H           3.1029    5.6050   -0.2114 H       1  LIG1        0.1425
     20 H           2.9333    7.2639   -0.4595 H       1  LIG1        0.1425
     21 N           0.5670    8.7883   -0.2261 N.pl3   1  LIG1       -0.3535
     22 H           1.2392    9.0733    0.4819 H       1  LIG1        0.1425
     23 H           0.9430    9.0123   -1.1435 H       1  LIG1        0.1425
     24 C          -2.3120    7.3829   -0.0367 C.ar    1  LIG1        0.1950
     25 C          -2.8152    8.6490    0.0636 C.ar    1  LIG1        0.0959
     26 C          -4.2495    8.5132   -0.0158 C.ar    1  LIG1        0.0959
     27 C          -4.4953    7.1827   -0.1562 C.ar    1  LIG1        0.1950
     28 O          -3.3355    6.4865   -0.1787 O.2     1  LIG1       -0.4447
     29 N          -2.1887    9.8649    0.2742 N.pl3   1  LIG1       -0.3535
     30 H          -1.1869    9.8298    0.0926 H       1  LIG1        0.1425
     31 H          -2.6728   10.6214   -0.1959 H       1  LIG1        0.1425
     32 N          -5.1218    9.6171    0.0098 N.pl3   1  LIG1       -0.3535
     33 H          -6.0806    9.3382   -0.1662 H       1  LIG1        0.1425
     34 H          -5.0616   10.1046    0.8996 H       1  LIG1        0.1425
     35 C          -5.7070    6.4069   -0.2889 C.ar    1  LIG1        0.1939
     36 C          -5.9113    5.0620   -0.3354 C.ar    1  LIG1        0.0951
     37 C          -7.3442    4.8937   -0.4633 C.ar    1  LIG1        0.0846
     38 C          -7.8703    6.1409   -0.4803 C.ar    1  LIG1        0.1152
     39 O          -6.8943    7.0699   -0.3781 O.2     1  LIG1       -0.4560
     40 H          -8.8843    6.4909   -0.5556 H       1  LIG1        0.1049
     41 N          -4.9978    4.0123   -0.1923 N.pl3   1  LIG1       -0.3535
     42 H          -5.0827    3.3217   -0.9296 H       1  LIG1        0.1425
     43 H          -4.0402    4.3391   -0.1121 H       1  LIG1        0.1425
     44 N          -8.0612    3.6706   -0.5333 N.pl3   1  LIG1       -0.3541
     45 H          -8.0086    3.2610   -1.4612 H       1  LIG1        0.1425
     46 H          -7.6757    3.0070    0.1331 H       1  LIG1        0.1425
@<TRIPOS>BOND
     1    12    10    1
     2    45    44    1
     3    11    10    1
     4    23    21    1
     5    10     3    1
     6    42    41    1
     7    40    38    1
     8    44    37    1
     9    44    46    1
    10    38    37   ar
    11    38    39   ar
    12    37    36   ar
    13    20    18    1
    14     9     7    1
    15    39    35   ar
    16    36    35   ar
    17    36    41    1
    18     3     4   ar
    19     3     2   ar
    20    35    27    1
    21    21    15    1
    22    21    22    1
    23    19    18    1
    24    31    29    1
    25    41    43    1
    26    28    27   ar
    27    28    24   ar
    28    33    32    1
    29    27    26   ar
    30     7     2    1
    31     7     8    1
    32    15    16   ar
    33    15    14   ar
    34    24    16    1
    35    24    25   ar
    36    16    17   ar
    37    14    18    1
    38    14    13   ar
    39    26    32    1
    40    26    25   ar
    41    32    34    1
    42    25    29    1
    43    17    13   ar
    44    13     4    1
    45    30    29    1
    46     4     5   ar
    47     2     1   ar
    48     5     1   ar
    49     1     6    1
