@<TRIPOS>MOLECULE
mol_data/opt/m06hf/geoms/mol2/12hh12hh-12hh-12hh.out
 46 49 0 0 0
SMALL
GASTEIGER

@<TRIPOS>ATOM
      1 C           0.0018    1.6941   -0.2562 C.ar    1  LIG1        0.1152
      2 C           1.3329    1.6736   -0.5011 C.ar    1  LIG1        0.0846
      3 C           1.7630    3.0571   -0.5056 C.ar    1  LIG1        0.0951
      4 C           0.6410    3.7863   -0.2574 C.ar    1  LIG1        0.1939
      5 O          -0.4357    2.9625   -0.1091 O.2     1  LIG1       -0.4560
      6 H          -0.7208    0.9031   -0.1622 H       1  LIG1        0.1049
      7 N           2.1355    0.5192   -0.6958 N.pl3   1  LIG1       -0.3541
      8 H           2.3819    0.3904   -1.6726 H       1  LIG1        0.1425
      9 H           2.9899    0.5850   -0.1501 H       1  LIG1        0.1425
     10 N           3.0855    3.4815   -0.6503 N.pl3   1  LIG1       -0.3535
     11 H           3.5774    2.9837   -1.3825 H       1  LIG1        0.1425
     12 H           3.1651    4.4848   -0.7700 H       1  LIG1        0.1425
     13 C           0.4412    5.2100   -0.1190 C.ar    1  LIG1        0.1950
     14 C          -0.6499    5.9793    0.1426 C.ar    1  LIG1        0.0959
     15 C          -0.1835    7.3455    0.1545 C.ar    1  LIG1        0.0959
     16 C           1.1543    7.2862   -0.1068 C.ar    1  LIG1        0.1950
     17 O           1.5414    5.9852   -0.2814 O.2     1  LIG1       -0.4447
     18 N          -1.9994    5.6316    0.3350 N.pl3   1  LIG1       -0.3535
     19 H          -2.1527    4.6387    0.1990 H       1  LIG1        0.1425
     20 H          -2.3164    5.9065    1.2604 H       1  LIG1        0.1425
     21 N          -0.9940    8.4255    0.4606 N.pl3   1  LIG1       -0.3535
     22 H          -0.5783    9.3208    0.2044 H       1  LIG1        0.1425
     23 H          -1.9368    8.2965    0.1116 H       1  LIG1        0.1425
     24 C           2.1775    8.2989   -0.2150 C.ar    1  LIG1        0.1950
     25 C           2.1386    9.6440   -0.4271 C.ar    1  LIG1        0.0959
     26 C           3.5066   10.1017   -0.4003 C.ar    1  LIG1        0.0959
     27 C           4.2638    8.9920   -0.1851 C.ar    1  LIG1        0.1950
     28 O           3.4638    7.8974   -0.0714 O.2     1  LIG1       -0.4447
     29 N           0.9817   10.4460   -0.6253 N.pl3   1  LIG1       -0.3535
     30 H           1.1500   11.3734   -0.2419 H       1  LIG1        0.1425
     31 H           0.7612   10.5409   -1.6135 H       1  LIG1        0.1425
     32 N           3.8887   11.4529   -0.5136 N.pl3   1  LIG1       -0.3535
     33 H           4.8736   11.5719   -0.3002 H       1  LIG1        0.1425
     34 H           3.7041   11.8155   -1.4443 H       1  LIG1        0.1425
     35 C           5.6835    8.7670   -0.0414 C.ar    1  LIG1        0.1939
     36 C           6.3882    7.6409    0.2457 C.ar    1  LIG1        0.0951
     37 C           7.7773    8.0387    0.2367 C.ar    1  LIG1        0.0846
     38 C           7.7922    9.3643   -0.0393 C.ar    1  LIG1        0.1152
     39 O           6.5220    9.8235   -0.2121 O.2     1  LIG1       -0.4560
     40 H           8.5862   10.0826   -0.1358 H       1  LIG1        0.1049
     41 N           5.9683    6.3218    0.4539 N.pl3   1  LIG1       -0.3535
     42 H           6.4162    5.9211    1.2724 H       1  LIG1        0.1425
     43 H           4.9595    6.2421    0.5212 H       1  LIG1        0.1425
     44 N           8.8079    7.1331    0.5375 N.pl3   1  LIG1       -0.3541
     45 H           8.7106    6.2829   -0.0094 H       1  LIG1        0.1425
     46 H           9.7326    7.5257    0.4133 H       1  LIG1        0.1425
@<TRIPOS>BOND
     1     8     7    1
     2    31    29    1
     3    34    32    1
     4    11    10    1
     5    12    10    1
     6     7     2    1
     7     7     9    1
     8    10     3    1
     9    29    25    1
    10    29    30    1
    11    32    26    1
    12    32    33    1
    13     3     2   ar
    14     3     4   ar
    15     2     1   ar
    16    25    26   ar
    17    25    24   ar
    18    26    27   ar
    19    17    13   ar
    20    17    16   ar
    21     4    13    1
    22     4     5   ar
    23     1     6    1
    24     1     5   ar
    25    24    16    1
    26    24    28   ar
    27    39    35   ar
    28    39    38   ar
    29    27    28   ar
    30    27    35    1
    31    40    38    1
    32    13    14   ar
    33    16    15   ar
    34    35    36   ar
    35    38    37   ar
    36    45    44    1
    37    23    21    1
    38    14    15   ar
    39    14    18    1
    40    15    21    1
    41    19    18    1
    42    22    21    1
    43    37    36   ar
    44    37    44    1
    45    36    41    1
    46    18    20    1
    47    46    44    1
    48    41    43    1
    49    41    42    1
