@<TRIPOS>MOLECULE
mol_data/opt/m06hf/geoms/mol2/12hh12ed13hh-12ef.out
 45 48 0 0 0
SMALL
GASTEIGER

@<TRIPOS>ATOM
      1 C           0.4106    1.7213   -0.4913 C.ar    1  LIG1        0.1152
      2 C           1.6900    1.7647   -0.0471 C.ar    1  LIG1        0.0846
      3 C           2.0124    3.1639    0.1200 C.ar    1  LIG1        0.0951
      4 C           0.8846    3.8421   -0.2487 C.ar    1  LIG1        0.1933
      5 O          -0.0895    2.9615   -0.6284 O.2     1  LIG1       -0.4560
      6 H          -0.2378    0.9038   -0.7554 H       1  LIG1        0.1049
      7 N           2.6429    0.7497    0.2076 N.pl3   1  LIG1       -0.3541
      8 H           2.6877    0.5160    1.1951 H       1  LIG1        0.1425
      9 H           2.4689   -0.0910   -0.3298 H       1  LIG1        0.1425
     10 N           3.2192    3.5840    0.6369 N.pl3   1  LIG1       -0.3535
     11 H           3.9424    2.8878    0.4951 H       1  LIG1        0.1425
     12 H           3.5025    4.5216    0.3829 H       1  LIG1        0.1425
     13 C           0.5606    5.2485   -0.3000 C.ar    1  LIG1        0.1891
     14 C           1.3163    6.3705   -0.4808 C.ar    1  LIG1        0.0916
     15 C           0.3932    7.4826   -0.3914 C.ar    1  LIG1        0.1150
     16 C          -0.8454    6.9479   -0.1688 C.ar    1  LIG1        0.1723
     17 O          -0.7353    5.6021   -0.1127 O.2     1  LIG1       -0.4475
     18 C           2.7074    6.4482   -0.7893 C.1     1  LIG1       -0.0644
     19 C           3.8757    6.5341   -1.0618 C.1     1  LIG1       -0.1138
     20 H           4.9038    6.6276   -1.3264 H       1  LIG1        0.1232
     21 N           0.9397    9.9616   -0.8284 N.1     1  LIG1       -0.1907
     22 C           0.7045    8.8554   -0.6236 C.1     1  LIG1        0.1043
     23 C          -2.1730    7.4828   -0.0074 C.ar    1  LIG1        0.1067
     24 C          -2.6470    8.7381    0.3615 C.ar    1  LIG1        0.0750
     25 C          -4.0657    8.6433    0.4022 C.ar    1  LIG1        0.0750
     26 C          -4.4027    7.3426    0.0558 C.ar    1  LIG1        0.1067
     27 N          -3.2601    6.6567   -0.1857 N.ar    1  LIG1       -0.3463
     28 H          -3.2069    5.6875   -0.4600 H       1  LIG1        0.1662
     29 N          -1.9753    9.8787    0.7595 N.pl3   1  LIG1       -0.3548
     30 H          -1.1360   10.1210    0.2508 H       1  LIG1        0.1424
     31 H          -2.6280   10.6503    0.8501 H       1  LIG1        0.1424
     32 N          -4.8706    9.7413    0.8009 N.pl3   1  LIG1       -0.3548
     33 H          -5.6602    9.8783    0.1787 H       1  LIG1        0.1424
     34 H          -5.2211    9.6215    1.7469 H       1  LIG1        0.1424
     35 C          -5.6960    6.6891   -0.0513 C.ar    1  LIG1        0.1717
     36 C          -6.9535    7.1367   -0.3525 C.ar    1  LIG1        0.1133
     37 C          -7.8009    5.9695   -0.2864 C.ar    1  LIG1        0.1709
     38 C          -7.0019    4.9245    0.0290 C.ar    1  LIG1        0.1352
     39 O          -5.7210    5.3630    0.1729 O.2     1  LIG1       -0.4564
     40 H          -7.1807    3.8760    0.1816 H       1  LIG1        0.1068
     41 C          -7.3721    8.4421   -0.7534 C.1     1  LIG1       -0.0621
     42 C          -7.7556    9.5247   -1.1106 C.1     1  LIG1       -0.1137
     43 H          -8.1034   10.4757   -1.4432 H       1  LIG1        0.1232
     44 O          -9.1297    6.0314   -0.5274 O.3     1  LIG1       -0.5028
     45 H          -9.5269    5.1553   -0.4811 H       1  LIG1        0.2923
@<TRIPOS>BOND
     1    43    42    1
     2    20    19    1
     3    42    41    3
     4    19    18    3
     5    21    22    3
     6    18    14    1
     7     6     1    1
     8    41    36    1
     9     5     1   ar
    10     5     4   ar
    11    22    15    1
    12    44    45    1
    13    44    37    1
    14     1     2   ar
    15    14    15   ar
    16    14    13   ar
    17    28    27    1
    18    15    16   ar
    19    36    37   ar
    20    36    35   ar
    21     9     7    1
    22    13     4    1
    23    13    17   ar
    24    37    38   ar
    25     4     3   ar
    26    27    23   ar
    27    27    26   ar
    28    16    17   ar
    29    16    23    1
    30    35    26    1
    31    35    39   ar
    32     2     3   ar
    33     2     7    1
    34    23    24   ar
    35    38    39   ar
    36    38    40    1
    37    26    25   ar
    38     3    10    1
    39    33    32    1
    40     7     8    1
    41    30    29    1
    42    24    25   ar
    43    24    29    1
    44    12    10    1
    45    25    32    1
    46    11    10    1
    47    29    31    1
    48    32    34    1
