@<TRIPOS>MOLECULE
mol_data/opt/m06hf/geoms/mol2/12hh6ae13da-4fh-12ha4hi-13fa-6lh.out
 94 101 0 0 0
SMALL
GASTEIGER

@<TRIPOS>ATOM
      1 C           1.0175    1.9372   -0.8964 C.ar    1  LIG1        0.1150
      2 C           2.3587    1.9461   -0.6940 C.ar    1  LIG1        0.0845
      3 C           2.7134    3.3216   -0.4430 C.ar    1  LIG1        0.0920
      4 C           1.5483    4.0265   -0.4966 C.ar    1  LIG1        0.1587
      5 O           0.5186    3.1835   -0.7976 O.2     1  LIG1       -0.4591
      6 H           0.3216    1.1493   -1.1275 H       1  LIG1        0.1049
      7 N           3.3349    0.9205   -0.7481 N.pl3   1  LIG1       -0.3541
      8 H           3.5300    0.5371    0.1715 H       1  LIG1        0.1425
      9 H           3.0737    0.1691   -1.3756 H       1  LIG1        0.1425
     10 N           4.0209    3.7415   -0.1982 N.pl3   1  LIG1       -0.3536
     11 H           4.6712    3.0151   -0.4843 H       1  LIG1        0.1425
     12 H           4.2505    4.6252   -0.6394 H       1  LIG1        0.1425
     13 C           0.0565    6.0012   -0.7923 C.ar    1  LIG1        0.0391
     14 C           1.2510    5.4419   -0.3162 C.ar    1  LIG1        0.0384
     15 C           2.1220    6.2827    0.3704 C.ar    1  LIG1       -0.0320
     16 C           1.8163    7.6387    0.5092 C.ar    1  LIG1        0.0528
     17 C           0.6326    8.1141   -0.0779 C.ar    1  LIG1        0.1037
     18 N          -0.2333    7.2861   -0.6751 N.ar    1  LIG1       -0.2515
     19 H           3.0155    5.8886    0.8388 H       1  LIG1        0.0638
     20 H          -0.6772    5.3735   -1.2826 H       1  LIG1        0.0837
     21 C           2.6749    8.4685    1.3107 C.1     1  LIG1       -0.0674
     22 C           3.4048    9.1293    1.9985 C.1     1  LIG1       -0.1138
     23 H           4.0462    9.7542    2.5763 H       1  LIG1        0.1232
     24 C           0.1821    9.5198   -0.0382 C.ar    1  LIG1        0.0842
     25 C           0.7927   10.7709   -0.0130 C.ar    1  LIG1        0.0791
     26 C          -0.2346   11.7525   -0.0055 C.ar    1  LIG1       -0.0182
     27 C          -1.4380   11.0810   -0.0478 C.ar    1  LIG1        0.0518
     28 N          -1.1531    9.7454   -0.0716 N.ar    1  LIG1       -0.3518
     29 H          -1.8137    8.9805   -0.1017 H       1  LIG1        0.1660
     30 N           3.2824   11.4094   -0.2562 N.1     1  LIG1       -0.1908
     31 C           2.1870   11.0877   -0.1281 C.1     1  LIG1        0.1013
     32 H          -0.1023   12.8195    0.0112 H       1  LIG1        0.0652
     33 C          -3.1857   12.7787    0.5072 C.ar    1  LIG1        0.1267
     34 C          -4.5051   13.1987    0.4656 C.ar    1  LIG1       -0.0070
     35 C          -2.8267   11.5694   -0.1027 C.ar    1  LIG1        0.0415
     36 C          -5.4931   12.4521   -0.1878 C.ar    1  LIG1        0.0432
     37 H          -4.7945   14.1210    0.9601 H       1  LIG1        0.0662
     38 C          -3.8150   10.8230   -0.7410 C.ar    1  LIG1       -0.0277
     39 C          -5.1508   11.2310   -0.7974 C.ar    1  LIG1        0.0362
     40 H          -3.5432    9.8991   -1.2391 H       1  LIG1        0.0644
     41 O          -2.2103   13.5052    1.1293 O.3     1  LIG1       -0.5061
     42 H          -2.6038   14.2085    1.6562 H       1  LIG1        0.2922
     43 N          -6.0935   10.4177   -1.4216 N.pl3   1  LIG1       -0.3574
     44 H          -7.0048   10.8284   -1.5628 H       1  LIG1        0.1423
     45 H          -5.7512    9.8982   -2.2163 H       1  LIG1        0.1423
     46 C          -6.8434   13.0202   -0.2564 C.ar    1  LIG1        0.1581
     47 C          -7.2663   14.3154   -0.3398 C.ar    1  LIG1        0.0716
     48 C          -8.7029   14.2734   -0.3459 C.ar    1  LIG1        0.0056
     49 C          -9.0487   12.9549   -0.2781 C.ar    1  LIG1        0.1393
     50 O          -7.9330   12.1952   -0.2295 O.2     1  LIG1       -0.4528
     51 N          -6.4702   15.4697   -0.3755 N.pl3   1  LIG1       -0.3550
     52 H          -5.5892   15.3173   -0.8550 H       1  LIG1        0.1424
     53 H          -6.9569   16.2628   -0.7731 H       1  LIG1        0.1424
     54 H          -9.3824   15.1101   -0.3408 H       1  LIG1        0.0674
     55 C         -11.5071   12.7957   -0.7358 C.ar    1  LIG1        0.0360
     56 C         -12.6990   12.0846   -0.5887 C.ar    1  LIG1       -0.0309
     57 C         -10.3322   12.2458   -0.1965 C.ar    1  LIG1        0.0382
     58 C         -12.7472   10.8551    0.0742 C.ar    1  LIG1        0.0066
     59 H         -13.6089   12.4761   -1.0303 H       1  LIG1        0.0643
     60 C         -10.3866   11.0031    0.4405 C.ar    1  LIG1       -0.0458
     61 C         -11.5684   10.2907    0.5990 C.ar    1  LIG1       -0.0404
     62 H          -9.4650   10.6025    0.8466 H       1  LIG1        0.0628
     63 N         -11.4912   14.0303   -1.3880 N.pl3   1  LIG1       -0.3574
     64 H         -10.6363   14.2083   -1.9023 H       1  LIG1        0.1423
     65 H         -12.3161   14.2107   -1.9442 H       1  LIG1        0.1423
     66 C         -11.5568    8.9706    1.3509 C.3     1  LIG1       -0.0391
     67 H         -10.6777    8.9244    1.9929 H       1  LIG1        0.0278
     68 H         -11.5093    8.1211    0.6628 H       1  LIG1        0.0278
     69 H         -12.4512    8.8662    1.9660 H       1  LIG1        0.0278
     70 C         -14.0675   10.2176    0.2126 C.ar    1  LIG1        0.0892
     71 C         -15.2928   10.8142    0.4684 C.ar    1  LIG1        0.1426
     72 C         -16.2771    9.8077    0.5221 C.ar    1  LIG1        0.0060
     73 C         -15.6248    8.6043    0.2902 C.ar    1  LIG1        0.0557
     74 N         -14.3043    8.8748    0.1191 N.ar    1  LIG1       -0.3511
     75 H         -13.6237    8.1541   -0.0734 H       1  LIG1        0.1660
     76 O         -15.5340   12.1464    0.6590 O.3     1  LIG1       -0.5046
     77 H         -14.7313   12.5633    0.9962 H       1  LIG1        0.2922
     78 H         -17.3202    9.9625    0.7373 H       1  LIG1        0.0675
     79 C         -15.3656    6.0800    0.2068 C.ar    1  LIG1        0.2239
     80 C         -16.1717    7.2408    0.2213 C.ar    1  LIG1        0.0616
     81 C         -17.5424    7.0339    0.1774 C.ar    1  LIG1       -0.0253
     82 C         -18.0773    5.7410    0.1344 C.ar    1  LIG1        0.0438
     83 C         -17.1749    4.6844    0.1341 C.ar    1  LIG1        0.0520
     84 N         -15.8523    4.8645    0.1673 N.ar    1  LIG1       -0.2189
     85 H         -18.2094    7.8875    0.1746 H       1  LIG1        0.0645
     86 H         -17.5237    3.6586    0.1071 H       1  LIG1        0.0849
     87 O         -14.0133    6.2339    0.2289 O.3     1  LIG1       -0.4792
     88 C         -13.2390    5.0358    0.2566 C.3     1  LIG1        0.0804
     89 H         -12.2036    5.3638    0.2937 H       1  LIG1        0.0660
     90 H         -13.4928    4.4486    1.1379 H       1  LIG1        0.0660
     91 H         -13.4301    4.4448   -0.6382 H       1  LIG1        0.0660
     92 N         -19.4608    5.5281    0.1459 N.pl3   1  LIG1       -0.3568
     93 H         -19.9981    6.2664   -0.2877 H       1  LIG1        0.1424
     94 H         -19.7445    4.6193   -0.1937 H       1  LIG1        0.1424
@<TRIPOS>BOND
     1    45    43    1
     2    65    63    1
     3    64    63    1
     4    44    43    1
     5    43    39    1
     6    63    55    1
     7     9     7    1
     8    20    13    1
     9    40    38    1
    10     6     1    1
    11    59    56    1
    12     1     5   ar
    13     1     2   ar
    14    52    51    1
    15     5     4   ar
    16    39    38   ar
    17    39    36   ar
    18    13    18   ar
    19    13    14   ar
    20    53    51    1
    21     7     2    1
    22     7     8    1
    23    38    35   ar
    24    55    56   ar
    25    55    57   ar
    26     2     3   ar
    27    18    17   ar
    28    12    10    1
    29    91    88    1
    30    56    58   ar
    31     4     3   ar
    32     4    14    1
    33    11    10    1
    34     3    10    1
    35    51    47    1
    36    48    54    1
    37    48    47   ar
    38    48    49   ar
    39    47    46   ar
    40    14    15   ar
    41    93    92    1
    42    49    50   ar
    43    49    57    1
    44    46    50   ar
    45    46    36    1
    46    30    31    3
    47    57    60   ar
    48    94    92    1
    49    36    34   ar
    50    31    25    1
    51    35    27    1
    52    35    33   ar
    53    29    28    1
    54    17    24    1
    55    17    16   ar
    56    75    74    1
    57    28    27   ar
    58    28    24   ar
    59    27    26   ar
    60    24    25   ar
    61    25    26   ar
    62    26    32    1
    63    58    70    1
    64    58    61   ar
    65    86    83    1
    66    74    70   ar
    67    74    73   ar
    68    83    82   ar
    69    83    84   ar
    70    82    92    1
    71    82    81   ar
    72    84    79   ar
    73    85    81    1
    74    81    80   ar
    75    79    80   ar
    76    79    87    1
    77    70    71   ar
    78    80    73    1
    79    87    88    1
    80    88    89    1
    81    88    90    1
    82    73    72   ar
    83    15    16   ar
    84    15    19    1
    85    60    61   ar
    86    60    62    1
    87    34    33   ar
    88    34    37    1
    89    71    72   ar
    90    71    76    1
    91    33    41    1
    92    16    21    1
    93    72    78    1
    94    61    66    1
    95    76    77    1
    96    68    66    1
    97    41    42    1
    98    21    22    3
    99    66    69    1
   100    66    67    1
   101    22    23    1
