@<TRIPOS>MOLECULE
mol_data/opt/m06hf/geoms/mol2/12hh12hh-4hh12hh.out
 49 52 0 0 0
SMALL
GASTEIGER

@<TRIPOS>ATOM
      1 C           0.0303    1.6593   -0.0862 C.ar    1  LIG1        0.1152
      2 C           1.3241    1.6765    0.3104 C.ar    1  LIG1        0.0846
      3 C           1.7195    3.0716    0.3406 C.ar    1  LIG1        0.0951
      4 C           0.6115    3.7652   -0.0437 C.ar    1  LIG1        0.1939
      5 O          -0.4195    2.9115   -0.3080 O.2     1  LIG1       -0.4560
      6 H          -0.6592    0.8485   -0.2400 H       1  LIG1        0.1049
      7 N           2.1166    0.5479    0.6469 N.pl3   1  LIG1       -0.3541
      8 H           2.8008    0.3394   -0.0741 H       1  LIG1        0.1425
      9 H           2.6047    0.7066    1.5238 H       1  LIG1        0.1425
     10 N           2.9574    3.5312    0.7748 N.pl3   1  LIG1       -0.3535
     11 H           3.7326    2.9606    0.4654 H       1  LIG1        0.1425
     12 H           3.1248    4.5234    0.6443 H       1  LIG1        0.1425
     13 C           0.4074    5.1833   -0.2152 C.ar    1  LIG1        0.1948
     14 C          -0.6485    5.9635   -0.5736 C.ar    1  LIG1        0.0958
     15 C          -0.1420    7.3123   -0.6261 C.ar    1  LIG1        0.0928
     16 C           1.1754    7.2533   -0.2785 C.ar    1  LIG1        0.1600
     17 O           1.5100    5.9448   -0.0435 O.2     1  LIG1       -0.4478
     18 N          -1.9759    5.6260   -0.9219 N.pl3   1  LIG1       -0.3535
     19 H          -2.0572    4.6372   -1.1336 H       1  LIG1        0.1425
     20 H          -2.6188    5.8535   -0.1681 H       1  LIG1        0.1425
     21 N          -0.9420    8.4063   -0.9673 N.pl3   1  LIG1       -0.3536
     22 H          -0.4210    9.1444   -1.4271 H       1  LIG1        0.1425
     23 H          -1.7228    8.0961   -1.5386 H       1  LIG1        0.1425
     24 C           3.5717    8.0038   -0.3271 C.ar    1  LIG1        0.0362
     25 C           4.4761    9.0459   -0.1520 C.ar    1  LIG1       -0.0279
     26 C           2.2066    8.2785   -0.1132 C.ar    1  LIG1        0.0415
     27 C           4.0752   10.3428    0.1858 C.ar    1  LIG1        0.0415
     28 H           5.5372    8.8509   -0.2707 H       1  LIG1        0.0644
     29 C           1.8091    9.5610    0.2706 C.ar    1  LIG1       -0.0279
     30 C           2.7130   10.6142    0.4145 C.ar    1  LIG1        0.0362
     31 H           0.7622    9.7315    0.4984 H       1  LIG1        0.0644
     32 N           4.0358    6.7136   -0.6599 N.pl3   1  LIG1       -0.3574
     33 H           3.3504    6.1553   -1.1529 H       1  LIG1        0.1423
     34 H           4.9199    6.7353   -1.1513 H       1  LIG1        0.1423
     35 N           2.2573   11.8656    0.8251 N.pl3   1  LIG1       -0.3574
     36 H           2.9276   12.6176    0.7684 H       1  LIG1        0.1423
     37 H           1.3307   12.1084    0.5094 H       1  LIG1        0.1423
     38 C           5.1114   11.3811    0.2371 C.ar    1  LIG1        0.1590
     39 C           6.2653   11.5209   -0.4734 C.ar    1  LIG1        0.0920
     40 C           6.9081   12.7127    0.0210 C.ar    1  LIG1        0.0845
     41 C           6.0884   13.2111    0.9775 C.ar    1  LIG1        0.1150
     42 O           4.9966   12.4267    1.1119 O.2     1  LIG1       -0.4591
     43 H           6.1438   14.0822    1.6062 H       1  LIG1        0.1049
     44 N           6.8146   10.7267   -1.4882 N.pl3   1  LIG1       -0.3536
     45 H           6.1022   10.2534   -2.0336 H       1  LIG1        0.1425
     46 H           7.4077   11.2974   -2.0843 H       1  LIG1        0.1425
     47 N           8.1214   13.1909   -0.5269 N.pl3   1  LIG1       -0.3541
     48 H           8.2914   14.1633   -0.2999 H       1  LIG1        0.1425
     49 H           8.9106   12.6307   -0.2178 H       1  LIG1        0.1425
@<TRIPOS>BOND
     1    46    44    1
     2    45    44    1
     3    23    21    1
     4    44    39    1
     5    22    21    1
     6    33    32    1
     7    34    32    1
     8    19    18    1
     9    21    15    1
    10    18    14    1
    11    18    20    1
    12    32    24    1
    13    15    14   ar
    14    15    16   ar
    15    14    13   ar
    16    47    48    1
    17    47    49    1
    18    47    40    1
    19    39    40   ar
    20    39    38   ar
    21    24    25   ar
    22    24    26   ar
    23     5     1   ar
    24     5     4   ar
    25    16    26    1
    26    16    17   ar
    27    28    25    1
    28     6     1    1
    29    13     4    1
    30    13    17   ar
    31    25    27   ar
    32    26    29   ar
    33     1     2   ar
    34     8     7    1
    35     4     3   ar
    36    40    41   ar
    37    27    38    1
    38    27    30   ar
    39    38    42   ar
    40    29    30   ar
    41    29    31    1
    42     2     3   ar
    43     2     7    1
    44     3    10    1
    45    30    35    1
    46    11    10    1
    47    37    35    1
    48    12    10    1
    49     7     9    1
    50    36    35    1
    51    41    42   ar
    52    41    43    1
