@<TRIPOS>MOLECULE
mol_data/opt/m06hf/geoms/mol2/12hh12hh12hh.out
 35 37 0 0 0
SMALL
GASTEIGER

@<TRIPOS>ATOM
      1 C           0.6264    1.5595    0.1770 C.ar    1  LIG1        0.1152
      2 C           1.8840    1.8018   -0.2755 C.ar    1  LIG1        0.0846
      3 C           1.9741    3.2298   -0.4318 C.ar    1  LIG1        0.0951
      4 C           0.7720    3.7322   -0.0378 C.ar    1  LIG1        0.1939
      5 O          -0.0522    2.7123    0.3161 O.2     1  LIG1       -0.4560
      6 H           0.0982    0.6527    0.4151 H       1  LIG1        0.1049
      7 N           2.9613    0.9339   -0.6085 N.pl3   1  LIG1       -0.3541
      8 H           3.4669    0.6322    0.2185 H       1  LIG1        0.1425
      9 H           2.6451    0.1157   -1.1166 H       1  LIG1        0.1425
     10 N           3.1140    3.9188   -0.8924 N.pl3   1  LIG1       -0.3535
     11 H           3.8044    3.2340   -1.1926 H       1  LIG1        0.1425
     12 H           2.8841    4.5333   -1.6687 H       1  LIG1        0.1425
     13 C           0.3132    5.1012    0.0903 C.ar    1  LIG1        0.1950
     14 C           1.0159    6.2325    0.3897 C.ar    1  LIG1        0.0959
     15 C           0.0428    7.3008    0.4202 C.ar    1  LIG1        0.0959
     16 C          -1.1526    6.7151    0.1151 C.ar    1  LIG1        0.1950
     17 O          -1.0008    5.3800   -0.0911 O.2     1  LIG1       -0.4447
     18 N           2.3685    6.3805    0.7271 N.pl3   1  LIG1       -0.3535
     19 H           2.9105    5.5391    0.5330 H       1  LIG1        0.1425
     20 H           2.7889    7.1688    0.2454 H       1  LIG1        0.1425
     21 N           0.2772    8.6132    0.7863 N.pl3   1  LIG1       -0.3535
     22 H           1.2364    8.8544    0.9746 H       1  LIG1        0.1425
     23 H          -0.2869    9.3189    0.3185 H       1  LIG1        0.1425
     24 C          -2.4465    7.3455   -0.0138 C.ar    1  LIG1        0.1939
     25 C          -2.7549    8.5979   -0.4480 C.ar    1  LIG1        0.0951
     26 C          -4.1721    8.7543   -0.2521 C.ar    1  LIG1        0.0846
     27 C          -4.6046    7.5728    0.2591 C.ar    1  LIG1        0.1152
     28 O          -3.5762    6.7150    0.3991 O.2     1  LIG1       -0.4560
     29 H          -5.5792    7.2127    0.5387 H       1  LIG1        0.1049
     30 N          -1.8965    9.5718   -1.0012 N.pl3   1  LIG1       -0.3535
     31 H          -1.3846    9.1938   -1.7945 H       1  LIG1        0.1425
     32 H          -2.4598   10.3609   -1.3098 H       1  LIG1        0.1425
     33 N          -4.8622    9.9451   -0.6113 N.pl3   1  LIG1       -0.3541
     34 H          -5.7647    9.7498   -1.0291 H       1  LIG1        0.1425
     35 H          -4.9956   10.5541    0.1902 H       1  LIG1        0.1425
@<TRIPOS>BOND
     1    31    30    1
     2    12    10    1
     3    32    30    1
     4    11    10    1
     5     9     7    1
     6    34    33    1
     7    30    25    1
     8    10     3    1
     9    33    26    1
    10    33    35    1
    11     7     2    1
    12     7     8    1
    13    25    26   ar
    14    25    24   ar
    15     3     2   ar
    16     3     4   ar
    17     2     1   ar
    18    26    27   ar
    19    17    13   ar
    20    17    16   ar
    21     4    13    1
    22     4     5   ar
    23    24    16    1
    24    24    28   ar
    25    13    14   ar
    26    16    15   ar
    27     1     5   ar
    28     1     6    1
    29    20    18    1
    30    27    28   ar
    31    27    29    1
    32    23    21    1
    33    14    15   ar
    34    14    18    1
    35    15    21    1
    36    19    18    1
    37    21    22    1
