@<TRIPOS>MOLECULE
mol_data/opt/m06hf/geoms/mol2/12hh13ae13al-6ll-.out
 52 55 0 0 0
SMALL
GASTEIGER

@<TRIPOS>ATOM
      1 C           0.4774    1.6629   -0.6404 C.ar    1  LIG1        0.1151
      2 C           1.8280    1.7472   -0.7113 C.ar    1  LIG1        0.0845
      3 C           2.1591    3.1277   -0.4483 C.ar    1  LIG1        0.0934
      4 C           0.9765    3.7562   -0.2205 C.ar    1  LIG1        0.1733
      5 O          -0.0552    2.8740   -0.3540 O.2     1  LIG1       -0.4577
      6 H          -0.2115    0.8489   -0.7824 H       1  LIG1        0.1049
      7 N           2.8165    0.7928   -1.0389 N.pl3   1  LIG1       -0.3541
      8 H           3.3746    0.5457   -0.2269 H       1  LIG1        0.1425
      9 H           2.4263   -0.0475   -1.4483 H       1  LIG1        0.1425
     10 N           3.4632    3.6250   -0.4361 N.pl3   1  LIG1       -0.3536
     11 H           4.0555    3.0707   -1.0471 H       1  LIG1        0.1425
     12 H           3.5075    4.6076   -0.6832 H       1  LIG1        0.1425
     13 C           0.6585    5.1355    0.0977 C.ar    1  LIG1        0.0857
     14 C           1.4284    6.1386    0.6420 C.ar    1  LIG1       -0.0172
     15 C           0.6100    7.3067    0.6997 C.ar    1  LIG1        0.0520
     16 C          -0.6352    6.9664    0.1948 C.ar    1  LIG1        0.0791
     17 N          -0.5813    5.6523   -0.1657 N.ar    1  LIG1       -0.3496
     18 H          -1.3092    5.1468   -0.6480 H       1  LIG1        0.1661
     19 H           2.4359    6.0440    1.0100 H       1  LIG1        0.0652
     20 C           0.9778    8.5900    1.2188 C.1     1  LIG1       -0.0675
     21 C           1.3002    9.6633    1.6551 C.1     1  LIG1       -0.1138
     22 H           1.5862   10.6082    2.0538 H       1  LIG1        0.1232
     23 C          -1.8499    7.7576    0.0437 C.ar    1  LIG1        0.0681
     24 C          -2.0058    9.1066   -0.2252 C.ar    1  LIG1        0.0075
     25 C          -3.4002    9.3370   -0.2880 C.ar    1  LIG1        0.1460
     26 C          -4.0594    8.1336   -0.0605 C.ar    1  LIG1        0.0944
     27 N          -3.0797    7.1947    0.1349 N.ar    1  LIG1       -0.3499
     28 H          -3.3022    6.2505    0.4183 H       1  LIG1        0.1661
     29 H          -1.1985    9.8042   -0.3657 H       1  LIG1        0.0676
     30 O          -4.0453   10.5111   -0.5358 O.3     1  LIG1       -0.4930
     31 C          -3.2019   11.6273   -0.7553 C.3     1  LIG1        0.0789
     32 H          -3.8578   12.4765   -0.9281 H       1  LIG1        0.0660
     33 H          -2.5784   11.8098    0.1231 H       1  LIG1        0.0660
     34 H          -2.5703   11.4599   -1.6313 H       1  LIG1        0.0660
     35 C          -6.0010    6.5460    0.2630 C.ar    1  LIG1        0.2241
     36 C          -5.4923    7.8334   -0.0060 C.ar    1  LIG1        0.0668
     37 C          -6.4364    8.8398   -0.2202 C.ar    1  LIG1       -0.0041
     38 C          -7.7960    8.5382   -0.1635 C.ar    1  LIG1        0.1390
     39 C          -8.1754    7.2295    0.1111 C.ar    1  LIG1        0.0730
     40 N          -7.2831    6.2640    0.3173 N.ar    1  LIG1       -0.2171
     41 H          -6.0814    9.8388   -0.4271 H       1  LIG1        0.0663
     42 H          -9.2255    6.9735    0.1614 H       1  LIG1        0.0868
     43 O          -5.1175    5.5300    0.4799 O.3     1  LIG1       -0.4792
     44 C          -5.6783    4.2591    0.8043 C.3     1  LIG1        0.0804
     45 H          -4.8277    3.5982    0.9503 H       1  LIG1        0.0660
     46 H          -6.2721    4.3336    1.7139 H       1  LIG1        0.0660
     47 H          -6.3099    3.9086   -0.0103 H       1  LIG1        0.0660
     48 O          -8.7967    9.4359   -0.3575 O.3     1  LIG1       -0.4936
     49 C          -8.4299   10.7767   -0.6215 C.3     1  LIG1        0.0789
     50 H          -9.3627   11.3220   -0.7383 H       1  LIG1        0.0660
     51 H          -7.8574   11.1929    0.2115 H       1  LIG1        0.0660
     52 H          -7.8443   10.8437   -1.5420 H       1  LIG1        0.0660
@<TRIPOS>BOND
     1    34    31    1
     2    52    49    1
     3     9     7    1
     4    11    10    1
     5     7     2    1
     6     7     8    1
     7    32    31    1
     8     6     1    1
     9    31    30    1
    10    31    33    1
    11    50    49    1
    12     2     1   ar
    13     2     3   ar
    14    12    10    1
    15    18    17    1
    16     1     5   ar
    17    49    48    1
    18    49    51    1
    19    30    25    1
    20     3    10    1
    21     3     4   ar
    22    41    37    1
    23    29    24    1
    24    48    38    1
    25     5     4   ar
    26    25    24   ar
    27    25    26   ar
    28    24    23   ar
    29     4    13    1
    30    37    38   ar
    31    37    36   ar
    32    17    13   ar
    33    17    16   ar
    34    38    39   ar
    35    26    36    1
    36    26    27   ar
    37    47    44    1
    38    36    35   ar
    39    23    27   ar
    40    23    16    1
    41    13    14   ar
    42    39    42    1
    43    39    40   ar
    44    27    28    1
    45    16    15   ar
    46    35    40   ar
    47    35    43    1
    48    43    44    1
    49    14    15   ar
    50    14    19    1
    51    15    20    1
    52    44    45    1
    53    44    46    1
    54    20    21    3
    55    21    22    1
