@<TRIPOS>MOLECULE
mol_data/opt/m06hf/geoms/mol2/12hh12hh-.out
 24 25 0 0 0
SMALL
GASTEIGER

@<TRIPOS>ATOM
      1 C           0.1085    1.8257   -0.0958 C.ar    1  LIG1        0.1152
      2 C           1.4606    1.7746   -0.0912 C.ar    1  LIG1        0.0846
      3 C           1.9150    3.1501   -0.0987 C.ar    1  LIG1        0.0951
      4 C           0.7876    3.9093   -0.1069 C.ar    1  LIG1        0.1939
      5 O          -0.3157    3.1106   -0.1084 O.2     1  LIG1       -0.4560
      6 H          -0.6413    1.0556   -0.0831 H       1  LIG1        0.1049
      7 N           2.2698    0.6110   -0.0567 N.pl3   1  LIG1       -0.3541
      8 H           2.5860    0.3440   -0.9837 H       1  LIG1        0.1425
      9 H           3.0839    0.7754    0.5288 H       1  LIG1        0.1425
     10 N           3.2620    3.5364   -0.0193 N.pl3   1  LIG1       -0.3535
     11 H           3.8143    3.1450   -0.7746 H       1  LIG1        0.1425
     12 H           3.3627    4.5447    0.0038 H       1  LIG1        0.1425
     13 C           0.5706    5.3407   -0.1069 C.ar    1  LIG1        0.1939
     14 C          -0.5568    6.0999   -0.0987 C.ar    1  LIG1        0.0951
     15 C          -0.1024    7.4754   -0.0913 C.ar    1  LIG1        0.0846
     16 C           1.2497    7.4243   -0.0959 C.ar    1  LIG1        0.1152
     17 O           1.6740    6.1394   -0.1085 O.2     1  LIG1       -0.4560
     18 H           1.9995    8.1944   -0.0832 H       1  LIG1        0.1049
     19 N          -1.9037    5.7136   -0.0194 N.pl3   1  LIG1       -0.3535
     20 H          -2.4561    6.1050   -0.7747 H       1  LIG1        0.1425
     21 H          -2.0045    4.7053    0.0037 H       1  LIG1        0.1425
     22 N          -0.9116    8.6390   -0.0568 N.pl3   1  LIG1       -0.3541
     23 H          -1.2278    8.9059   -0.9839 H       1  LIG1        0.1425
     24 H          -1.7257    8.4746    0.5287 H       1  LIG1        0.1425
@<TRIPOS>BOND
     1    23    22    1
     2     8     7    1
     3    20    19    1
     4    11    10    1
     5    17    13   ar
     6    17    16   ar
     7     5     4   ar
     8     5     1   ar
     9    13     4    1
    10    13    14   ar
    11     4     3   ar
    12    14    15   ar
    13    14    19    1
    14     3     2   ar
    15     3    10    1
    16    16    15   ar
    17    16    18    1
    18     1     2   ar
    19     1     6    1
    20    15    22    1
    21     2     7    1
    22    22    24    1
    23     7     9    1
    24    19    21    1
    25    10    12    1
