@<TRIPOS>MOLECULE
mol_data/opt/m06hf/geoms/mol2/12hh12hh-12hh.out
 35 37 0 0 0
SMALL
GASTEIGER

@<TRIPOS>ATOM
      1 C           0.2126    1.7775   -0.3391 C.ar    1  LIG1        0.1152
      2 C           1.5469    1.8135   -0.1066 C.ar    1  LIG1        0.0846
      3 C           1.8982    3.2081    0.0181 C.ar    1  LIG1        0.0951
      4 C           0.7403    3.8959   -0.1666 C.ar    1  LIG1        0.1939
      5 O          -0.2945    3.0361   -0.3715 O.2     1  LIG1       -0.4560
      6 H          -0.4830    0.9693   -0.4790 H       1  LIG1        0.1049
      7 N           2.4970    0.7866    0.0779 N.pl3   1  LIG1       -0.3541
      8 H           2.0729   -0.1306    0.1478 H       1  LIG1        0.1425
      9 H           3.1900    0.7878   -0.6647 H       1  LIG1        0.1425
     10 N           3.1961    3.6714    0.2570 N.pl3   1  LIG1       -0.3535
     11 H           3.1991    4.6009    0.6601 H       1  LIG1        0.1425
     12 H           3.7054    3.0133    0.8385 H       1  LIG1        0.1425
     13 C           0.4762    5.3142   -0.1647 C.ar    1  LIG1        0.1950
     14 C          -0.6611    6.0586   -0.1647 C.ar    1  LIG1        0.0959
     15 C          -0.2356    7.4375   -0.1319 C.ar    1  LIG1        0.0959
     16 C           1.1238    7.4131   -0.1176 C.ar    1  LIG1        0.1950
     17 O           1.5716    6.1252   -0.1341 O.2     1  LIG1       -0.4447
     18 N          -2.0058    5.6676   -0.1347 N.pl3   1  LIG1       -0.3535
     19 H          -2.5417    6.1490   -0.8505 H       1  LIG1        0.1425
     20 H          -2.1110    4.6633   -0.2220 H       1  LIG1        0.1425
     21 N          -1.1247    8.5156   -0.1801 N.pl3   1  LIG1       -0.3535
     22 H          -1.8679    8.4103    0.5034 H       1  LIG1        0.1425
     23 H          -0.6518    9.4053   -0.0719 H       1  LIG1        0.1425
     24 C           2.1290    8.4505   -0.1228 C.ar    1  LIG1        0.1939
     25 C           3.4745    8.4067   -0.3175 C.ar    1  LIG1        0.0951
     26 C           3.9276    9.7763   -0.2355 C.ar    1  LIG1        0.0846
     27 C           2.8259   10.5273   -0.0000 C.ar    1  LIG1        0.1152
     28 O           1.7199    9.7286    0.0658 O.2     1  LIG1       -0.4560
     29 H           2.6693   11.5815    0.1368 H       1  LIG1        0.1049
     30 N           4.3341    7.3401   -0.6409 N.pl3   1  LIG1       -0.3535
     31 H           5.0133    7.1662    0.0942 H       1  LIG1        0.1425
     32 H           3.8310    6.4884   -0.8659 H       1  LIG1        0.1425
     33 N           5.2823   10.1105   -0.3559 N.pl3   1  LIG1       -0.3541
     34 H           5.7278    9.5104   -1.0438 H       1  LIG1        0.1425
     35 H           5.4391   11.0855   -0.5771 H       1  LIG1        0.1425
@<TRIPOS>BOND
     1    34    33    1
     2    32    30    1
     3    19    18    1
     4     9     7    1
     5    30    25    1
     6    30    31    1
     7    35    33    1
     8     6     1    1
     9     5     1   ar
    10     5     4   ar
    11    33    26    1
    12     1     2   ar
    13    25    26   ar
    14    25    24   ar
    15    26    27   ar
    16    20    18    1
    17    21    15    1
    18    21    23    1
    19    21    22    1
    20     4    13    1
    21     4     3   ar
    22    13    14   ar
    23    13    17   ar
    24    14    18    1
    25    14    15   ar
    26    17    16   ar
    27    15    16   ar
    28    24    16    1
    29    24    28   ar
    30     2     3   ar
    31     2     7    1
    32    27    28   ar
    33    27    29    1
    34     3    10    1
    35     7     8    1
    36    10    11    1
    37    10    12    1
