@<TRIPOS>MOLECULE
mol_data/opt/m06hf/geoms/mol2/12hh12aa4li6he.out
 50 53 0 0 0
SMALL
GASTEIGER

@<TRIPOS>ATOM
      1 C           0.7427    1.6048    1.3878 C.ar    1  LIG1        0.1152
      2 C           1.9060    1.5299    0.6934 C.ar    1  LIG1        0.0846
      3 C           2.0775    2.8178    0.0696 C.ar    1  LIG1        0.0950
      4 C           1.0059    3.5627    0.4561 C.ar    1  LIG1        0.1920
      5 O           0.1831    2.8228    1.2470 O.2     1  LIG1       -0.4560
      6 H           0.2066    0.8898    1.9869 H       1  LIG1        0.1049
      7 N           2.8131    0.4650    0.4779 N.pl3   1  LIG1       -0.3541
      8 H           3.6552    0.5767    1.0350 H       1  LIG1        0.1425
      9 H           2.4008   -0.4398    0.6729 H       1  LIG1        0.1425
     10 N           3.1632    3.1507   -0.7400 N.pl3   1  LIG1       -0.3535
     11 H           3.5489    2.3142   -1.1676 H       1  LIG1        0.1425
     12 H           2.9299    3.8486   -1.4381 H       1  LIG1        0.1425
     13 C           0.6750    4.9416    0.1577 C.ar    1  LIG1        0.1725
     14 C           1.4624    6.0002   -0.1842 C.ar    1  LIG1       -0.0121
     15 C           0.5684    7.0969   -0.4146 C.ar    1  LIG1       -0.0150
     16 C          -0.6890    6.6220   -0.1825 C.ar    1  LIG1        0.1393
     17 O          -0.6217    5.3086    0.1572 O.2     1  LIG1       -0.4516
     18 H           2.5391    6.0017   -0.2206 H       1  LIG1        0.0657
     19 H           0.8161    8.1027   -0.6972 H       1  LIG1        0.0656
     20 C          -2.2568    8.5417   -0.5633 C.ar    1  LIG1        0.1313
     21 C          -3.5546    9.0436   -0.5917 C.ar    1  LIG1       -0.0112
     22 C          -2.0388    7.1987   -0.2130 C.ar    1  LIG1        0.0591
     23 C          -4.6412    8.2283   -0.2612 C.ar    1  LIG1       -0.0082
     24 H          -3.7496   10.0687   -0.8752 H       1  LIG1        0.0660
     25 C          -3.1370    6.4043    0.1183 C.ar    1  LIG1       -0.0441
     26 C          -4.4431    6.8915    0.1074 C.ar    1  LIG1       -0.0417
     27 H          -2.9526    5.3759    0.4024 H       1  LIG1        0.0629
     28 O          -1.1630    9.2853   -0.8674 O.3     1  LIG1       -0.4944
     29 C          -1.3478   10.6588   -1.1562 C.3     1  LIG1        0.0788
     30 H          -0.3538   11.0639   -1.3238 H       1  LIG1        0.0660
     31 H          -1.9541   10.7859   -2.0563 H       1  LIG1        0.0660
     32 H          -1.8189   11.1684   -0.3125 H       1  LIG1        0.0660
     33 C          -5.6083    6.0081    0.5154 C.3     1  LIG1       -0.0391
     34 H          -5.2419    5.0319    0.8305 H       1  LIG1        0.0278
     35 H          -6.3006    5.8785   -0.3190 H       1  LIG1        0.0278
     36 H          -6.1527    6.4652    1.3433 H       1  LIG1        0.0278
     37 C          -6.9212    8.4368   -1.3370 C.ar    1  LIG1        0.1240
     38 C          -6.0134    8.8174   -0.3160 C.ar    1  LIG1        0.0232
     39 C          -6.4332    9.7781    0.5834 C.ar    1  LIG1       -0.0339
     40 C          -7.7202   10.3255    0.4810 C.ar    1  LIG1        0.0435
     41 C          -8.5295    9.8671   -0.5575 C.ar    1  LIG1        0.0451
     42 N          -8.1441    8.9563   -1.4428 N.ar    1  LIG1       -0.2389
     43 H          -5.7677   10.1014    1.3743 H       1  LIG1        0.0637
     44 H          -9.5305   10.2638   -0.6751 H       1  LIG1        0.0843
     45 N          -6.5753    7.4893   -2.2575 N.pl3   1  LIG1       -0.3427
     46 H          -7.1882    7.4039   -3.0530 H       1  LIG1        0.1437
     47 H          -5.5986    7.2672   -2.3768 H       1  LIG1        0.1437
     48 C          -8.1936   11.3238    1.4040 C.1     1  LIG1       -0.0681
     49 C          -8.5843   12.1591    2.1752 C.1     1  LIG1       -0.1139
     50 H          -8.9304   12.8990    2.8586 H       1  LIG1        0.1232
@<TRIPOS>BOND
     1    46    45    1
     2    47    45    1
     3    45    37    1
     4    31    29    1
     5    42    37   ar
     6    42    41   ar
     7    12    10    1
     8    37    38   ar
     9    30    29    1
    10    11    10    1
    11    29    28    1
    12    29    32    1
    13    24    21    1
    14    28    20    1
    15    10     3    1
    16    19    15    1
    17    44    41    1
    18    21    20   ar
    19    21    23   ar
    20    20    22   ar
    21    41    40   ar
    22    15    14   ar
    23    15    16   ar
    24    35    33    1
    25    38    23    1
    26    38    39   ar
    27    23    26   ar
    28    18    14    1
    29    22    16    1
    30    22    25   ar
    31    14    13   ar
    32    16    17   ar
    33     3     4   ar
    34     3     2   ar
    35    26    25   ar
    36    26    33    1
    37    25    27    1
    38    17    13   ar
    39    13     4    1
    40     4     5   ar
    41     7     9    1
    42     7     2    1
    43     7     8    1
    44    40    39   ar
    45    40    48    1
    46    33    34    1
    47    33    36    1
    48    39    43    1
    49     2     1   ar
    50     5     1   ar
    51     1     6    1
    52    48    49    3
    53    49    50    1
