@<TRIPOS>MOLECULE
mol_data/opt/m06hf/geoms/mol2/12hh4lh13ed13ll-.out
 56 59 0 0 0
SMALL
GASTEIGER

@<TRIPOS>ATOM
      1 C           0.1620    1.5130    0.3510 C.ar    1  LIG1        0.1150
      2 C           1.4891    1.4104    0.1096 C.ar    1  LIG1        0.0845
      3 C           1.9605    2.7531   -0.1478 C.ar    1  LIG1        0.0920
      4 C           0.8641    3.5642   -0.0300 C.ar    1  LIG1        0.1607
      5 O          -0.2325    2.7997    0.2755 O.2     1  LIG1       -0.4590
      6 H          -0.5900    0.7847    0.5996 H       1  LIG1        0.1049
      7 N           2.3693    0.3063    0.1148 N.pl3   1  LIG1       -0.3541
      8 H           1.9501   -0.5251    0.5136 H       1  LIG1        0.1425
      9 H           2.7058    0.1020   -0.8220 H       1  LIG1        0.1425
     10 N           3.2685    2.9980   -0.5258 N.pl3   1  LIG1       -0.3536
     11 H           3.9111    2.3335   -0.1111 H       1  LIG1        0.1425
     12 H           3.5466    3.9686   -0.4293 H       1  LIG1        0.1425
     13 C           1.5937    5.9703   -0.0612 C.ar    1  LIG1        0.1315
     14 C           1.3126    7.3104   -0.2773 C.ar    1  LIG1       -0.0083
     15 C           0.6071    4.9927   -0.2271 C.ar    1  LIG1        0.0625
     16 C           0.0339    7.7258   -0.6490 C.ar    1  LIG1        0.0237
     17 H           2.1024    8.0347   -0.1273 H       1  LIG1        0.0661
     18 C          -0.6743    5.4137   -0.6003 C.ar    1  LIG1       -0.0262
     19 C          -0.9707    6.7540   -0.8124 C.ar    1  LIG1        0.0347
     20 H          -1.4418    4.6628   -0.7416 H       1  LIG1        0.0644
     21 O           2.8616    5.6271    0.3571 O.3     1  LIG1       -0.4944
     22 C           2.9584    5.4561    1.7748 C.3     1  LIG1        0.0788
     23 H           3.9833    5.1526    1.9764 H       1  LIG1        0.0660
     24 H           2.7395    6.4019    2.2724 H       1  LIG1        0.0660
     25 H           2.2633    4.6830    2.1060 H       1  LIG1        0.0660
     26 N          -2.2893    7.1557   -1.1791 N.pl3   1  LIG1       -0.3574
     27 H          -2.2846    7.6365   -2.0763 H       1  LIG1        0.1423
     28 H          -2.9125    6.3581   -1.2369 H       1  LIG1        0.1423
     29 C          -0.2462    9.1661   -0.7981 C.ar    1  LIG1        0.0657
     30 C           0.5876   10.2248   -1.1213 C.ar    1  LIG1        0.0680
     31 C          -0.1979   11.4164   -1.0260 C.ar    1  LIG1        0.0945
     32 C          -1.4746   11.0484   -0.6464 C.ar    1  LIG1        0.0859
     33 N          -1.4771    9.6944   -0.5217 N.ar    1  LIG1       -0.3509
     34 H          -2.2551    9.1116   -0.2301 H       1  LIG1        0.1660
     35 C           1.9633   10.1647   -1.5104 C.1     1  LIG1       -0.0662
     36 C           3.1184   10.1355   -1.8419 C.1     1  LIG1       -0.1138
     37 H           4.1389   10.1178   -2.1470 H       1  LIG1        0.1232
     38 N           0.6259   13.7948   -1.5932 N.1     1  LIG1       -0.1908
     39 C           0.2481   12.7431   -1.3305 C.1     1  LIG1        0.1026
     40 C          -2.6575   11.8621   -0.3988 C.ar    1  LIG1        0.1102
     41 C          -2.7650   13.0625    0.2654 C.ar    1  LIG1        0.1883
     42 C          -4.1437   13.4283    0.2619 C.ar    1  LIG1        0.1795
     43 C          -4.8284   12.4428   -0.4055 C.ar    1  LIG1        0.0482
     44 N          -3.9213   11.4943   -0.7889 N.ar    1  LIG1       -0.3535
     45 H          -4.1236   10.7151   -1.3935 H       1  LIG1        0.1656
     46 H          -5.8777   12.3598   -0.6242 H       1  LIG1        0.0845
     47 O          -1.7436   13.7544    0.8353 O.3     1  LIG1       -0.4895
     48 C          -1.8404   13.8201    2.2592 C.3     1  LIG1        0.0791
     49 H          -1.0052   14.4312    2.5916 H       1  LIG1        0.0660
     50 H          -2.7894   14.2753    2.5498 H       1  LIG1        0.0660
     51 H          -1.7653   12.8157    2.6799 H       1  LIG1        0.0660
     52 O          -4.6752   14.5423    0.8408 O.3     1  LIG1       -0.4900
     53 C          -4.1656   15.7524    0.2741 C.3     1  LIG1        0.0790
     54 H          -4.6071   16.5662    0.8443 H       1  LIG1        0.0660
     55 H          -3.0773   15.7748    0.3519 H       1  LIG1        0.0660
     56 H          -4.4622   15.8213   -0.7742 H       1  LIG1        0.0660
@<TRIPOS>BOND
     1    37    36    1
     2    27    26    1
     3    36    35    3
     4    38    39    3
     5    35    30    1
     6    45    44    1
     7    39    31    1
     8    28    26    1
     9    26    19    1
    10    30    31   ar
    11    30    29   ar
    12    31    32   ar
    13     9     7    1
    14    19    16   ar
    15    19    18   ar
    16    29    16    1
    17    29    33   ar
    18    44    43   ar
    19    44    40   ar
    20    56    53    1
    21    20    18    1
    22    16    14   ar
    23    32    33   ar
    24    32    40    1
    25    46    43    1
    26    18    15   ar
    27    10    12    1
    28    10     3    1
    29    10    11    1
    30    33    34    1
    31    43    42   ar
    32    40    41   ar
    33    14    17    1
    34    14    13   ar
    35    15    13   ar
    36    15     4    1
    37     3     4   ar
    38     3     2   ar
    39    13    21    1
    40     4     5   ar
    41     2     7    1
    42     2     1   ar
    43     7     8    1
    44    42    41   ar
    45    42    52    1
    46    41    47    1
    47    53    55    1
    48    53    52    1
    49    53    54    1
    50     5     1   ar
    51     1     6    1
    52    21    22    1
    53    47    48    1
    54    22    23    1
    55    22    25    1
    56    22    24    1
    57    48    50    1
    58    48    49    1
    59    48    51    1
