@<TRIPOS>MOLECULE
mol_data/opt/m06hf/geoms/mol2/12hh4ef-13fa-13il-.out
 50 53 0 0 0
SMALL
GASTEIGER

@<TRIPOS>ATOM
      1 C           0.4919    1.8935    1.3572 C.ar    1  LIG1        0.1150
      2 C           1.4093    1.6079    0.4040 C.ar    1  LIG1        0.0845
      3 C           1.7503    2.8662   -0.2216 C.ar    1  LIG1        0.0920
      4 C           1.0076    3.8168    0.4204 C.ar    1  LIG1        0.1585
      5 O           0.2396    3.2156    1.3843 O.2     1  LIG1       -0.4591
      6 H          -0.0266    1.2813    2.0748 H       1  LIG1        0.1049
      7 N           2.0277    0.3953    0.0166 N.pl3   1  LIG1       -0.3541
      8 H           1.9671   -0.3180    0.7333 H       1  LIG1        0.1425
      9 H           1.6352    0.0386   -0.8498 H       1  LIG1        0.1425
     10 N           2.5982    2.9155   -1.3195 N.pl3   1  LIG1       -0.3536
     11 H           3.0815    3.7987   -1.4276 H       1  LIG1        0.1425
     12 H           3.2441    2.1323   -1.2956 H       1  LIG1        0.1425
     13 C           1.7821    6.1717   -0.1057 C.ar    1  LIG1        0.0362
     14 C           1.4679    7.5199   -0.2990 C.ar    1  LIG1       -0.0329
     15 C           0.7778    5.2529    0.2358 C.ar    1  LIG1        0.0380
     16 C           0.1734    8.0125   -0.1307 C.ar    1  LIG1        0.0445
     17 H           2.2587    8.2071   -0.5631 H       1  LIG1        0.0638
     18 C          -0.5173    5.7412    0.4194 C.ar    1  LIG1       -0.0076
     19 C          -0.8131    7.0830    0.2482 C.ar    1  LIG1        0.1268
     20 H          -1.3017    5.0450    0.6936 H       1  LIG1        0.0662
     21 C           3.1699    5.7841   -0.1905 C.1     1  LIG1       -0.0689
     22 C           4.3388    5.5028   -0.2513 C.1     1  LIG1       -0.1139
     23 H           5.3765    5.2626   -0.2769 H       1  LIG1        0.1232
     24 O          -2.0966    7.5325    0.4303 O.3     1  LIG1       -0.5061
     25 H          -2.6468    6.8305    0.7928 H       1  LIG1        0.2922
     26 C          -0.1078    9.4412   -0.3213 C.ar    1  LIG1        0.0925
     27 C           0.7472   10.4851   -0.6417 C.ar    1  LIG1        0.1428
     28 C          -0.0007   11.6839   -0.6976 C.ar    1  LIG1        0.0073
     29 C          -1.3082   11.3434   -0.4014 C.ar    1  LIG1        0.0673
     30 N          -1.3545   10.0056   -0.1847 N.ar    1  LIG1       -0.3500
     31 H          -2.1546    9.4839    0.1436 H       1  LIG1        0.1661
     32 O           2.0868   10.3376   -0.8700 O.3     1  LIG1       -0.5046
     33 H           2.4637   11.1811   -1.1374 H       1  LIG1        0.2922
     34 H           0.3518   12.6694   -0.9561 H       1  LIG1        0.0676
     35 C          -2.5152   12.1687   -0.3336 C.ar    1  LIG1        0.0695
     36 C          -2.7271   13.3991    0.2480 C.ar    1  LIG1        0.0179
     37 C          -4.0965   13.7111    0.0090 C.ar    1  LIG1        0.1408
     38 C          -4.6731   12.6780   -0.6939 C.ar    1  LIG1        0.0447
     39 N          -3.6913   11.7379   -0.8855 N.ar    1  LIG1       -0.3562
     40 H          -3.7666   10.9297   -1.4811 H       1  LIG1        0.1655
     41 H          -5.6725   12.5350   -1.0632 H       1  LIG1        0.0844
     42 C          -1.7582   14.2482    1.0270 C.3     1  LIG1       -0.0342
     43 H          -2.2518   14.6504    1.9120 H       1  LIG1        0.0279
     44 H          -1.4049   15.0882    0.4260 H       1  LIG1        0.0279
     45 H          -0.9017   13.6475    1.3333 H       1  LIG1        0.0279
     46 O          -4.6607   14.8605    0.4653 O.3     1  LIG1       -0.4933
     47 C          -6.0296   15.0119    0.1573 C.3     1  LIG1        0.0789
     48 H          -6.3435   15.9594    0.5874 H       1  LIG1        0.0660
     49 H          -6.1765   15.0293   -0.9270 H       1  LIG1        0.0660
     50 H          -6.6114   14.1943    0.5933 H       1  LIG1        0.0660
@<TRIPOS>BOND
     1    40    39    1
     2    11    10    1
     3    10    12    1
     4    10     3    1
     5    33    32    1
     6    41    38    1
     7    34    28    1
     8    49    47    1
     9    39    38   ar
    10    39    35   ar
    11    32    27    1
    12     9     7    1
    13    28    27   ar
    14    28    29   ar
    15    38    37   ar
    16    27    26   ar
    17    17    14    1
    18    29    35    1
    19    29    30   ar
    20    35    36   ar
    21    26    30   ar
    22    26    16    1
    23    14    16   ar
    24    14    13   ar
    25    23    22    1
    26    22    21    3
    27     3     2   ar
    28     3     4   ar
    29    21    13    1
    30    30    31    1
    31    16    19   ar
    32    13    15   ar
    33    37    36   ar
    34    37    46    1
    35     7     2    1
    36     7     8    1
    37    47    46    1
    38    47    48    1
    39    47    50    1
    40    15    18   ar
    41    15     4    1
    42    36    42    1
    43    19    18   ar
    44    19    24    1
    45     2     1   ar
    46    18    20    1
    47     4     5   ar
    48    44    42    1
    49    24    25    1
    50    42    45    1
    51    42    43    1
    52     1     5   ar
    53     1     6    1
