@<TRIPOS>MOLECULE
mol_data/opt/m06hf/geoms/mol2/12hh12hh-12hh12hh-.out
 46 49 0 0 0
SMALL
GASTEIGER

@<TRIPOS>ATOM
      1 C           0.1062    1.7288   -0.2303 C.ar    1  LIG1        0.1152
      2 C           1.3981    1.7354    0.1736 C.ar    1  LIG1        0.0846
      3 C           1.7986    3.1266    0.2190 C.ar    1  LIG1        0.0951
      4 C           0.7026    3.8343   -0.1690 C.ar    1  LIG1        0.1939
      5 O          -0.3299    2.9902   -0.4472 O.2     1  LIG1       -0.4560
      6 H          -0.5907    0.9269   -0.3951 H       1  LIG1        0.1049
      7 N           2.1887    0.6094    0.5164 N.pl3   1  LIG1       -0.3541
      8 H           2.7853    0.3187   -0.2519 H       1  LIG1        0.1425
      9 H           2.7725    0.8294    1.3186 H       1  LIG1        0.1425
     10 N           3.0400    3.5721    0.6885 N.pl3   1  LIG1       -0.3535
     11 H           3.8216    3.1443    0.2060 H       1  LIG1        0.1425
     12 H           3.1251    4.5823    0.7007 H       1  LIG1        0.1425
     13 C           0.4735    5.2544   -0.3042 C.ar    1  LIG1        0.1950
     14 C          -0.6495    6.0063   -0.4589 C.ar    1  LIG1        0.0959
     15 C          -0.2069    7.3765   -0.5413 C.ar    1  LIG1        0.0959
     16 C           1.1456    7.3424   -0.4080 C.ar    1  LIG1        0.1950
     17 O           1.5756    6.0531   -0.2782 O.2     1  LIG1       -0.4447
     18 N          -1.9950    5.6233   -0.5995 N.pl3   1  LIG1       -0.3535
     19 H          -2.0923    4.6151   -0.6530 H       1  LIG1        0.1425
     20 H          -2.5638    5.9893    0.1585 H       1  LIG1        0.1425
     21 N          -1.0642    8.4701   -0.6920 N.pl3   1  LIG1       -0.3535
     22 H          -0.5852    9.2849   -1.0577 H       1  LIG1        0.1425
     23 H          -1.8629    8.2208   -1.2667 H       1  LIG1        0.1425
     24 C           2.1450    8.3769   -0.4081 C.ar    1  LIG1        0.1950
     25 C           3.4974    8.3428   -0.5415 C.ar    1  LIG1        0.0959
     26 C           3.9400    9.7130   -0.4590 C.ar    1  LIG1        0.0959
     27 C           2.8169   10.4649   -0.3043 C.ar    1  LIG1        0.1950
     28 O           1.7149    9.6661   -0.2783 O.2     1  LIG1       -0.4447
     29 N           4.3547    7.2492   -0.6922 N.pl3   1  LIG1       -0.3535
     30 H           3.8757    6.4344   -1.0580 H       1  LIG1        0.1425
     31 H           5.1534    7.4985   -1.2670 H       1  LIG1        0.1425
     32 N           5.2854   10.0960   -0.5997 N.pl3   1  LIG1       -0.3535
     33 H           5.3828   11.1042   -0.6532 H       1  LIG1        0.1425
     34 H           5.8543    9.7299    0.1582 H       1  LIG1        0.1425
     35 C           2.5879   11.8850   -0.1692 C.ar    1  LIG1        0.1939
     36 C           1.4918   12.5927    0.2188 C.ar    1  LIG1        0.0951
     37 C           1.8924   13.9839    0.1734 C.ar    1  LIG1        0.0846
     38 C           3.1842   13.9905   -0.2304 C.ar    1  LIG1        0.1152
     39 O           3.6203   12.7291   -0.4474 O.2     1  LIG1       -0.4560
     40 H           3.8812   14.7924   -0.3952 H       1  LIG1        0.1049
     41 N           0.2504   12.1472    0.6882 N.pl3   1  LIG1       -0.3535
     42 H          -0.5311   12.5748    0.2056 H       1  LIG1        0.1425
     43 H           0.1654   11.1370    0.7007 H       1  LIG1        0.1425
     44 N           1.1018   15.1099    0.5163 N.pl3   1  LIG1       -0.3541
     45 H           0.5053   15.4007   -0.2521 H       1  LIG1        0.1425
     46 H           0.5178   14.8897    1.3184 H       1  LIG1        0.1425
@<TRIPOS>BOND
     1    31    29    1
     2    23    21    1
     3    30    29    1
     4    22    21    1
     5    29    25    1
     6    21    15    1
     7    33    32    1
     8    19    18    1
     9    32    26    1
    10    32    34    1
    11    18    14    1
    12    18    20    1
    13    25    26   ar
    14    25    24   ar
    15    15    14   ar
    16    15    16   ar
    17    26    27   ar
    18    14    13   ar
    19    39    38   ar
    20    39    35   ar
    21     5     1   ar
    22     5     4   ar
    23    24    16    1
    24    24    28   ar
    25    16    17   ar
    26    40    38    1
    27     6     1    1
    28    27    28   ar
    29    27    35    1
    30    13    17   ar
    31    13     4    1
    32    45    44    1
    33     8     7    1
    34    38    37   ar
    35     1     2   ar
    36    35    36   ar
    37     4     3   ar
    38    37    36   ar
    39    37    44    1
    40     2     3   ar
    41     2     7    1
    42    42    41    1
    43    11    10    1
    44    36    41    1
    45     3    10    1
    46    44    46    1
    47     7     9    1
    48    41    43    1
    49    10    12    1
