@<TRIPOS>MOLECULE
mol_data/opt/m06hf/geoms/mol2/12hh12hh-12hh-12hh-.out
 46 49 0 0 0
SMALL
GASTEIGER

@<TRIPOS>ATOM
      1 C          -0.1497    1.7019   -0.4348 C.ar    1  LIG1        0.1152
      2 C           1.2027    1.6403   -0.4282 C.ar    1  LIG1        0.0846
      3 C           1.6681    3.0067   -0.3095 C.ar    1  LIG1        0.0951
      4 C           0.5424    3.7699   -0.2571 C.ar    1  LIG1        0.1939
      5 O          -0.5676    2.9830   -0.3344 O.2     1  LIG1       -0.4560
      6 H          -0.9025    0.9369   -0.5011 H       1  LIG1        0.1049
      7 N           1.9976    0.4665   -0.4999 N.pl3   1  LIG1       -0.3541
      8 H           2.3829    0.3343   -1.4302 H       1  LIG1        0.1425
      9 H           2.7677    0.5316    0.1604 H       1  LIG1        0.1425
     10 N           3.0098    3.3802   -0.1786 N.pl3   1  LIG1       -0.3535
     11 H           3.5907    3.0036   -0.9192 H       1  LIG1        0.1425
     12 H           3.1275    4.3855   -0.1035 H       1  LIG1        0.1425
     13 C           0.3644    5.1980   -0.1287 C.ar    1  LIG1        0.1950
     14 C          -0.7298    5.9929    0.0169 C.ar    1  LIG1        0.0959
     15 C          -0.2347    7.3464    0.0870 C.ar    1  LIG1        0.0959
     16 C           1.1240    7.2555   -0.0234 C.ar    1  LIG1        0.1950
     17 O           1.4916    5.9453   -0.1630 O.2     1  LIG1       -0.4447
     18 N          -2.1014    5.6806    0.0544 N.pl3   1  LIG1       -0.3535
     19 H          -2.2635    4.6945   -0.1167 H       1  LIG1        0.1425
     20 H          -2.5087    5.9481    0.9462 H       1  LIG1        0.1425
     21 N          -1.0611    8.4359    0.2997 N.pl3   1  LIG1       -0.3535
     22 H          -0.5997    9.3244    0.1112 H       1  LIG1        0.1425
     23 H          -1.9557    8.3228   -0.1633 H       1  LIG1        0.1425
     24 C           2.1960    8.2277   -0.0285 C.ar    1  LIG1        0.1950
     25 C           2.2180    9.5917   -0.1086 C.ar    1  LIG1        0.0959
     26 C           3.6061    9.9784   -0.0339 C.ar    1  LIG1        0.0959
     27 C           4.3067    8.8118    0.0629 C.ar    1  LIG1        0.1950
     28 O           3.4496    7.7489    0.0625 O.2     1  LIG1       -0.4447
     29 N           1.0927   10.4584   -0.2250 N.pl3   1  LIG1       -0.3535
     30 H           1.1305   11.1906    0.4799 H       1  LIG1        0.1425
     31 H           1.0448   10.8907   -1.1437 H       1  LIG1        0.1425
     32 N           4.0753   11.2865    0.0179 N.pl3   1  LIG1       -0.3535
     33 H           5.0573   11.3777   -0.2457 H       1  LIG1        0.1425
     34 H           3.4849   11.9373   -0.4839 H       1  LIG1        0.1425
     35 C           5.7326    8.5905    0.1493 C.ar    1  LIG1        0.1939
     36 C           6.7653    9.3236   -0.3475 C.ar    1  LIG1        0.0951
     37 C           7.9706    8.7056    0.1398 C.ar    1  LIG1        0.0846
     38 C           7.5649    7.6333    0.8684 C.ar    1  LIG1        0.1152
     39 O           6.2214    7.5521    0.8759 O.2     1  LIG1       -0.4560
     40 H           8.1003    6.8658    1.3995 H       1  LIG1        0.1049
     41 N           6.7123   10.4682   -1.1717 N.pl3   1  LIG1       -0.3535
     42 H           7.6656   10.7521   -1.3873 H       1  LIG1        0.1425
     43 H           6.2168   10.2706   -2.0375 H       1  LIG1        0.1425
     44 N           9.2639    9.2039   -0.1852 N.pl3   1  LIG1       -0.3541
     45 H           9.6848    9.6926    0.5986 H       1  LIG1        0.1425
     46 H           9.8900    8.4662   -0.4874 H       1  LIG1        0.1425
@<TRIPOS>BOND
     1    43    41    1
     2     8     7    1
     3    42    41    1
     4    41    36    1
     5    31    29    1
     6    11    10    1
     7     6     1    1
     8     7     2    1
     9     7     9    1
    10    46    44    1
    11    34    32    1
    12     1     2   ar
    13     1     5   ar
    14     2     3   ar
    15    36    37   ar
    16    36    35   ar
    17     5     4   ar
    18     3     4   ar
    19     3    10    1
    20     4    13    1
    21    33    32    1
    22    29    25    1
    23    29    30    1
    24    44    37    1
    25    44    45    1
    26    10    12    1
    27    23    21    1
    28    17    13   ar
    29    17    16   ar
    30    13    14   ar
    31    19    18    1
    32    25    26   ar
    33    25    24   ar
    34    26    32    1
    35    26    27   ar
    36    24    16    1
    37    24    28   ar
    38    16    15   ar
    39    14    18    1
    40    14    15   ar
    41    18    20    1
    42    28    27   ar
    43    27    35    1
    44    15    21    1
    45    22    21    1
    46    37    38   ar
    47    35    39   ar
    48    38    39   ar
    49    38    40    1
