@<TRIPOS>MOLECULE
mol_data/opt/m06hf/geoms/mol2/12hh6aa4ia-4ll-.out
 49 52 0 0 0
SMALL
GASTEIGER

@<TRIPOS>ATOM
      1 C           1.7128    5.7428   -4.7377 C.ar    1  LIG1        0.1145
      2 C           3.0044    5.8168   -4.3341 C.ar    1  LIG1        0.0811
      3 C           2.9374    5.9889   -2.9001 C.ar    1  LIG1        0.1180
      4 C           1.6100    5.9938   -2.5547 C.ar    1  LIG1        0.1558
      5 O           0.8795    5.8490   -3.6631 O.2     1  LIG1       -0.4597
      6 H           1.2499    5.6066   -5.6970 H       1  LIG1        0.1049
      7 N           4.1854    5.6959   -5.0577 N.pl3   1  LIG1       -0.3545
      8 H           4.1046    5.9309   -6.0371 H       1  LIG1        0.1424
      9 H           4.9767    6.1546   -4.6239 H       1  LIG1        0.1424
     10 N           5.0146    6.3540   -1.4163 N.1     1  LIG1       -0.1907
     11 C           4.0712    6.2004   -2.0540 C.1     1  LIG1        0.1048
     12 C           1.3132    5.5891   -0.0934 C.ar    1  LIG1        0.0362
     13 C           0.5811    5.8783    1.0702 C.ar    1  LIG1       -0.0291
     14 C           0.8918    6.1878   -1.2843 C.ar    1  LIG1        0.0427
     15 C          -0.5158    6.7214    1.0639 C.ar    1  LIG1        0.0268
     16 H           0.8798    5.3969    1.9934 H       1  LIG1        0.0643
     17 C          -0.2491    7.0076   -1.3132 C.ar    1  LIG1       -0.0069
     18 C          -0.9516    7.2839   -0.1552 C.ar    1  LIG1        0.1286
     19 H          -0.5448    7.4333   -2.2616 H       1  LIG1        0.0662
     20 N           2.3551    4.6697   -0.0118 N.pl3   1  LIG1       -0.3574
     21 H           2.8581    4.4869   -0.8672 H       1  LIG1        0.1423
     22 H           2.9761    4.7992    0.7757 H       1  LIG1        0.1423
     23 O          -2.0479    8.0863   -0.1037 O.3     1  LIG1       -0.4945
     24 C          -2.4271    8.7708   -1.2828 C.3     1  LIG1        0.0788
     25 H          -3.2767    9.3883   -1.0048 H       1  LIG1        0.0660
     26 H          -1.6089    9.4017   -1.6391 H       1  LIG1        0.0660
     27 H          -2.7218    8.0647   -2.0631 H       1  LIG1        0.0660
     28 C          -0.5742    7.3901    3.5010 C.ar    1  LIG1        0.0603
     29 C          -1.2655    7.6381    4.6863 C.ar    1  LIG1       -0.0319
     30 C          -1.2473    7.0094    2.3313 C.ar    1  LIG1        0.0042
     31 C          -2.6483    7.4985    4.7433 C.ar    1  LIG1        0.0340
     32 H          -0.7214    7.9662    5.5615 H       1  LIG1        0.0638
     33 C          -2.6340    6.8821    2.3957 C.ar    1  LIG1       -0.0366
     34 C          -3.3371    7.1106    3.5794 C.ar    1  LIG1        0.0360
     35 H          -3.1807    6.5917    1.5103 H       1  LIG1        0.0636
     36 N           2.0037    7.7088    3.5631 N.1     1  LIG1       -0.1908
     37 C           0.8654    7.5710    3.5127 C.1     1  LIG1        0.0998
     38 C          -4.7652    6.8967    3.5694 C.1     1  LIG1       -0.0689
     39 C          -5.9456    6.6855    3.5082 C.1     1  LIG1       -0.1139
     40 H          -6.9938    6.5015    3.4628 H       1  LIG1        0.1232
     41 C          -3.3296    7.7523    6.0242 C.ar    1  LIG1        0.1396
     42 C          -2.9543    7.4795    7.3033 C.ar    1  LIG1        0.0258
     43 C          -4.0114    7.9898    8.1258 C.ar    1  LIG1        0.1550
     44 C          -4.9340    8.5265    7.2862 C.ar    1  LIG1        0.1338
     45 O          -4.5170    8.3832    6.0065 O.2     1  LIG1       -0.4592
     46 H          -5.8774    9.0179    7.4422 H       1  LIG1        0.1068
     47 H          -2.0712    6.9622    7.6367 H       1  LIG1        0.0692
     48 O          -4.0061    7.9021    9.4814 O.3     1  LIG1       -0.5036
     49 H          -4.8300    8.2427    9.8447 H       1  LIG1        0.2923
@<TRIPOS>BOND
     1     8     7    1
     2     6     1    1
     3     7     9    1
     4     7     2    1
     5     1     2   ar
     6     1     5   ar
     7     2     3   ar
     8     5     4   ar
     9     3     4   ar
    10     3    11    1
    11     4    14    1
    12    19    17    1
    13    27    24    1
    14    11    10    3
    15    26    24    1
    16    17    14   ar
    17    17    18   ar
    18    14    12   ar
    19    24    25    1
    20    24    23    1
    21    21    20    1
    22    18    23    1
    23    18    15   ar
    24    12    20    1
    25    12    13   ar
    26    20    22    1
    27    15    13   ar
    28    15    30    1
    29    13    16    1
    30    35    33    1
    31    30    33   ar
    32    30    28   ar
    33    33    34   ar
    34    40    39    1
    35    28    37    1
    36    28    29   ar
    37    39    38    3
    38    37    36    3
    39    38    34    1
    40    34    31   ar
    41    29    31   ar
    42    29    32    1
    43    31    41    1
    44    45    41   ar
    45    45    44   ar
    46    41    42   ar
    47    44    46    1
    48    44    43   ar
    49    42    47    1
    50    42    43   ar
    51    43    48    1
    52    48    49    1
