@<TRIPOS>MOLECULE
mol_data/opt/m06hf/geoms/mol2/12hh12hh12hh-12hh.out
 46 49 0 0 0
SMALL
GASTEIGER

@<TRIPOS>ATOM
      1 C           0.5377    1.5866   -0.6487 C.ar    1  LIG1        0.1152
      2 C           1.7680    1.7477   -0.1037 C.ar    1  LIG1        0.0846
      3 C           1.9318    3.1669    0.1063 C.ar    1  LIG1        0.0951
      4 C           0.7775    3.7378   -0.3422 C.ar    1  LIG1        0.1939
      5 O          -0.0713    2.7821   -0.8146 O.2     1  LIG1       -0.4560
      6 H          -0.0075    0.7143   -0.9637 H       1  LIG1        0.1049
      7 N           2.7881    0.8236    0.2078 N.pl3   1  LIG1       -0.3541
      8 H           2.9685    0.8044    1.2079 H       1  LIG1        0.1425
      9 H           2.5758   -0.1132   -0.1143 H       1  LIG1        0.1425
     10 N           3.0419    3.7318    0.7255 N.pl3   1  LIG1       -0.3535
     11 H           3.8853    3.2124    0.5085 H       1  LIG1        0.1425
     12 H           3.1464    4.7293    0.5486 H       1  LIG1        0.1425
     13 C           0.4062    5.1320   -0.4144 C.ar    1  LIG1        0.1950
     14 C           1.1764    6.2401   -0.5847 C.ar    1  LIG1        0.0959
     15 C           0.2982    7.3736   -0.4747 C.ar    1  LIG1        0.0959
     16 C          -0.9481    6.8562   -0.2769 C.ar    1  LIG1        0.1950
     17 O          -0.8954    5.5056   -0.2406 O.2     1  LIG1       -0.4447
     18 N           2.5610    6.3143   -0.8256 N.pl3   1  LIG1       -0.3535
     19 H           2.8332    5.6986   -1.5876 H       1  LIG1        0.1425
     20 H           2.8032    7.2746   -1.0576 H       1  LIG1        0.1425
     21 N           0.7366    8.7130   -0.6428 N.pl3   1  LIG1       -0.3535
     22 H           0.0214    9.2713   -1.0973 H       1  LIG1        0.1425
     23 H           0.9641    9.1411    0.2508 H       1  LIG1        0.1425
     24 C          -2.2568    7.4537   -0.1766 C.ar    1  LIG1        0.1950
     25 C          -3.4959    6.8927   -0.1208 C.ar    1  LIG1        0.0959
     26 C          -4.4278    7.9927   -0.0637 C.ar    1  LIG1        0.0959
     27 C          -3.6761    9.1259   -0.1014 C.ar    1  LIG1        0.1950
     28 O          -2.3496    8.8161   -0.1710 O.2     1  LIG1       -0.4447
     29 N          -3.8866    5.5578   -0.0593 N.pl3   1  LIG1       -0.3535
     30 H          -4.6631    5.3634   -0.6819 H       1  LIG1        0.1425
     31 H          -3.1174    4.9117   -0.1929 H       1  LIG1        0.1425
     32 N          -5.8149    7.8151   -0.0405 N.pl3   1  LIG1       -0.3535
     33 H          -6.0911    7.1679    0.6912 H       1  LIG1        0.1425
     34 H          -6.3151    8.6930    0.0369 H       1  LIG1        0.1425
     35 C          -4.0293   10.5271   -0.0644 C.ar    1  LIG1        0.1939
     36 C          -3.2837   11.6608    0.0337 C.ar    1  LIG1        0.0951
     37 C          -4.2321   12.7537    0.0589 C.ar    1  LIG1        0.0846
     38 C          -5.4586   12.1878   -0.0241 C.ar    1  LIG1        0.1152
     39 O          -5.3513   10.8389   -0.1035 O.2     1  LIG1       -0.4560
     40 H          -6.4487   12.6063   -0.0331 H       1  LIG1        0.1049
     41 N          -1.8927   11.8218    0.1882 N.pl3   1  LIG1       -0.3535
     42 H          -1.4358   10.9312    0.3495 H       1  LIG1        0.1425
     43 H          -1.4745   12.2862   -0.6121 H       1  LIG1        0.1425
     44 N          -3.9254   14.1299    0.1822 N.pl3   1  LIG1       -0.3541
     45 H          -3.0656   14.2401    0.7120 H       1  LIG1        0.1425
     46 H          -3.8116   14.5755   -0.7224 H       1  LIG1        0.1425
@<TRIPOS>BOND
     1    19    18    1
     2    22    21    1
     3    20    18    1
     4     6     1    1
     5    18    14    1
     6     5     1   ar
     7     5     4   ar
     8    46    44    1
     9    30    29    1
    10     1     2   ar
    11    21    15    1
    12    21    23    1
    13    43    41    1
    14    14    15   ar
    15    14    13   ar
    16    15    16   ar
    17    13     4    1
    18    13    17   ar
    19     4     3   ar
    20    16    17   ar
    21    16    24    1
    22    31    29    1
    23    24    28   ar
    24    24    25   ar
    25    28    27   ar
    26    25    26   ar
    27    25    29    1
    28     9     7    1
    29     2     3   ar
    30     2     7    1
    31    39    35   ar
    32    39    38   ar
    33    27    35    1
    34    27    26   ar
    35    35    36   ar
    36    26    32    1
    37    32    34    1
    38    32    33    1
    39    40    38    1
    40    38    37   ar
    41    36    37   ar
    42    36    41    1
    43    37    44    1
    44     3    10    1
    45    44    45    1
    46    41    42    1
    47     7     8    1
    48    11    10    1
    49    12    10    1
