@<TRIPOS>MOLECULE
mol_data/opt/m06hf/geoms/mol2/12hh12hh.out
 24 25 0 0 0
SMALL
GASTEIGER

@<TRIPOS>ATOM
      1 C           0.2677    1.7826    0.2504 C.ar    1  LIG1        0.1152
      2 C           1.5912    1.8704   -0.0403 C.ar    1  LIG1        0.0846
      3 C           1.8330    3.2578   -0.3385 C.ar    1  LIG1        0.0951
      4 C           0.6422    3.8947   -0.1791 C.ar    1  LIG1        0.1939
      5 O          -0.3152    2.9931    0.1653 O.2     1  LIG1       -0.4560
      6 H          -0.3690    0.9531    0.5043 H       1  LIG1        0.1049
      7 N           2.6155    0.8874   -0.1221 N.pl3   1  LIG1       -0.3541
      8 H           3.0224    0.6949    0.7877 H       1  LIG1        0.1425
      9 H           2.2807    0.0193   -0.5237 H       1  LIG1        0.1425
     10 N           3.0799    3.7996   -0.7080 N.pl3   1  LIG1       -0.3535
     11 H           3.7299    3.0344   -0.8714 H       1  LIG1        0.1425
     12 H           2.9990    4.3654   -1.5491 H       1  LIG1        0.1425
     13 C           0.3346    5.3074   -0.2575 C.ar    1  LIG1        0.1939
     14 C           1.1145    6.3787    0.0623 C.ar    1  LIG1        0.0951
     15 C           0.3196    7.5431   -0.2485 C.ar    1  LIG1        0.0846
     16 C          -0.8622    7.0760   -0.7208 C.ar    1  LIG1        0.1152
     17 O          -0.8647    5.7260   -0.7488 O.2     1  LIG1       -0.4560
     18 H          -1.7512    7.5716   -1.0692 H       1  LIG1        0.1049
     19 N           2.3778    6.4363    0.6434 N.pl3   1  LIG1       -0.3535
     20 H           2.9287    5.5916    0.4996 H       1  LIG1        0.1425
     21 H           2.8738    7.2707    0.3488 H       1  LIG1        0.1425
     22 N           0.8152    8.8553   -0.0802 N.pl3   1  LIG1       -0.3541
     23 H           0.2023    9.5556   -0.4801 H       1  LIG1        0.1425
     24 H           0.9665    9.0627    0.9030 H       1  LIG1        0.1425
@<TRIPOS>BOND
     1    12    10    1
     2    18    16    1
     3    11    10    1
     4    17    16   ar
     5    17    13   ar
     6    16    15   ar
     7    10     3    1
     8     9     7    1
     9    23    22    1
    10     3     4   ar
    11     3     2   ar
    12    13     4    1
    13    13    14   ar
    14    15    22    1
    15    15    14   ar
    16     4     5   ar
    17     7     2    1
    18     7     8    1
    19    22    24    1
    20     2     1   ar
    21    14    19    1
    22     5     1   ar
    23     1     6    1
    24    21    19    1
    25    20    19    1
