@<TRIPOS>MOLECULE
mol_data/opt/m06hf/geoms/mol2/12hh12hh12hh-12hh-.out
 46 49 0 0 0
SMALL
GASTEIGER

@<TRIPOS>ATOM
      1 C           0.3704    1.6045   -0.4010 C.ar    1  LIG1        0.1152
      2 C           1.6316    1.6918    0.0875 C.ar    1  LIG1        0.0846
      3 C           1.9218    3.1016    0.2066 C.ar    1  LIG1        0.0951
      4 C           0.7999    3.7422   -0.2291 C.ar    1  LIG1        0.1939
      5 O          -0.1456    2.8368   -0.6089 O.2     1  LIG1       -0.4560
      6 H          -0.2571    0.7664   -0.6485 H       1  LIG1        0.1049
      7 N           2.5849    0.7058    0.4152 N.pl3   1  LIG1       -0.3541
      8 H           2.8512    0.7732    1.3935 H       1  LIG1        0.1425
      9 H           2.2591   -0.2325    0.2165 H       1  LIG1        0.1425
     10 N           3.0994    3.6003    0.7473 N.pl3   1  LIG1       -0.3535
     11 H           3.8949    3.0250    0.4933 H       1  LIG1        0.1425
     12 H           3.2401    4.5892    0.5341 H       1  LIG1        0.1425
     13 C           0.4837    5.1505   -0.3379 C.ar    1  LIG1        0.1950
     14 C           1.2659    6.2629   -0.4233 C.ar    1  LIG1        0.0959
     15 C           0.3714    7.3927   -0.4487 C.ar    1  LIG1        0.0959
     16 C          -0.8829    6.8679   -0.3886 C.ar    1  LIG1        0.1950
     17 O          -0.8230    5.5129   -0.3177 O.2     1  LIG1       -0.4447
     18 N           2.6836    6.3199   -0.4602 N.pl3   1  LIG1       -0.3535
     19 H           3.0375    6.2073   -1.4065 H       1  LIG1        0.1425
     20 H           2.9871    7.2223   -0.1016 H       1  LIG1        0.1425
     21 N           0.7999    8.7351   -0.4735 N.pl3   1  LIG1       -0.3535
     22 H           1.1820    8.9864   -1.3805 H       1  LIG1        0.1425
     23 H           0.0373    9.3671   -0.2497 H       1  LIG1        0.1425
     24 C          -2.1936    7.4734   -0.3883 C.ar    1  LIG1        0.1950
     25 C          -3.4480    6.9488   -0.4477 C.ar    1  LIG1        0.0959
     26 C          -4.3423    8.0788   -0.4219 C.ar    1  LIG1        0.0959
     27 C          -3.5599    9.1910   -0.3370 C.ar    1  LIG1        0.1950
     28 O          -2.2533    8.8284   -0.3175 O.2     1  LIG1       -0.4447
     29 N          -3.8768    5.6065   -0.4720 N.pl3   1  LIG1       -0.3535
     30 H          -4.2589    5.3549   -1.3790 H       1  LIG1        0.1425
     31 H          -3.1142    4.9744   -0.2481 H       1  LIG1        0.1425
     32 N          -5.7600    8.0220   -0.4581 N.pl3   1  LIG1       -0.3535
     33 H          -6.1143    8.1330   -1.4045 H       1  LIG1        0.1425
     34 H          -6.0635    7.1200   -0.0981 H       1  LIG1        0.1425
     35 C          -3.8754   10.5995   -0.2284 C.ar    1  LIG1        0.1939
     36 C          -4.9971   11.2410    0.2063 C.ar    1  LIG1        0.0951
     37 C          -4.7056   12.6506    0.0875 C.ar    1  LIG1        0.0846
     38 C          -3.4440   12.7369   -0.3999 C.ar    1  LIG1        0.1152
     39 O          -2.9288   11.5041   -0.6073 O.2     1  LIG1       -0.4560
     40 H          -2.8155   13.5745   -0.6468 H       1  LIG1        0.1049
     41 N          -6.1757   10.7435    0.7460 N.pl3   1  LIG1       -0.3535
     42 H          -6.9707   11.3188    0.4900 H       1  LIG1        0.1425
     43 H          -6.3166    9.7545    0.5337 H       1  LIG1        0.1425
     44 N          -5.6584   13.6373    0.4143 N.pl3   1  LIG1       -0.3541
     45 H          -5.9272   13.5688    1.3919 H       1  LIG1        0.1425
     46 H          -5.3311   14.5755    0.2176 H       1  LIG1        0.1425
@<TRIPOS>BOND
     1    19    18    1
     2    33    32    1
     3    22    21    1
     4    30    29    1
     5     6     1    1
     6    40    38    1
     7     5     1   ar
     8     5     4   ar
     9    39    38   ar
    10    39    35   ar
    11    21    15    1
    12    21    23    1
    13    29    25    1
    14    29    31    1
    15    18    14    1
    16    18    20    1
    17    32    26    1
    18    32    34    1
    19    15    14   ar
    20    15    16   ar
    21    25    26   ar
    22    25    24   ar
    23    14    13   ar
    24    26    27   ar
    25     1     2   ar
    26    38    37   ar
    27    16    24    1
    28    16    17   ar
    29    24    28   ar
    30    13    17   ar
    31    13     4    1
    32    27    28   ar
    33    27    35    1
    34     4     3   ar
    35    35    36   ar
    36    37    36   ar
    37    37    44    1
    38     2     3   ar
    39     2     7    1
    40    36    41    1
    41     3    10    1
    42     9     7    1
    43    46    44    1
    44    44    45    1
    45     7     8    1
    46    42    41    1
    47    11    10    1
    48    43    41    1
    49    12    10    1
