@<TRIPOS>MOLECULE
mol_data/opt/m06hf/geoms/mol2/12hi12df-4di-13ld-.out
 50 53 0 0 0
SMALL
GASTEIGER

@<TRIPOS>ATOM
      1 C           0.6040    1.5867    0.4686 C.ar    1  LIG1        0.1136
      2 C           1.9071    1.8053    0.7812 C.ar    1  LIG1        0.0665
      3 C           2.1679    3.1968    0.4979 C.ar    1  LIG1        0.0191
      4 C           0.9870    3.6787    0.0231 C.ar    1  LIG1        0.1758
      5 O           0.0314    2.7259    0.0144 O.2     1  LIG1       -0.4576
      6 H          -0.0271    0.7179    0.5269 H       1  LIG1        0.1049
      7 N           2.8526    0.9418    1.3584 N.pl3   1  LIG1       -0.3553
      8 H           2.5000    0.0033    1.4985 H       1  LIG1        0.1424
      9 H           3.7177    0.9106    0.8306 H       1  LIG1        0.1424
     10 C           3.4648    3.9083    0.7747 C.3     1  LIG1       -0.0343
     11 H           3.2901    4.9728    0.9300 H       1  LIG1        0.0279
     12 H           4.1620    3.7966   -0.0575 H       1  LIG1        0.0279
     13 H           3.9045    3.4808    1.6767 H       1  LIG1        0.0279
     14 C           0.6136    4.9991   -0.4529 C.ar    1  LIG1        0.1919
     15 C           1.3120    5.9525   -1.1394 C.ar    1  LIG1        0.1425
     16 C           0.4183    7.0688   -1.3089 C.ar    1  LIG1        0.1812
     17 C          -0.7558    6.7013   -0.7137 C.ar    1  LIG1        0.1796
     18 O          -0.6219    5.4470   -0.1985 O.2     1  LIG1       -0.4465
     19 N           3.6932    5.7195   -2.1011 N.1     1  LIG1       -0.1906
     20 C           2.6333    5.8297   -1.6745 C.1     1  LIG1        0.1068
     21 O           0.7240    8.1581   -2.0410 O.3     1  LIG1       -0.5023
     22 H           0.6873    8.9663   -1.5063 H       1  LIG1        0.2923
     23 C          -2.2908    8.6802   -0.4551 C.ar    1  LIG1        0.0632
     24 C          -3.5736    9.2193   -0.4194 C.ar    1  LIG1       -0.0342
     25 C          -2.0888    7.3029   -0.6140 C.ar    1  LIG1        0.0386
     26 C          -4.6872    8.3837   -0.5041 C.ar    1  LIG1        0.0061
     27 H          -3.7110   10.2860   -0.3002 H       1  LIG1        0.0637
     28 C          -3.2144    6.4789   -0.6609 C.ar    1  LIG1       -0.0462
     29 C          -4.5073    6.9900   -0.5950 C.ar    1  LIG1       -0.0405
     30 H          -3.0647    5.4093   -0.7441 H       1  LIG1        0.0628
     31 N          -0.2356   10.2317   -0.1369 N.1     1  LIG1       -0.1908
     32 C          -1.1560    9.5583   -0.2796 C.1     1  LIG1        0.0999
     33 C          -5.6777    6.0213   -0.6018 C.3     1  LIG1       -0.0391
     34 H          -5.3551    5.0586   -0.2082 H       1  LIG1        0.0278
     35 H          -6.0439    5.8557   -1.6191 H       1  LIG1        0.0278
     36 H          -6.4943    6.3992    0.0132 H       1  LIG1        0.0278
     37 C          -6.0184    9.0168   -0.4479 C.ar    1  LIG1        0.0903
     38 C          -6.4298   10.0895    0.3115 C.ar    1  LIG1        0.1625
     39 C          -7.7980   10.3472   -0.0106 C.ar    1  LIG1        0.1112
     40 C          -8.1655    9.4291   -0.9724 C.ar    1  LIG1        0.0233
     41 N          -7.0950    8.6442   -1.2224 N.ar    1  LIG1       -0.3565
     42 H          -7.0601    7.9310   -1.9333 H       1  LIG1        0.1655
     43 H          -9.1050    9.3044   -1.4817 H       1  LIG1        0.0821
     44 O          -5.6441   10.7794    1.1726 O.3     1  LIG1       -0.4917
     45 C          -6.0421   10.6966    2.5452 C.3     1  LIG1        0.0789
     46 H          -5.2909   11.2452    3.1069 H       1  LIG1        0.0660
     47 H          -7.0220   11.1540    2.6850 H       1  LIG1        0.0660
     48 H          -6.0631    9.6514    2.8585 H       1  LIG1        0.0660
     49 N          -9.2874   12.1883    1.0151 N.1     1  LIG1       -0.1907
     50 C          -8.6303   11.3712    0.5466 C.1     1  LIG1        0.1044
@<TRIPOS>BOND
     1    19    20    3
     2    21    22    1
     3    21    16    1
     4    42    41    1
     5    20    15    1
     6    35    33    1
     7    43    40    1
     8    16    15   ar
     9    16    17   ar
    10    41    40   ar
    11    41    37   ar
    12    15    14   ar
    13    40    39   ar
    14    30    28    1
    15    17    25    1
    16    17    18   ar
    17    28    25   ar
    18    28    29   ar
    19    25    23   ar
    20    33    29    1
    21    33    34    1
    22    33    36    1
    23    29    26   ar
    24    26    37    1
    25    26    24   ar
    26    23    24   ar
    27    23    32    1
    28    14    18   ar
    29    14     4    1
    30    37    38   ar
    31    24    27    1
    32    32    31    3
    33    12    10    1
    34    39    38   ar
    35    39    50    1
    36     5     4   ar
    37     5     1   ar
    38     4     3   ar
    39    38    44    1
    40     1     6    1
    41     1     2   ar
    42     3    10    1
    43     3     2   ar
    44    50    49    3
    45    10    11    1
    46    10    13    1
    47     2     7    1
    48     9     7    1
    49    44    45    1
    50     7     8    1
    51    45    47    1
    52    45    48    1
    53    45    46    1
