@<TRIPOS>MOLECULE
mol_data/opt/m06hf/geoms/mol2/12hl13hi-4hi4ll.out
 53 56 0 0 0
SMALL
GASTEIGER

@<TRIPOS>ATOM
      1 C           2.1809   13.9841   12.1535 C.ar    1  LIG1        0.1150
      2 C           3.2662   13.1889   11.9801 C.ar    1  LIG1        0.0845
      3 C           3.3209   12.8954   10.5697 C.ar    1  LIG1        0.0920
      4 C           2.2705   13.5535   10.0044 C.ar    1  LIG1        0.1586
      5 O           1.5644   14.1974   10.9766 O.2     1  LIG1       -0.4591
      6 H           1.7398   14.4393   13.0234 H       1  LIG1        0.1049
      7 N           4.2016   12.6432   12.8975 N.pl3   1  LIG1       -0.3541
      8 H           5.0079   13.2493   13.0150 H       1  LIG1        0.1425
      9 H           3.7886   12.4599   13.8045 H       1  LIG1        0.1425
     10 N           4.3007   12.0820    9.9876 N.pl3   1  LIG1       -0.3536
     11 H           4.7943   11.5803   10.7210 H       1  LIG1        0.1425
     12 H           3.9142   11.4293    9.3135 H       1  LIG1        0.1425
     13 C           0.4890   14.0245    8.3256 C.ar    1  LIG1        0.0390
     14 C           1.8076   13.6597    8.6231 C.ar    1  LIG1        0.0373
     15 C           2.6633   13.4002    7.5506 C.ar    1  LIG1       -0.0475
     16 C           2.1723   13.5109    6.2580 C.ar    1  LIG1       -0.0350
     17 C           0.8437   13.9013    6.0612 C.ar    1  LIG1        0.0713
     18 N           0.0232   14.1403    7.0894 N.ar    1  LIG1       -0.2543
     19 H           3.6972   13.1323    7.7339 H       1  LIG1        0.0626
     20 H          -0.2060   14.2303    9.1307 H       1  LIG1        0.0837
     21 H           2.8007   13.2877    5.4078 H       1  LIG1        0.0639
     22 C           0.9176   14.6055    3.6113 C.ar    1  LIG1       -0.0407
     23 C           0.2850   14.6273    2.3680 C.ar    1  LIG1       -0.0504
     24 C           0.2491   14.0108    4.6931 C.ar    1  LIG1        0.0033
     25 C          -0.9855   14.0856    2.1757 C.ar    1  LIG1       -0.0140
     26 H           0.7883   15.0892    1.5281 H       1  LIG1        0.0626
     27 C          -1.0355   13.4920    4.5122 C.ar    1  LIG1       -0.0517
     28 C          -1.6473   13.5190    3.2678 C.ar    1  LIG1       -0.0533
     29 H          -1.5409   13.0633    5.3676 H       1  LIG1        0.0624
     30 C           2.2788   15.2746    3.7364 C.3     1  LIG1       -0.0391
     31 H           2.3488   16.0828    3.0086 H       1  LIG1        0.0278
     32 H           3.0863   14.5682    3.5298 H       1  LIG1        0.0278
     33 H           2.4255   15.6876    4.7339 H       1  LIG1        0.0278
     34 H          -2.6314   13.0874    3.1340 H       1  LIG1        0.0624
     35 C          -0.9968   13.7976   -0.3443 C.ar    1  LIG1        0.1280
     36 C          -1.6717   13.8557   -1.5548 C.ar    1  LIG1       -0.0159
     37 C          -1.6651   14.1534    0.8471 C.ar    1  LIG1        0.0272
     38 C          -3.0097   14.2648   -1.6132 C.ar    1  LIG1       -0.0165
     39 H          -1.1765   13.5797   -2.4747 H       1  LIG1        0.0655
     40 C          -2.9883   14.5583    0.7742 C.ar    1  LIG1       -0.0087
     41 C          -3.6705   14.6173   -0.4465 C.ar    1  LIG1        0.1209
     42 H          -3.5176   14.8592    1.6689 H       1  LIG1        0.0661
     43 H          -3.5035   14.2987   -2.5740 H       1  LIG1        0.0655
     44 O           0.2999   13.3978   -0.2241 O.3     1  LIG1       -0.4945
     45 C           0.9658   12.9532   -1.3873 C.3     1  LIG1        0.0788
     46 H           1.9605   12.6567   -1.0648 H       1  LIG1        0.0660
     47 H           0.4480   12.0956   -1.8250 H       1  LIG1        0.0660
     48 H           1.0423   13.7566   -2.1253 H       1  LIG1        0.0660
     49 O          -4.9666   15.0317   -0.3852 O.3     1  LIG1       -0.4951
     50 C          -5.6759   15.1342   -1.6016 C.3     1  LIG1        0.0788
     51 H          -6.6692   15.4895   -1.3407 H       1  LIG1        0.0660
     52 H          -5.1930   15.8503   -2.2724 H       1  LIG1        0.0660
     53 H          -5.7503   14.1602   -2.0925 H       1  LIG1        0.0660
@<TRIPOS>BOND
     1    43    38    1
     2    39    36    1
     3    52    50    1
     4    48    45    1
     5    53    50    1
     6    47    45    1
     7    38    36   ar
     8    38    41   ar
     9    50    51    1
    10    50    49    1
    11    36    35   ar
    12    45    46    1
    13    45    44    1
    14    41    49    1
    15    41    40   ar
    16    35    44    1
    17    35    37   ar
    18    40    37   ar
    19    40    42    1
    20    37    25    1
    21    26    23    1
    22    25    23   ar
    23    25    28   ar
    24    23    22   ar
    25    31    30    1
    26    34    28    1
    27    28    27   ar
    28    32    30    1
    29    22    30    1
    30    22    24   ar
    31    30    33    1
    32    27    24   ar
    33    27    29    1
    34    24    17    1
    35    21    16    1
    36    17    16   ar
    37    17    18   ar
    38    16    15   ar
    39    18    13   ar
    40    15    19    1
    41    15    14   ar
    42    13    14   ar
    43    13    20    1
    44    14     4    1
    45    12    10    1
    46    10     3    1
    47    10    11    1
    48     4     3   ar
    49     4     5   ar
    50     3     2   ar
    51     5     1   ar
    52     2     1   ar
    53     2     7    1
    54     1     6    1
    55     7     8    1
    56     7     9    1
