@<TRIPOS>MOLECULE
mol_data/opt/m06hf/geoms/mol2/12hl13ed-4ff-6da-.out
 48 51 0 0 0
SMALL
GASTEIGER

@<TRIPOS>ATOM
      1 C           0.1079    1.6215   -0.4209 C.ar    1  LIG1        0.1170
      2 C           1.4429    1.5002   -0.2221 C.ar    1  LIG1        0.1059
      3 C           1.9553    2.8491   -0.1887 C.ar    1  LIG1        0.1878
      4 C           0.8917    3.6777   -0.3729 C.ar    1  LIG1        0.1954
      5 O          -0.2340    2.9393   -0.5114 O.2     1  LIG1       -0.4557
      6 H          -0.6913    0.9098   -0.5156 H       1  LIG1        0.1050
      7 N           2.2579    0.3883   -0.0071 N.pl3   1  LIG1       -0.3527
      8 H           1.9290   -0.4611   -0.4454 H       1  LIG1        0.1425
      9 H           3.2192    0.5876   -0.2588 H       1  LIG1        0.1425
     10 O           3.2656    3.1361    0.0003 O.3     1  LIG1       -0.4896
     11 C           3.5711    3.5518    1.3366 C.3     1  LIG1        0.0791
     12 H           4.6434    3.7287    1.3581 H       1  LIG1        0.0660
     13 H           3.0394    4.4752    1.5694 H       1  LIG1        0.0660
     14 H           3.2967    2.7626    2.0391 H       1  LIG1        0.0660
     15 C           0.7064    5.1190   -0.4042 C.ar    1  LIG1        0.1031
     16 C           1.5837    6.1821   -0.5247 C.ar    1  LIG1        0.0710
     17 C           0.7797    7.3634   -0.4493 C.ar    1  LIG1        0.0931
     18 C          -0.5413    6.9880   -0.2968 C.ar    1  LIG1        0.0694
     19 N          -0.5535    5.6301   -0.2770 N.ar    1  LIG1       -0.3495
     20 H          -1.3739    5.0591   -0.1236 H       1  LIG1        0.1661
     21 C           2.9976    6.1476   -0.7247 C.1     1  LIG1       -0.0661
     22 C           4.1858    6.1513   -0.9000 C.1     1  LIG1       -0.1138
     23 H           5.2376    6.1491   -1.0693 H       1  LIG1        0.1232
     24 N           1.5002    9.8337   -0.5860 N.1     1  LIG1       -0.1908
     25 C           1.2188    8.7191   -0.5463 C.1     1  LIG1        0.1025
     26 C          -1.8958    8.8986    0.6232 C.ar    1  LIG1        0.1268
     27 C          -3.1154    9.5611    0.7131 C.ar    1  LIG1       -0.0082
     28 C          -1.7865    7.7740   -0.2089 C.ar    1  LIG1        0.0445
     29 C          -4.2308    9.1368   -0.0081 C.ar    1  LIG1        0.0298
     30 H          -3.1817   10.4029    1.3904 H       1  LIG1        0.0661
     31 C          -2.8969    7.3636   -0.9511 C.ar    1  LIG1       -0.0069
     32 C          -4.1123    8.0266   -0.8549 C.ar    1  LIG1        0.1255
     33 H          -2.8204    6.5363   -1.6460 H       1  LIG1        0.0662
     34 O          -0.8742    9.3210    1.4253 O.3     1  LIG1       -0.5061
     35 H          -0.1426    9.6860    0.9061 H       1  LIG1        0.2922
     36 O          -5.1615    7.6357   -1.6488 O.3     1  LIG1       -0.5061
     37 H          -5.6659    6.9393   -1.2044 H       1  LIG1        0.2922
     38 C          -6.7249    9.2984    0.4421 C.ar    1  LIG1        0.1478
     39 C          -5.5053    9.8982    0.1104 C.ar    1  LIG1        0.0216
     40 C          -5.5309   11.2828   -0.0713 C.ar    1  LIG1       -0.0498
     41 C          -6.7259   11.9717    0.0747 C.ar    1  LIG1       -0.0429
     42 C          -7.8773   11.2553    0.4013 C.ar    1  LIG1        0.0291
     43 N          -7.8791    9.9404    0.5836 N.ar    1  LIG1       -0.2440
     44 H          -4.6172   11.7979   -0.3395 H       1  LIG1        0.0625
     45 H          -8.8297   11.7550    0.5220 H       1  LIG1        0.0830
     46 N          -6.7690    6.7171    0.8116 N.1     1  LIG1       -0.1893
     47 C          -6.7729    7.8560    0.6695 C.1     1  LIG1        0.1197
     48 H          -6.7733   13.0423   -0.0667 H       1  LIG1        0.0633
@<TRIPOS>BOND
     1    36    37    1
     2    36    32    1
     3    33    31    1
     4    23    22    1
     5    31    32   ar
     6    31    28   ar
     7    22    21    3
     8    32    29   ar
     9    21    16    1
    10    24    25    3
    11    25    17    1
    12    16    17   ar
    13    16    15   ar
    14     6     1    1
    15     5     1   ar
    16     5     4   ar
    17    17    18   ar
    18     8     7    1
    19     1     2   ar
    20    15     4    1
    21    15    19   ar
    22     4     3   ar
    23    44    40    1
    24    18    19   ar
    25    18    28    1
    26    19    20    1
    27     9     7    1
    28     2     3   ar
    29     2     7    1
    30    28    26   ar
    31     3    10    1
    32    40    41   ar
    33    40    39   ar
    34    48    41    1
    35    29    39    1
    36    29    27   ar
    37    10    11    1
    38    41    42   ar
    39    39    38   ar
    40    42    45    1
    41    42    43   ar
    42    38    43   ar
    43    38    47    1
    44    26    27   ar
    45    26    34    1
    46    47    46    3
    47    27    30    1
    48    35    34    1
    49    11    12    1
    50    11    13    1
    51    11    14    1
