@<TRIPOS>MOLECULE
mol_data/opt/m06hf/geoms/mol2/12hl4ed12hi-13aa-.out
 48 51 0 0 0
SMALL
GASTEIGER

@<TRIPOS>ATOM
      1 C           0.7395    1.7009   -1.4229 C.ar    1  LIG1        0.1169
      2 C           1.8105    1.6042   -0.5982 C.ar    1  LIG1        0.1058
      3 C           2.0612    2.9477   -0.1369 C.ar    1  LIG1        0.1864
      4 C           1.1288    3.7492   -0.7207 C.ar    1  LIG1        0.1793
      5 O           0.3195    2.9918   -1.4962 O.2     1  LIG1       -0.4572
      6 H           0.1876    0.9804   -1.9984 H       1  LIG1        0.1050
      7 N           2.5488    0.5034   -0.1462 N.pl3   1  LIG1       -0.3527
      8 H           2.4526   -0.3193   -0.7272 H       1  LIG1        0.1425
      9 H           3.5257    0.7449   -0.0217 H       1  LIG1        0.1425
     10 O           3.0311    3.2666    0.7576 O.3     1  LIG1       -0.4896
     11 C           2.6371    2.9941    2.1068 C.3     1  LIG1        0.0791
     12 H           3.4985    3.2261    2.7279 H       1  LIG1        0.0660
     13 H           1.7933    3.6307    2.3775 H       1  LIG1        0.0660
     14 H           2.3633    1.9423    2.2093 H       1  LIG1        0.0660
     15 C           1.7625    6.1897   -0.5277 C.ar    1  LIG1        0.0362
     16 C           1.3722    7.5225   -0.3877 C.ar    1  LIG1       -0.0337
     17 C           0.7924    5.1741   -0.6044 C.ar    1  LIG1        0.0376
     18 C           0.0252    7.8915   -0.3626 C.ar    1  LIG1        0.0376
     19 H           2.1331    8.2850   -0.2829 H       1  LIG1        0.0637
     20 C          -0.5544    5.5343   -0.5812 C.ar    1  LIG1       -0.0317
     21 C          -0.9380    6.8670   -0.4687 C.ar    1  LIG1        0.0632
     22 H          -1.3101    4.7641   -0.6568 H       1  LIG1        0.0638
     23 C           3.1715    5.9010   -0.6284 C.1     1  LIG1       -0.0689
     24 C           4.3509    5.6993   -0.7313 C.1     1  LIG1       -0.1139
     25 H           5.3936    5.4963   -0.8118 H       1  LIG1        0.1232
     26 N          -3.4905    7.3567   -0.4900 N.1     1  LIG1       -0.1908
     27 C          -2.3602    7.1559   -0.4780 C.1     1  LIG1        0.0999
     28 C          -0.3411    9.2936   -0.2359 C.ar    1  LIG1        0.1578
     29 C           0.3189   10.4638   -0.5018 C.ar    1  LIG1        0.0746
     30 C          -0.5989   11.5344   -0.2037 C.ar    1  LIG1        0.0181
     31 C          -1.7400   10.9198    0.2238 C.ar    1  LIG1        0.1565
     32 O          -1.5914    9.5837    0.2073 O.2     1  LIG1       -0.4511
     33 N           1.6260   10.6088   -0.9804 N.pl3   1  LIG1       -0.3548
     34 H           1.8416    9.9923   -1.7564 H       1  LIG1        0.1424
     35 H           1.8547   11.5663   -1.2129 H       1  LIG1        0.1424
     36 C          -0.3649   13.0082   -0.3987 C.3     1  LIG1       -0.0343
     37 H           0.1434   13.4493    0.4604 H       1  LIG1        0.0279
     38 H          -1.3206   13.5120   -0.5414 H       1  LIG1        0.0279
     39 H           0.2428   13.1819   -1.2897 H       1  LIG1        0.0279
     40 C          -3.0622   11.3792    0.6170 C.ar    1  LIG1        0.0824
     41 C          -3.5342   12.5905    1.0850 C.ar    1  LIG1       -0.0334
     42 C          -4.9309   12.4390    1.2845 C.ar    1  LIG1       -0.0437
     43 C          -5.2537   11.1445    0.9379 C.ar    1  LIG1        0.0023
     44 N          -4.1188   10.5156    0.5375 N.ar    1  LIG1       -0.3583
     45 H          -4.0436    9.5531    0.2259 H       1  LIG1        0.1654
     46 H          -6.1991   10.6302    0.9464 H       1  LIG1        0.0807
     47 H          -2.9375   13.4632    1.2892 H       1  LIG1        0.0640
     48 H          -5.6166   13.1851    1.6481 H       1  LIG1        0.0633
@<TRIPOS>BOND
     1     6     1    1
     2    34    33    1
     3     5     1   ar
     4     5     4   ar
     5     1     2   ar
     6    39    36    1
     7    35    33    1
     8    33    29    1
     9    25    24    1
    10    24    23    3
    11     8     7    1
    12     4    17    1
    13     4     3   ar
    14    22    20    1
    15    23    15    1
    16    17    20   ar
    17    17    15   ar
    18     2     7    1
    19     2     3   ar
    20    20    21   ar
    21    38    36    1
    22    15    16   ar
    23    29    28   ar
    24    29    30   ar
    25    26    27    3
    26    27    21    1
    27    21    18   ar
    28    36    30    1
    29    36    37    1
    30    16    18   ar
    31    16    19    1
    32    18    28    1
    33    28    32   ar
    34    30    31   ar
    35     7     9    1
    36     3    10    1
    37    32    31   ar
    38    31    40    1
    39    45    44    1
    40    44    40   ar
    41    44    43   ar
    42    40    41   ar
    43    10    11    1
    44    43    46    1
    45    43    42   ar
    46    41    42   ar
    47    41    47    1
    48    42    48    1
    49    11    14    1
    50    11    13    1
    51    11    12    1
