@<TRIPOS>MOLECULE
mol_data/opt/m06hf/geoms/mol2/12ia12ia-12ia.out
 32 34 0 0 0
SMALL
GASTEIGER

@<TRIPOS>ATOM
      1 C           0.2117    1.8162    0.1671 C.ar    1  LIG1        0.0956
      2 C           1.5538    1.8337   -0.0176 C.ar    1  LIG1       -0.0120
      3 C           1.9067    3.2283   -0.1167 C.ar    1  LIG1       -0.0099
      4 C           0.7457    3.9218    0.0189 C.ar    1  LIG1        0.1702
      5 O          -0.2898    3.0739    0.1939 O.2     1  LIG1       -0.4596
      6 H          -0.4966    1.0162    0.2940 H       1  LIG1        0.1032
      7 C           2.4826    0.6498   -0.1052 C.3     1  LIG1       -0.0367
      8 H           3.2508    0.7135    0.6661 H       1  LIG1        0.0278
      9 H           2.9727    0.6235   -1.0790 H       1  LIG1        0.0278
     10 H           1.9271   -0.2775    0.0316 H       1  LIG1        0.0278
     11 H           2.8848    3.6516   -0.2728 H       1  LIG1        0.0659
     12 C           0.4723    5.3504    0.0084 C.ar    1  LIG1        0.1736
     13 C          -0.6628    6.1045    0.0148 C.ar    1  LIG1       -0.0009
     14 C          -0.2075    7.4698   -0.0150 C.ar    1  LIG1       -0.0091
     15 C           1.1499    7.4236   -0.0394 C.ar    1  LIG1        0.1712
     16 O           1.5735    6.1417   -0.0274 O.2     1  LIG1       -0.4484
     17 C          -2.0983    5.6435    0.0455 C.3     1  LIG1       -0.0360
     18 H          -2.1550    4.5653   -0.0799 H       1  LIG1        0.0279
     19 H          -2.6561    6.1295   -0.7557 H       1  LIG1        0.0279
     20 H          -2.5560    5.9148    0.9979 H       1  LIG1        0.0279
     21 H          -0.8123    8.3609   -0.0179 H       1  LIG1        0.0659
     22 C           2.1638    8.4636   -0.0733 C.ar    1  LIG1        0.1726
     23 C           3.5217    8.4450    0.0389 C.ar    1  LIG1       -0.0017
     24 C           3.9206    9.8259   -0.0764 C.ar    1  LIG1       -0.0203
     25 C           2.7840   10.5433   -0.2403 C.ar    1  LIG1        0.0930
     26 O           1.7107    9.7271   -0.2411 O.2     1  LIG1       -0.4596
     27 H           2.5847   11.5930   -0.3635 H       1  LIG1        0.1029
     28 C           4.4273    7.2543    0.2338 C.3     1  LIG1       -0.0360
     29 H           5.3016    7.5513    0.8126 H       1  LIG1        0.0279
     30 H           4.7639    6.8706   -0.7310 H       1  LIG1        0.0279
     31 H           3.9028    6.4589    0.7595 H       1  LIG1        0.0279
     32 H           4.9267   10.2090   -0.0331 H       1  LIG1        0.0652
@<TRIPOS>BOND
     1     9     7    1
     2    19    17    1
     3    30    28    1
     4    27    25    1
     5    11     3    1
     6    26    25   ar
     7    26    22   ar
     8    25    24   ar
     9     3     2   ar
    10     3     4   ar
    11     7     2    1
    12     7    10    1
    13     7     8    1
    14    18    17    1
    15    24    32    1
    16    24    23   ar
    17    22    15    1
    18    22    23   ar
    19    15    16   ar
    20    15    14   ar
    21    16    12   ar
    22    21    14    1
    23     2     1   ar
    24    14    13   ar
    25    12    13   ar
    26    12     4    1
    27    13    17    1
    28     4     5   ar
    29    23    28    1
    30    17    20    1
    31     1     5   ar
    32     1     6    1
    33    28    31    1
    34    28    29    1
