@<TRIPOS>MOLECULE
mol_data/opt/m06hf/geoms/mol2/12ia13di12id-4hi-.out
 50 53 0 0 0
SMALL
GASTEIGER

@<TRIPOS>ATOM
      1 C           0.6322    2.0314   -1.7289 C.ar    1  LIG1        0.0955
      2 C           1.9024    1.9321   -1.2694 C.ar    1  LIG1       -0.0121
      3 C           2.1598    3.1702   -0.5751 C.ar    1  LIG1       -0.0115
      4 C           1.0203    3.9006   -0.6810 C.ar    1  LIG1        0.1524
      5 O           0.0835    3.2200   -1.3811 O.2     1  LIG1       -0.4612
      6 H           0.0069    1.3628   -2.2945 H       1  LIG1        0.1032
      7 C           2.8536    0.7756   -1.4410 C.3     1  LIG1       -0.0367
      8 H           3.1520    0.3847   -0.4681 H       1  LIG1        0.0278
      9 H           3.7486    1.0993   -1.9731 H       1  LIG1        0.0278
     10 H           2.3783   -0.0237   -2.0084 H       1  LIG1        0.0278
     11 H           3.0659    3.4655   -0.0713 H       1  LIG1        0.0658
     12 C           0.6247    5.2187   -0.2107 C.ar    1  LIG1        0.1004
     13 C           1.3117    6.1704    0.5275 C.ar    1  LIG1        0.0836
     14 C           0.4513    7.2909    0.7282 C.ar    1  LIG1       -0.0041
     15 C          -0.7253    6.9769    0.0831 C.ar    1  LIG1        0.0871
     16 N          -0.6004    5.7250   -0.4686 N.ar    1  LIG1       -0.3481
     17 H          -1.3184    5.2370   -0.9853 H       1  LIG1        0.1661
     18 N           3.7262    5.8940    1.3964 N.1     1  LIG1       -0.1908
     19 C           2.6502    6.0228    1.0129 C.1     1  LIG1        0.1017
     20 C           0.7695    8.5200    1.5390 C.3     1  LIG1       -0.0364
     21 H          -0.1501    9.0536    1.7784 H       1  LIG1        0.0279
     22 H           1.4387    9.1871    0.9932 H       1  LIG1        0.0279
     23 H           1.2610    8.2275    2.4670 H       1  LIG1        0.0279
     24 C          -1.9601    7.7387   -0.0644 C.ar    1  LIG1        0.1562
     25 C          -2.2104    9.0395   -0.3563 C.ar    1  LIG1        0.0148
     26 C          -3.6522    9.1431   -0.3556 C.ar    1  LIG1        0.1010
     27 C          -4.1598    7.8953   -0.0966 C.ar    1  LIG1        0.1551
     28 O          -3.1270    7.0502    0.0825 O.2     1  LIG1       -0.4517
     29 C          -1.2387   10.1436   -0.6730 C.3     1  LIG1       -0.0348
     30 H          -1.5883   10.6979   -1.5441 H       1  LIG1        0.0279
     31 H          -0.2584    9.7187   -0.8864 H       1  LIG1        0.0279
     32 H          -1.1565   10.8385    0.1641 H       1  LIG1        0.0279
     33 N          -4.8821   11.3865   -0.6979 N.1     1  LIG1       -0.1907
     34 C          -4.3680   10.3728   -0.5350 C.1     1  LIG1        0.1032
     35 C          -6.5690    7.7066   -0.7802 C.ar    1  LIG1        0.0354
     36 C          -7.8292    7.1305   -0.5344 C.ar    1  LIG1       -0.0401
     37 C          -5.5091    7.3363    0.0646 C.ar    1  LIG1        0.0394
     38 C          -8.0076    6.2151    0.4842 C.ar    1  LIG1       -0.0571
     39 H          -8.6636    7.4120   -1.1651 H       1  LIG1        0.0636
     40 C          -5.7102    6.3881    1.0791 C.ar    1  LIG1       -0.0464
     41 C          -6.9480    5.8142    1.3108 C.ar    1  LIG1       -0.0497
     42 H          -4.8620    6.1167    1.6971 H       1  LIG1        0.0628
     43 H          -8.9928    5.7907    0.6427 H       1  LIG1        0.0621
     44 N          -6.4115    8.6098   -1.8053 N.pl3   1  LIG1       -0.3574
     45 H          -5.4838    8.7754   -2.1636 H       1  LIG1        0.1423
     46 H          -7.1526    8.6766   -2.4840 H       1  LIG1        0.1423
     47 C          -7.1679    4.8023    2.4200 C.3     1  LIG1       -0.0397
     48 H          -6.2257    4.5669    2.9137 H       1  LIG1        0.0278
     49 H          -7.5875    3.8790    2.0173 H       1  LIG1        0.0278
     50 H          -7.8601    5.1969    3.1658 H       1  LIG1        0.0278
@<TRIPOS>BOND
     1    46    44    1
     2     6     1    1
     3    45    44    1
     4    10     7    1
     5     9     7    1
     6    44    35    1
     7     1     5   ar
     8     1     2   ar
     9    30    29    1
    10     7     2    1
    11     7     8    1
    12     5     4   ar
    13     2     3   ar
    14    39    36    1
    15    17    16    1
    16    31    29    1
    17    35    36   ar
    18    35    37   ar
    19    33    34    3
    20     4     3   ar
    21     4    12    1
    22    29    25    1
    23    29    32    1
    24     3    11    1
    25    34    26    1
    26    36    38   ar
    27    16    12   ar
    28    16    15   ar
    29    25    26   ar
    30    25    24   ar
    31    26    27   ar
    32    12    13   ar
    33    27    37    1
    34    27    28   ar
    35    24    28   ar
    36    24    15    1
    37    37    40   ar
    38    15    14   ar
    39    38    43    1
    40    38    41   ar
    41    13    14   ar
    42    13    19    1
    43    14    20    1
    44    22    20    1
    45    19    18    3
    46    40    41   ar
    47    40    42    1
    48    41    47    1
    49    20    21    1
    50    20    23    1
    51    49    47    1
    52    47    48    1
    53    47    50    1
