@<TRIPOS>MOLECULE
mol_data/opt/m06hf/geoms/mol2/12ia12ia12ia12ia-.out
 42 45 0 0 0
SMALL
GASTEIGER

@<TRIPOS>ATOM
      1 C           0.8134    1.8593    1.0532 C.ar    1  LIG1        0.0956
      2 C           1.9205    1.8395    0.2707 C.ar    1  LIG1       -0.0120
      3 C           2.0068    3.1638   -0.2918 C.ar    1  LIG1       -0.0099
      4 C           0.9515    3.8599    0.2109 C.ar    1  LIG1        0.1702
      5 O           0.2232    3.0728    1.0294 O.2     1  LIG1       -0.4596
      6 H           0.3395    1.1088    1.6620 H       1  LIG1        0.1032
      7 C           2.8535    0.6812    0.0269 C.3     1  LIG1       -0.0367
      8 H           3.8591    0.9231    0.3726 H       1  LIG1        0.0278
      9 H           2.9011    0.4484   -1.0374 H       1  LIG1        0.0278
     10 H           2.5059   -0.2029    0.5604 H       1  LIG1        0.0278
     11 H           2.7364    3.5269   -0.9966 H       1  LIG1        0.0659
     12 C           0.5139    5.2379    0.0365 C.ar    1  LIG1        0.1736
     13 C           1.2026    6.3776   -0.2563 C.ar    1  LIG1       -0.0009
     14 C           0.2071    7.4107   -0.3279 C.ar    1  LIG1       -0.0091
     15 C          -0.9868    6.8136   -0.0534 C.ar    1  LIG1        0.1713
     16 O          -0.8072    5.4950    0.1638 O.2     1  LIG1       -0.4484
     17 C           2.6889    6.5251   -0.4556 C.3     1  LIG1       -0.0360
     18 H           3.0108    7.5104   -0.1199 H       1  LIG1        0.0279
     19 H           2.9535    6.4158   -1.5091 H       1  LIG1        0.0279
     20 H           3.2197    5.7659    0.1198 H       1  LIG1        0.0279
     21 H           0.3671    8.4487   -0.5680 H       1  LIG1        0.0659
     22 C          -2.3419    7.3282    0.0559 C.ar    1  LIG1        0.1736
     23 C          -2.8313    8.5768    0.3020 C.ar    1  LIG1       -0.0009
     24 C          -4.2607    8.4362    0.2703 C.ar    1  LIG1       -0.0091
     25 C          -4.5100    7.1225    0.0195 C.ar    1  LIG1        0.1712
     26 O          -3.3534    6.4451   -0.1155 O.2     1  LIG1       -0.4484
     27 C          -2.0429    9.8326    0.5700 C.3     1  LIG1       -0.0360
     28 H          -2.6257   10.5068    1.1966 H       1  LIG1        0.0279
     29 H          -1.8045   10.3478   -0.3624 H       1  LIG1        0.0279
     30 H          -1.1129    9.5892    1.0850 H       1  LIG1        0.0279
     31 H          -4.9987    9.2044    0.4287 H       1  LIG1        0.0659
     32 C          -5.7504    6.3748   -0.1105 C.ar    1  LIG1        0.1726
     33 C          -6.0402    5.0563   -0.2940 C.ar    1  LIG1       -0.0017
     34 C          -7.4819    4.9984   -0.3304 C.ar    1  LIG1       -0.0203
     35 C          -7.9244    6.2661   -0.1659 C.ar    1  LIG1        0.0930
     36 O          -6.8832    7.1123   -0.0322 O.2     1  LIG1       -0.4596
     37 H          -8.9049    6.7065   -0.1226 H       1  LIG1        0.1029
     38 C          -5.0974    3.8867   -0.4308 C.3     1  LIG1       -0.0360
     39 H          -4.0684    4.1948   -0.2630 H       1  LIG1        0.0279
     40 H          -5.1815    3.4582   -1.4307 H       1  LIG1        0.0279
     41 H          -5.3634    3.1170    0.2951 H       1  LIG1        0.0279
     42 H          -8.0854    4.1157   -0.4612 H       1  LIG1        0.0652
@<TRIPOS>BOND
     1    19    17    1
     2    40    38    1
     3     9     7    1
     4    11     3    1
     5    21    14    1
     6    42    34    1
     7    17    13    1
     8    17    18    1
     9    17    20    1
    10    38    33    1
    11    38    39    1
    12    38    41    1
    13    29    27    1
    14    34    33   ar
    15    34    35   ar
    16    14    13   ar
    17    14    15   ar
    18    33    32   ar
    19     3     4   ar
    20     3     2   ar
    21    13    12   ar
    22    35    37    1
    23    35    36   ar
    24    26    25   ar
    25    26    22   ar
    26    32    36   ar
    27    32    25    1
    28    15    22    1
    29    15    16   ar
    30    25    24   ar
    31     7     2    1
    32     7     8    1
    33     7    10    1
    34    12    16   ar
    35    12     4    1
    36    22    23   ar
    37     4     5   ar
    38    24    23   ar
    39    24    31    1
    40     2     1   ar
    41    23    27    1
    42    27    30    1
    43    27    28    1
    44     5     1   ar
    45     1     6    1
