@<TRIPOS>MOLECULE
mol_data/opt/m06hf/geoms/mol2/12ia.out
 12 12 0 0 0
SMALL
GASTEIGER

@<TRIPOS>ATOM
      1 C           0.1636    1.9520    0.1199 C.ar    1  LIG1        0.0946
      2 C           1.5127    1.9259    0.0075 C.ar    1  LIG1       -0.0128
      3 C           1.9087    3.3121   -0.0961 C.ar    1  LIG1       -0.0210
      4 C           0.7660    4.0353   -0.0367 C.ar    1  LIG1        0.0919
      5 O          -0.2998    3.2204    0.0942 O.2     1  LIG1       -0.4708
      6 H          -0.5727    1.1735    0.2215 H       1  LIG1        0.1032
      7 H           0.5596    5.0902   -0.0729 H       1  LIG1        0.1029
      8 C           2.4102    0.7145   -0.0067 C.3     1  LIG1       -0.0367
      9 H           3.1198    0.7567    0.8203 H       1  LIG1        0.0278
     10 H           2.9713    0.6673   -0.9406 H       1  LIG1        0.0278
     11 H           1.8185   -0.1956    0.0894 H       1  LIG1        0.0278
     12 H           2.9106    3.6951   -0.1998 H       1  LIG1        0.0652
@<TRIPOS>BOND
     1    10     8    1
     2    12     3    1
     3     3     4   ar
     4     3     2   ar
     5     7     4    1
     6     4     5   ar
     7     8     2    1
     8     8    11    1
     9     8     9    1
    10     2     1   ar
    11     5     1   ar
    12     1     6    1
