@<TRIPOS>MOLECULE
mol_data/opt/m06hf/geoms/mol2/12ia12ia-12ia-12ia.out
 42 45 0 0 0
SMALL
GASTEIGER

@<TRIPOS>ATOM
      1 C           0.0260    1.7652   -0.0542 C.ar    1  LIG1        0.0956
      2 C           1.3552    1.7415   -0.3140 C.ar    1  LIG1       -0.0120
      3 C           1.7707    3.1222   -0.3046 C.ar    1  LIG1       -0.0099
      4 C           0.6546    3.8498   -0.0395 C.ar    1  LIG1        0.1702
      5 O          -0.4114    3.0358    0.1132 O.2     1  LIG1       -0.4596
      6 H          -0.7137    0.9891    0.0403 H       1  LIG1        0.1032
      7 C           2.2210    0.5326   -0.5606 C.3     1  LIG1       -0.0367
      8 H           3.0207    0.4826    0.1791 H       1  LIG1        0.0278
      9 H           2.6712    0.5851   -1.5522 H       1  LIG1        0.0278
     10 H           1.6276   -0.3789   -0.4943 H       1  LIG1        0.0278
     11 H           2.7594    3.5158   -0.4716 H       1  LIG1        0.0659
     12 C           0.4515    5.2840    0.0967 C.ar    1  LIG1        0.1736
     13 C          -0.6290    6.0697    0.3694 C.ar    1  LIG1       -0.0009
     14 C          -0.1203    7.4155    0.3731 C.ar    1  LIG1       -0.0091
     15 C           1.2097    7.3296    0.0955 C.ar    1  LIG1        0.1713
     16 O           1.5631    6.0375   -0.0730 O.2     1  LIG1       -0.4484
     17 C          -2.0559    5.6563    0.6283 C.3     1  LIG1       -0.0360
     18 H          -2.1370    4.5733    0.6706 H       1  LIG1        0.0279
     19 H          -2.7021    6.0306   -0.1672 H       1  LIG1        0.0279
     20 H          -2.3954    6.0781    1.5751 H       1  LIG1        0.0279
     21 H          -0.6759    8.3133    0.5879 H       1  LIG1        0.0659
     22 C           2.2559    8.3269   -0.0537 C.ar    1  LIG1        0.1736
     23 C           2.2206    9.6598   -0.3394 C.ar    1  LIG1       -0.0009
     24 C           3.5932   10.0844   -0.3347 C.ar    1  LIG1       -0.0091
     25 C           4.3350    8.9783   -0.0586 C.ar    1  LIG1        0.1712
     26 O           3.5328    7.9096    0.1161 O.2     1  LIG1       -0.4484
     27 C           1.0040   10.5034   -0.6197 C.3     1  LIG1       -0.0360
     28 H           0.5934   10.9119    0.3056 H       1  LIG1        0.0279
     29 H           0.2365    9.9036   -1.1101 H       1  LIG1        0.0279
     30 H           1.2730   11.3326   -1.2729 H       1  LIG1        0.0279
     31 H           3.9738   11.0735   -0.5262 H       1  LIG1        0.0659
     32 C           5.7699    8.7734    0.0607 C.ar    1  LIG1        0.1726
     33 C           6.5501    7.6812    0.2930 C.ar    1  LIG1       -0.0017
     34 C           7.9026    8.1845    0.2787 C.ar    1  LIG1       -0.0203
     35 C           7.8178    9.5138    0.0422 C.ar    1  LIG1        0.0930
     36 O           6.5283    9.8846   -0.0912 O.2     1  LIG1       -0.4596
     37 H           8.5509   10.2949   -0.0559 H       1  LIG1        0.1029
     38 C           6.1351    6.2482    0.5169 C.3     1  LIG1       -0.0360
     39 H           6.4719    5.9156    1.4999 H       1  LIG1        0.0279
     40 H           6.5971    5.6099   -0.2378 H       1  LIG1        0.0279
     41 H           5.0543    6.1454    0.4578 H       1  LIG1        0.0279
     42 H           8.8025    7.6113    0.4276 H       1  LIG1        0.0652
@<TRIPOS>BOND
     1     9     7    1
     2    30    27    1
     3    29    27    1
     4    27    23    1
     5    27    28    1
     6     7    10    1
     7     7     2    1
     8     7     8    1
     9    31    24    1
    10    11     3    1
    11    23    24   ar
    12    23    22   ar
    13    24    25   ar
    14     2     3   ar
    15     2     1   ar
    16     3     4   ar
    17    40    38    1
    18    19    17    1
    19    36    35   ar
    20    36    32   ar
    21    16    15   ar
    22    16    12   ar
    23    25    32    1
    24    25    26   ar
    25    37    35    1
    26     1     6    1
    27     1     5   ar
    28    22    15    1
    29    22    26   ar
    30     4    12    1
    31     4     5   ar
    32    35    34   ar
    33    32    33   ar
    34    15    14   ar
    35    12    13   ar
    36    34    33   ar
    37    34    42    1
    38    33    38    1
    39    13    14   ar
    40    13    17    1
    41    14    21    1
    42    41    38    1
    43    38    39    1
    44    17    18    1
    45    17    20    1
