@<TRIPOS>MOLECULE
mol_data/opt/m06hf/geoms/mol2/12ia12ia.out
 22 23 0 0 0
SMALL
GASTEIGER

@<TRIPOS>ATOM
      1 C           0.2572    1.8732    0.4736 C.ar    1  LIG1        0.0956
      2 C           1.5263    1.8767   -0.0032 C.ar    1  LIG1       -0.0120
      3 C           1.8068    3.2558   -0.3155 C.ar    1  LIG1       -0.0099
      4 C           0.6863    3.9553    0.0114 C.ar    1  LIG1        0.1702
      5 O          -0.2587    3.1208    0.4911 O.2     1  LIG1       -0.4596
      6 H          -0.3859    1.0845    0.8241 H       1  LIG1        0.1032
      7 C           2.4430    0.6941   -0.1848 C.3     1  LIG1       -0.0367
      8 H           3.3527    0.8232    0.4030 H       1  LIG1        0.0278
      9 H           2.7230    0.5869   -1.2333 H       1  LIG1        0.0278
     10 H           1.9472   -0.2209    0.1382 H       1  LIG1        0.0278
     11 H           2.7068    3.6568   -0.7516 H       1  LIG1        0.0659
     12 C           0.3690    5.3770   -0.0499 C.ar    1  LIG1        0.1725
     13 C           1.1592    6.4826    0.0415 C.ar    1  LIG1       -0.0017
     14 C           0.2614    7.5983   -0.1190 C.ar    1  LIG1       -0.0203
     15 C          -0.9758    7.0707   -0.2793 C.ar    1  LIG1        0.0930
     16 O          -0.9229    5.7260   -0.2422 O.2     1  LIG1       -0.4596
     17 H          -1.9494    7.5052   -0.4218 H       1  LIG1        0.1029
     18 C           2.6460    6.5294    0.2821 C.3     1  LIG1       -0.0360
     19 H           2.8987    7.4146    0.8655 H       1  LIG1        0.0279
     20 H           3.1931    6.5712   -0.6616 H       1  LIG1        0.0279
     21 H           2.9624    5.6420    0.8313 H       1  LIG1        0.0279
     22 H           0.5209    8.6435   -0.1005 H       1  LIG1        0.0652
@<TRIPOS>BOND
     1     9     7    1
     2    11     3    1
     3    20    18    1
     4    17    15    1
     5     3     2   ar
     6     3     4   ar
     7    15    16   ar
     8    15    14   ar
     9    16    12   ar
    10     7     2    1
    11     7    10    1
    12     7     8    1
    13    14    22    1
    14    14    13   ar
    15    12     4    1
    16    12    13   ar
    17     2     1   ar
    18     4     5   ar
    19    13    18    1
    20    18    21    1
    21    18    19    1
    22     1     5   ar
    23     1     6    1
