@<TRIPOS>MOLECULE
mol_data/opt/m06hf/geoms/mol2/12ia12ia12ia.out
 32 34 0 0 0
SMALL
GASTEIGER

@<TRIPOS>ATOM
      1 C           0.5128    1.8478    0.8802 C.ar    1  LIG1        0.0956
      2 C           1.6653    1.8229    0.1662 C.ar    1  LIG1       -0.0120
      3 C           1.8190    3.1618   -0.3448 C.ar    1  LIG1       -0.0099
      4 C           0.7530    3.8699    0.1170 C.ar    1  LIG1        0.1702
      5 O          -0.0439    3.0768    0.8625 O.2     1  LIG1       -0.4596
      6 H          -0.0165    1.0901    1.4317 H       1  LIG1        0.1032
      7 C           2.5802    0.6467   -0.0607 C.3     1  LIG1       -0.0367
      8 H           3.5752    0.8560    0.3333 H       1  LIG1        0.0278
      9 H           2.6686    0.4336   -1.1266 H       1  LIG1        0.0278
     10 H           2.1869   -0.2382    0.4386 H       1  LIG1        0.0278
     11 H           2.5997    3.5294   -0.9904 H       1  LIG1        0.0659
     12 C           0.3691    5.2675   -0.0347 C.ar    1  LIG1        0.1736
     13 C           1.1167    6.3976   -0.1859 C.ar    1  LIG1       -0.0009
     14 C           0.1612    7.4621   -0.3257 C.ar    1  LIG1       -0.0091
     15 C          -1.0703    6.8891   -0.2267 C.ar    1  LIG1        0.1712
     16 O          -0.9511    5.5580   -0.0519 O.2     1  LIG1       -0.4484
     17 C           2.6193    6.5096   -0.1977 C.3     1  LIG1       -0.0360
     18 H           2.9247    7.4442    0.2724 H       1  LIG1        0.0279
     19 H           3.0025    6.4970   -1.2198 H       1  LIG1        0.0279
     20 H           3.0591    5.6775    0.3521 H       1  LIG1        0.0279
     21 H           0.3706    8.5054   -0.4948 H       1  LIG1        0.0659
     22 C          -2.4144    7.4500   -0.2593 C.ar    1  LIG1        0.1726
     23 C          -2.8925    8.6739    0.1007 C.ar    1  LIG1       -0.0017
     24 C          -4.3009    8.6267   -0.1982 C.ar    1  LIG1       -0.0203
     25 C          -4.5428    7.3901   -0.6959 C.ar    1  LIG1        0.0930
     26 O          -3.4074    6.6691   -0.7397 O.2     1  LIG1       -0.4596
     27 H          -5.4338    6.8977   -1.0428 H       1  LIG1        0.1029
     28 C          -2.1197    9.8177    0.7045 C.3     1  LIG1       -0.0360
     29 H          -2.7568   10.3727    1.3927 H       1  LIG1        0.0279
     30 H          -1.7692   10.5035   -0.0692 H       1  LIG1        0.0279
     31 H          -1.2571    9.4366    1.2520 H       1  LIG1        0.0279
     32 H          -5.0210    9.4124   -0.0419 H       1  LIG1        0.0652
@<TRIPOS>BOND
     1    19    17    1
     2     9     7    1
     3    27    25    1
     4    11     3    1
     5    26    25   ar
     6    26    22   ar
     7    25    24   ar
     8    21    14    1
     9     3     4   ar
    10     3     2   ar
    11    14    15   ar
    12    14    13   ar
    13    22    15    1
    14    22    23   ar
    15    15    16   ar
    16    24    32    1
    17    24    23   ar
    18    17    13    1
    19    17    18    1
    20    17    20    1
    21    13    12   ar
    22    30    28    1
    23     7     2    1
    24     7     8    1
    25     7    10    1
    26    16    12   ar
    27    12     4    1
    28    23    28    1
    29     4     5   ar
    30     2     1   ar
    31    28    31    1
    32    28    29    1
    33     5     1   ar
    34     1     6    1
