@<TRIPOS>MOLECULE
mol_data/opt/m06hf/geoms/mol2/12ia12ia12ia-12ia.out
 42 45 0 0 0
SMALL
GASTEIGER

@<TRIPOS>ATOM
      1 C           0.4322    1.7451   -0.4474 C.ar    1  LIG1        0.0956
      2 C           1.6880    1.8021    0.0599 C.ar    1  LIG1       -0.0120
      3 C           1.9301    3.2008    0.3122 C.ar    1  LIG1       -0.0099
      4 C           0.8028    3.8572   -0.0755 C.ar    1  LIG1        0.1702
      5 O          -0.1115    2.9782   -0.5372 O.2     1  LIG1       -0.4596
      6 H          -0.1831    0.9257   -0.7759 H       1  LIG1        0.1032
      7 C           2.6258    0.6514    0.3215 C.3     1  LIG1       -0.0367
      8 H           2.8910    0.6102    1.3783 H       1  LIG1        0.0278
      9 H           3.5415    0.7667   -0.2594 H       1  LIG1        0.0278
     10 H           2.1535   -0.2903    0.0441 H       1  LIG1        0.0278
     11 H           2.8104    3.6413    0.7505 H       1  LIG1        0.0659
     12 C           0.4375    5.2660   -0.0926 C.ar    1  LIG1        0.1736
     13 C           1.1789    6.4081   -0.1562 C.ar    1  LIG1       -0.0009
     14 C           0.2245    7.4823   -0.1284 C.ar    1  LIG1       -0.0091
     15 C          -1.0038    6.9001   -0.0603 C.ar    1  LIG1        0.1713
     16 O          -0.8835    5.5582   -0.0342 O.2     1  LIG1       -0.4484
     17 C           2.6779    6.5194   -0.2598 C.3     1  LIG1       -0.0360
     18 H           2.9438    7.4138   -0.8224 H       1  LIG1        0.0279
     19 H           3.0823    5.6469   -0.7739 H       1  LIG1        0.0279
     20 H           3.1329    6.5860    0.7302 H       1  LIG1        0.0279
     21 H           0.4264    8.5396   -0.1697 H       1  LIG1        0.0659
     22 C          -2.3435    7.4575   -0.0185 C.ar    1  LIG1        0.1736
     23 C          -3.5930    6.9115    0.0089 C.ar    1  LIG1       -0.0009
     24 C          -4.4917    8.0345    0.0467 C.ar    1  LIG1       -0.0091
     25 C          -3.7160    9.1505    0.0370 C.ar    1  LIG1        0.1712
     26 O          -2.4092    8.8119   -0.0028 O.2     1  LIG1       -0.4484
     27 C          -3.9888    5.4559    0.0077 C.3     1  LIG1       -0.0360
     28 H          -3.1291    4.8209   -0.1908 H       1  LIG1        0.0279
     29 H          -4.7470    5.2857   -0.7575 H       1  LIG1        0.0279
     30 H          -4.4125    5.1873    0.9767 H       1  LIG1        0.0279
     31 H          -5.5682    8.0082    0.0750 H       1  LIG1        0.0659
     32 C          -4.0265   10.5677    0.0586 C.ar    1  LIG1        0.1726
     33 C          -3.2409   11.6813    0.0707 C.ar    1  LIG1       -0.0017
     34 C          -4.1678   12.7840    0.0892 C.ar    1  LIG1       -0.0203
     35 C          -5.4106   12.2452    0.0880 C.ar    1  LIG1        0.0930
     36 O          -5.3365   10.8990    0.0693 O.2     1  LIG1       -0.4596
     37 H          -6.3986   12.6699    0.0995 H       1  LIG1        0.1029
     38 C          -1.7327   11.7478    0.0602 C.3     1  LIG1       -0.0360
     39 H          -1.4112   12.7788    0.2012 H       1  LIG1        0.0279
     40 H          -1.3413   11.3824   -0.8900 H       1  LIG1        0.0279
     41 H          -1.3178   11.1330    0.8589 H       1  LIG1        0.0279
     42 H          -3.9183   13.8318    0.1030 H       1  LIG1        0.0652
@<TRIPOS>BOND
     1    40    38    1
     2    18    17    1
     3     6     1    1
     4    19    17    1
     5    29    27    1
     6     5     1   ar
     7     5     4   ar
     8     1     2   ar
     9    17    13    1
    10    17    20    1
    11     9     7    1
    12    28    27    1
    13    21    14    1
    14    13    14   ar
    15    13    12   ar
    16    14    15   ar
    17    12     4    1
    18    12    16   ar
    19     4     3   ar
    20    15    16   ar
    21    15    22    1
    22    22    26   ar
    23    22    23   ar
    24    26    25   ar
    25    27    23    1
    26    27    30    1
    27    23    24   ar
    28    25    24   ar
    29    25    32    1
    30    10     7    1
    31    24    31    1
    32    32    36   ar
    33    32    33   ar
    34     2     3   ar
    35     2     7    1
    36    38    33    1
    37    38    39    1
    38    38    41    1
    39    36    35   ar
    40    33    34   ar
    41    35    34   ar
    42    35    37    1
    43    34    42    1
    44     3    11    1
    45     7     8    1
