@<TRIPOS>MOLECULE
mol_data/opt/m06hf/geoms/mol2/12ia12ia12ia-12ia-.out
 42 45 0 0 0
SMALL
GASTEIGER

@<TRIPOS>ATOM
      1 C           0.4190    1.7235   -0.4034 C.ar    1  LIG1        0.0956
      2 C           1.6612    1.7679    0.1372 C.ar    1  LIG1       -0.0120
      3 C           1.9156    3.1652    0.3846 C.ar    1  LIG1       -0.0099
      4 C           0.8085    3.8338   -0.0389 C.ar    1  LIG1        0.1702
      5 O          -0.1050    2.9634   -0.5178 O.2     1  LIG1       -0.4596
      6 H          -0.1986    0.9104   -0.7429 H       1  LIG1        0.1032
      7 C           2.5786    0.6084    0.4301 C.3     1  LIG1       -0.0367
      8 H           2.8097    0.5653    1.4949 H       1  LIG1        0.0278
      9 H           3.5133    0.7153   -0.1215 H       1  LIG1        0.0278
     10 H           2.1071   -0.3293    0.1379 H       1  LIG1        0.0278
     11 H           2.7905    3.5958    0.8426 H       1  LIG1        0.0659
     12 C           0.4662    5.2478   -0.0769 C.ar    1  LIG1        0.1736
     13 C           1.2297    6.3774   -0.0877 C.ar    1  LIG1       -0.0009
     14 C           0.2939    7.4674   -0.1153 C.ar    1  LIG1       -0.0091
     15 C          -0.9452    6.9059   -0.1297 C.ar    1  LIG1        0.1713
     16 O          -0.8506    5.5617   -0.1010 O.2     1  LIG1       -0.4484
     17 C           2.7341    6.4645   -0.0944 C.3     1  LIG1       -0.0360
     18 H           3.0483    7.3746   -0.6042 H       1  LIG1        0.0279
     19 H           3.1559    5.6049   -0.6161 H       1  LIG1        0.0279
     20 H           3.1276    6.4860    0.9237 H       1  LIG1        0.0279
     21 H           0.5129    8.5217   -0.1393 H       1  LIG1        0.0659
     22 C          -2.2734    7.4915   -0.1797 C.ar    1  LIG1        0.1736
     23 C          -3.5288    6.9708   -0.2933 C.ar    1  LIG1       -0.0009
     24 C          -4.4023    8.1138   -0.3115 C.ar    1  LIG1       -0.0091
     25 C          -3.6086    9.2140   -0.1986 C.ar    1  LIG1        0.1712
     26 O          -2.3137    8.8425   -0.1159 O.2     1  LIG1       -0.4484
     27 C          -3.9465    5.5248   -0.3946 C.3     1  LIG1       -0.0360
     28 H          -3.0805    4.8822   -0.5331 H       1  LIG1        0.0279
     29 H          -4.6267    5.3997   -1.2379 H       1  LIG1        0.0279
     30 H          -4.4679    5.2248    0.5159 H       1  LIG1        0.0279
     31 H          -5.4734    8.1046   -0.4291 H       1  LIG1        0.0659
     32 C          -3.9044   10.6382   -0.1388 C.ar    1  LIG1        0.1726
     33 C          -5.0104   11.3163    0.2770 C.ar    1  LIG1       -0.0017
     34 C          -4.6966   12.7067    0.0686 C.ar    1  LIG1       -0.0203
     35 C          -3.4408   12.7418   -0.4391 C.ar    1  LIG1        0.0930
     36 O          -2.9516   11.4943   -0.5710 O.2     1  LIG1       -0.4596
     37 H          -2.7893   13.5430   -0.7400 H       1  LIG1        0.1029
     38 C          -6.2767   10.7402    0.8555 C.3     1  LIG1       -0.0360
     39 H          -6.0617    9.7979    1.3605 H       1  LIG1        0.0279
     40 H          -7.0169   10.5586    0.0738 H       1  LIG1        0.0279
     41 H          -6.7032   11.4365    1.5773 H       1  LIG1        0.0279
     42 H          -5.3303   13.5502    0.2866 H       1  LIG1        0.0652
@<TRIPOS>BOND
     1    29    27    1
     2     6     1    1
     3    37    35    1
     4    19    17    1
     5    18    17    1
     6    36    35   ar
     7    36    32   ar
     8    28    27    1
     9     5     1   ar
    10     5     4   ar
    11    35    34   ar
    12    31    24    1
    13     1     2   ar
    14    27    23    1
    15    27    30    1
    16    24    23   ar
    17    24    25   ar
    18    23    22   ar
    19    25    32    1
    20    25    26   ar
    21    22    15    1
    22    22    26   ar
    23    21    14    1
    24    32    33   ar
    25    15    14   ar
    26    15    16   ar
    27     9     7    1
    28    14    13   ar
    29    16    12   ar
    30    17    13    1
    31    17    20    1
    32    13    12   ar
    33    12     4    1
    34     4     3   ar
    35    34    33   ar
    36    34    42    1
    37    40    38    1
    38     2     3   ar
    39     2     7    1
    40    10     7    1
    41    33    38    1
    42     3    11    1
    43     7     8    1
    44    38    39    1
    45    38    41    1
