@<TRIPOS>MOLECULE
mol_data/opt/m06hf/geoms/mol2/12ia13fl6le12ih.out
 52 55 0 0 0
SMALL
GASTEIGER

@<TRIPOS>ATOM
      1 C           0.6066    1.6411   -0.1611 C.ar    1  LIG1        0.0955
      2 C           1.8099    1.6974    0.4562 C.ar    1  LIG1       -0.0121
      3 C           2.0339    3.0973    0.7301 C.ar    1  LIG1       -0.0114
      4 C           0.9487    3.7578    0.2402 C.ar    1  LIG1        0.1548
      5 O           0.0769    2.8807   -0.3044 O.2     1  LIG1       -0.4611
      6 H           0.0208    0.8225   -0.5410 H       1  LIG1        0.1032
      7 C           2.7176    0.5455    0.8040 C.3     1  LIG1       -0.0367
      8 H           2.8999    0.5183    1.8787 H       1  LIG1        0.0278
      9 H           3.6762    0.6495    0.2944 H       1  LIG1        0.0278
     10 H           2.2636   -0.3980    0.5031 H       1  LIG1        0.0278
     11 H           2.8590    3.5367    1.2673 H       1  LIG1        0.0658
     12 C           0.6079    5.1670    0.1801 C.ar    1  LIG1        0.1283
     13 C           1.4576    6.2567    0.1848 C.ar    1  LIG1        0.1881
     14 C           0.6528    7.4139    0.0916 C.ar    1  LIG1        0.1876
     15 C          -0.6725    6.9974    0.0183 C.ar    1  LIG1        0.0981
     16 N          -0.6659    5.6349    0.0765 N.ar    1  LIG1       -0.3457
     17 H          -1.5057    5.0757    0.0238 H       1  LIG1        0.1662
     18 O           2.8224    6.2480    0.2425 O.3     1  LIG1       -0.5018
     19 H           3.1429    5.4410   -0.1801 H       1  LIG1        0.2924
     20 O           1.0954    8.7041    0.0781 O.3     1  LIG1       -0.4895
     21 C           1.8386    9.0270   -1.0984 C.3     1  LIG1        0.0791
     22 H           2.1417   10.0659   -0.9927 H       1  LIG1        0.0660
     23 H           2.7157    8.3833   -1.1700 H       1  LIG1        0.0660
     24 H           1.2055    8.9040   -1.9804 H       1  LIG1        0.0660
     25 C          -3.1840    7.2469   -0.2558 C.ar    1  LIG1        0.2247
     26 C          -1.8903    7.8067   -0.1001 C.ar    1  LIG1        0.0647
     27 C          -1.8380    9.1917   -0.0849 C.ar    1  LIG1       -0.0298
     28 C          -3.0060    9.9582   -0.2241 C.ar    1  LIG1        0.0545
     29 C          -4.2253    9.2880   -0.3387 C.ar    1  LIG1        0.1254
     30 N          -4.2830    7.9507   -0.3601 N.ar    1  LIG1       -0.2080
     31 H          -0.8814    9.6841    0.0268 H       1  LIG1        0.0639
     32 O          -3.2921    5.9013   -0.2864 O.3     1  LIG1       -0.4792
     33 C          -4.6111    5.3632   -0.4167 C.3     1  LIG1        0.0804
     34 H          -4.4776    4.2851   -0.4231 H       1  LIG1        0.0660
     35 H          -5.2247    5.6794    0.4250 H       1  LIG1        0.0660
     36 H          -5.0633    5.7096   -1.3443 H       1  LIG1        0.0660
     37 C          -2.8975   11.3927   -0.3096 C.1     1  LIG1       -0.0674
     38 C          -2.7502   12.5826   -0.3975 C.1     1  LIG1       -0.1138
     39 H          -2.6223   13.6368   -0.4831 H       1  LIG1        0.1232
     40 C          -5.5163    9.9908   -0.4498 C.ar    1  LIG1        0.1589
     41 C          -6.0609   11.0340    0.2347 C.ar    1  LIG1        0.0175
     42 C          -7.3819   11.1991   -0.3234 C.ar    1  LIG1        0.0664
     43 C          -7.5166   10.2436   -1.2774 C.ar    1  LIG1        0.1135
     44 O          -6.3924    9.4958   -1.3494 O.2     1  LIG1       -0.4592
     45 H          -8.3198    9.9797   -1.9422 H       1  LIG1        0.1049
     46 C          -5.5254   11.8186    1.4007 C.3     1  LIG1       -0.0343
     47 H          -6.3233   11.9331    2.1365 H       1  LIG1        0.0279
     48 H          -5.1869   12.8072    1.0836 H       1  LIG1        0.0279
     49 H          -4.6804   11.3036    1.8554 H       1  LIG1        0.0279
     50 N          -8.3187   12.1352    0.1552 N.pl3   1  LIG1       -0.3553
     51 H          -7.9483   13.0791    0.1510 H       1  LIG1        0.1424
     52 H          -9.1931   12.1095   -0.3548 H       1  LIG1        0.1424
@<TRIPOS>BOND
     1    24    21    1
     2    45    43    1
     3    44    43   ar
     4    44    40   ar
     5    36    33    1
     6    43    42   ar
     7    23    21    1
     8    21    22    1
     9    21    20    1
    10     6     1    1
    11    39    38    1
    12    40    29    1
    13    40    41   ar
    14    34    33    1
    15    33    32    1
    16    33    35    1
    17    38    37    3
    18    30    29   ar
    19    30    25   ar
    20    52    50    1
    21    29    28   ar
    22    42    50    1
    23    42    41   ar
    24    37    28    1
    25     5     1   ar
    26     5     4   ar
    27    32    25    1
    28    25    26   ar
    29    28    27   ar
    30    19    18    1
    31     1     2   ar
    32    26    27   ar
    33    26    15    1
    34    27    31    1
    35    15    16   ar
    36    15    14   ar
    37    17    16    1
    38    16    12   ar
    39    20    14    1
    40    14    13   ar
    41    51    50    1
    42    12    13   ar
    43    12     4    1
    44    13    18    1
    45    41    46    1
    46     4     3   ar
    47     9     7    1
    48     2     3   ar
    49     2     7    1
    50    10     7    1
    51     3    11    1
    52     7     8    1
    53    48    46    1
    54    46    49    1
    55    46    47    1
