@<TRIPOS>MOLECULE
mol_data/opt/m06hf/geoms/mol2/12ia12ia12ia12ia.out
 42 45 0 0 0
SMALL
GASTEIGER

@<TRIPOS>ATOM
      1 C           0.8517    1.8746    1.1865 C.ar    1  LIG1        0.0956
      2 C           1.9733    1.8419    0.4252 C.ar    1  LIG1       -0.0120
      3 C           2.0417    3.1393   -0.1983 C.ar    1  LIG1       -0.0099
      4 C           0.9623    3.8347    0.2517 C.ar    1  LIG1        0.1702
      5 O           0.2363    3.0717    1.0941 O.2     1  LIG1       -0.4596
      6 H           0.3827    1.1436    1.8222 H       1  LIG1        0.1032
      7 C           2.9348    0.6941    0.2528 C.3     1  LIG1       -0.0367
      8 H           3.9295    0.9753    0.6005 H       1  LIG1        0.0278
      9 H           3.0038    0.4102   -0.7978 H       1  LIG1        0.0278
     10 H           2.5983   -0.1703    0.8246 H       1  LIG1        0.0278
     11 H           2.7760    3.4849   -0.9071 H       1  LIG1        0.0659
     12 C           0.5013    5.1937    0.0038 C.ar    1  LIG1        0.1736
     13 C           1.1781    6.3329   -0.3189 C.ar    1  LIG1       -0.0009
     14 C           0.1659    7.3411   -0.4648 C.ar    1  LIG1       -0.0091
     15 C          -1.0243    6.7325   -0.1994 C.ar    1  LIG1        0.1713
     16 O          -0.8267    5.4294    0.0812 O.2     1  LIG1       -0.4484
     17 C           2.6667    6.4999   -0.4819 C.3     1  LIG1       -0.0360
     18 H           2.9624    7.5029   -0.1757 H       1  LIG1        0.0279
     19 H           2.9632    6.3553   -1.5227 H       1  LIG1        0.0279
     20 H           3.1936    5.7725    0.1366 H       1  LIG1        0.0279
     21 H           0.3118    8.3705   -0.7469 H       1  LIG1        0.0659
     22 C          -2.3882    7.2373   -0.1516 C.ar    1  LIG1        0.1736
     23 C          -2.8790    8.4888    0.0796 C.ar    1  LIG1       -0.0009
     24 C          -4.3039    8.3597   -0.0416 C.ar    1  LIG1       -0.0091
     25 C          -4.5504    7.0474   -0.3117 C.ar    1  LIG1        0.1712
     26 O          -3.3917    6.3628   -0.3829 O.2     1  LIG1       -0.4484
     27 C          -2.0996    9.7383    0.3985 C.3     1  LIG1       -0.0360
     28 H          -2.7011   10.3994    1.0216 H       1  LIG1        0.0279
     29 H          -1.8322   10.2739   -0.5144 H       1  LIG1        0.0279
     30 H          -1.1860    9.4828    0.9361 H       1  LIG1        0.0279
     31 H          -5.0353    9.1459    0.0472 H       1  LIG1        0.0659
     32 C          -5.7893    6.3044   -0.4965 C.ar    1  LIG1        0.1726
     33 C          -7.0565    6.5373   -0.0522 C.ar    1  LIG1       -0.0017
     34 C          -7.8424    5.4540   -0.5834 C.ar    1  LIG1       -0.0203
     35 C          -6.9873    4.6703   -1.2827 C.ar    1  LIG1        0.0930
     36 O          -5.7414    5.1769   -1.2394 O.2     1  LIG1       -0.4596
     37 H          -7.1109    3.7562   -1.8360 H       1  LIG1        0.1029
     38 C          -7.5301    7.6658    0.8270 C.3     1  LIG1       -0.0360
     39 H          -8.3808    7.3370    1.4231 H       1  LIG1        0.0279
     40 H          -7.8407    8.5244    0.2283 H       1  LIG1        0.0279
     41 H          -6.7302    7.9779    1.4994 H       1  LIG1        0.0279
     42 H          -8.8979    5.2937   -0.4402 H       1  LIG1        0.0652
@<TRIPOS>BOND
     1    37    35    1
     2    19    17    1
     3    35    36   ar
     4    35    34   ar
     5    36    32   ar
     6    11     3    1
     7     9     7    1
     8    21    14    1
     9    34    42    1
    10    34    33   ar
    11    29    27    1
    12    32    25    1
    13    32    33   ar
    14    17    13    1
    15    17    18    1
    16    17    20    1
    17    14    13   ar
    18    14    15   ar
    19    26    25   ar
    20    26    22   ar
    21    13    12   ar
    22    25    24   ar
    23    15    22    1
    24    15    16   ar
    25     3     4   ar
    26     3     2   ar
    27    22    23   ar
    28    33    38    1
    29    24    31    1
    30    24    23   ar
    31    12    16   ar
    32    12     4    1
    33    23    27    1
    34    40    38    1
    35     4     5   ar
    36     7     2    1
    37     7     8    1
    38     7    10    1
    39    27    30    1
    40    27    28    1
    41     2     1   ar
    42    38    39    1
    43    38    41    1
    44     5     1   ar
    45     1     6    1
