@<TRIPOS>MOLECULE
mol_data/opt/m06hf/geoms/mol2/12ia12ia-12ia12ia-.out
 42 45 0 0 0
SMALL
GASTEIGER

@<TRIPOS>ATOM
      1 C           0.2192    1.7725    0.0281 C.ar    1  LIG1        0.0956
      2 C           1.5726    1.7990   -0.0240 C.ar    1  LIG1       -0.0120
      3 C           1.9265    3.1968   -0.0420 C.ar    1  LIG1       -0.0099
      4 C           0.7542    3.8830    0.0013 C.ar    1  LIG1        0.1702
      5 O          -0.2889    3.0276    0.0443 O.2     1  LIG1       -0.4596
      6 H          -0.4932    0.9666    0.0584 H       1  LIG1        0.1032
      7 C           2.5123    0.6212   -0.0554 C.3     1  LIG1       -0.0367
      8 H           3.1823    0.6480    0.8047 H       1  LIG1        0.0278
      9 H           3.1153    0.6414   -0.9639 H       1  LIG1        0.0278
     10 H           1.9502   -0.3118   -0.0305 H       1  LIG1        0.0278
     11 H           2.9137    3.6260   -0.0840 H       1  LIG1        0.0659
     12 C           0.4737    5.3097    0.0088 C.ar    1  LIG1        0.1736
     13 C          -0.6658    6.0588    0.0129 C.ar    1  LIG1       -0.0009
     14 C          -0.2183    7.4261    0.0158 C.ar    1  LIG1       -0.0091
     15 C           1.1407    7.3869    0.0128 C.ar    1  LIG1        0.1713
     16 O           1.5712    6.1069    0.0076 O.2     1  LIG1       -0.4484
     17 C          -2.0999    5.5936    0.0182 C.3     1  LIG1       -0.0360
     18 H          -2.1512    4.5121   -0.0772 H       1  LIG1        0.0279
     19 H          -2.6384    6.0534   -0.8114 H       1  LIG1        0.0279
     20 H          -2.5824    5.8925    0.9499 H       1  LIG1        0.0279
     21 H          -0.8296    8.3133    0.0178 H       1  LIG1        0.0659
     22 C           2.1526    8.4234    0.0154 C.ar    1  LIG1        0.1736
     23 C           3.5158    8.3879    0.0511 C.ar    1  LIG1       -0.0009
     24 C           3.9260    9.7646    0.0337 C.ar    1  LIG1       -0.0091
     25 C           2.7869   10.5074   -0.0080 C.ar    1  LIG1        0.1712
     26 O           1.7040    9.7005   -0.0208 O.2     1  LIG1       -0.4484
     27 C           4.4053    7.1694    0.0938 C.3     1  LIG1       -0.0360
     28 H           5.4277    7.4726    0.3141 H       1  LIG1        0.0279
     29 H           4.3895    6.6519   -0.8665 H       1  LIG1        0.0279
     30 H           4.0642    6.4761    0.8621 H       1  LIG1        0.0279
     31 H           4.9328   10.1461    0.0551 H       1  LIG1        0.0659
     32 C           2.5432   11.9375   -0.0371 C.ar    1  LIG1        0.1726
     33 C           1.3985   12.6774   -0.0258 C.ar    1  LIG1       -0.0017
     34 C           1.8456   14.0463   -0.0679 C.ar    1  LIG1       -0.0203
     35 C           3.1991   14.0108   -0.0979 C.ar    1  LIG1        0.0930
     36 O           3.6341   12.7343   -0.0794 O.2     1  LIG1       -0.4596
     37 H           3.9571   14.7732   -0.1311 H       1  LIG1        0.1029
     38 C          -0.0261   12.1800    0.0144 C.3     1  LIG1       -0.0360
     39 H          -0.1357   11.3974    0.7645 H       1  LIG1        0.0279
     40 H          -0.3157   11.7687   -0.9538 H       1  LIG1        0.0279
     41 H          -0.6936   13.0052    0.2590 H       1  LIG1        0.0279
     42 H           1.2225   14.9251   -0.0714 H       1  LIG1        0.0652
@<TRIPOS>BOND
     1     9     7    1
     2    40    38    1
     3    29    27    1
     4    19    17    1
     5    37    35    1
     6    35    36   ar
     7    35    34   ar
     8    11     3    1
     9    36    32   ar
    10    18    17    1
    11    42    34    1
    12    34    33   ar
    13     7    10    1
    14     7     2    1
    15     7     8    1
    16     3     2   ar
    17     3     4   ar
    18    32    33   ar
    19    32    25    1
    20    33    38    1
    21     2     1   ar
    22    26    25   ar
    23    26    22   ar
    24    25    24   ar
    25     4    12    1
    26     4     5   ar
    27    16    12   ar
    28    16    15   ar
    29    12    13   ar
    30    15    22    1
    31    15    14   ar
    32    13    14   ar
    33    13    17    1
    34    38    41    1
    35    38    39    1
    36    22    23   ar
    37    14    21    1
    38    17    20    1
    39     1     5   ar
    40     1     6    1
    41    24    23   ar
    42    24    31    1
    43    23    27    1
    44    27    28    1
    45    27    30    1
