@<TRIPOS>MOLECULE
mol_data/opt/m06hf/geoms/mol2/12ia13di-6el4li-.out
 50 53 0 0 0
SMALL
GASTEIGER

@<TRIPOS>ATOM
      1 C           0.8016    1.6126   -0.4136 C.ar    1  LIG1        0.0956
      2 C           1.9988    1.8068    0.1923 C.ar    1  LIG1       -0.0120
      3 C           2.0855    3.2287    0.4140 C.ar    1  LIG1       -0.0098
      4 C           0.9345    3.7577   -0.0850 C.ar    1  LIG1        0.1719
      5 O           0.1511    2.7847   -0.5916 O.2     1  LIG1       -0.4595
      6 H           0.2968    0.7282   -0.7613 H       1  LIG1        0.1032
      7 C           3.0185    0.7628    0.5685 C.3     1  LIG1       -0.0367
      8 H           3.2103    0.7896    1.6418 H       1  LIG1        0.0278
      9 H           3.9588    0.9437    0.0463 H       1  LIG1        0.0278
     10 H           2.6588   -0.2308    0.3032 H       1  LIG1        0.0278
     11 H           2.8716    3.7752    0.9098 H       1  LIG1        0.0659
     12 C           0.4835    5.1329   -0.1733 C.ar    1  LIG1        0.1948
     13 C           1.2093    6.2842   -0.1479 C.ar    1  LIG1        0.1169
     14 C           0.2475    7.3469   -0.2485 C.ar    1  LIG1        0.1846
     15 C          -0.9827    6.7553   -0.3541 C.ar    1  LIG1        0.1807
     16 O          -0.8388    5.4036   -0.3062 O.2     1  LIG1       -0.4460
     17 N           2.5864    6.4646   -0.0079 N.pl3   1  LIG1       -0.3521
     18 H           3.1269    5.7988   -0.5496 H       1  LIG1        0.1425
     19 H           2.8510    7.4199   -0.2190 H       1  LIG1        0.1425
     20 O           0.6058    8.6441   -0.2148 O.3     1  LIG1       -0.5020
     21 H          -0.1393    9.1687   -0.6052 H       1  LIG1        0.2924
     22 C          -2.6174    8.5504   -0.9510 C.ar    1  LIG1        0.0361
     23 C          -3.8908    9.0999   -0.8645 C.ar    1  LIG1       -0.0313
     24 C          -2.3416    7.2976   -0.3777 C.ar    1  LIG1        0.0428
     25 C          -4.9390    8.4137   -0.2542 C.ar    1  LIG1        0.0049
     26 H          -4.0863   10.0772   -1.2874 H       1  LIG1        0.0643
     27 C          -3.3902    6.5857    0.2002 C.ar    1  LIG1       -0.0312
     28 C          -4.6696    7.1351    0.2606 C.ar    1  LIG1        0.0604
     29 H          -3.1967    5.6119    0.6296 H       1  LIG1        0.0638
     30 N          -1.5656    9.2420   -1.6158 N.pl3   1  LIG1       -0.3574
     31 H          -1.1536    8.6559   -2.3425 H       1  LIG1        0.1423
     32 H          -1.8781   10.1183   -2.0199 H       1  LIG1        0.1423
     33 N          -6.5126    5.7100    1.4108 N.1     1  LIG1       -0.1908
     34 C          -5.7073    6.3557    0.9086 C.1     1  LIG1        0.0998
     35 C          -6.4769   10.3400    0.2435 C.ar    1  LIG1        0.1280
     36 C          -7.7597   10.8837    0.2940 C.ar    1  LIG1       -0.0159
     37 C          -6.3013    9.0190   -0.2003 C.ar    1  LIG1        0.0285
     38 C          -8.8622   10.1266   -0.0876 C.ar    1  LIG1       -0.0167
     39 H          -7.9137   11.8967    0.6374 H       1  LIG1        0.0655
     40 C          -7.4134    8.2774   -0.5947 C.ar    1  LIG1       -0.0089
     41 C          -8.6930    8.8210   -0.5302 C.ar    1  LIG1        0.1177
     42 H          -7.2753    7.2645   -0.9555 H       1  LIG1        0.0661
     43 H          -9.8622   10.5359   -0.0447 H       1  LIG1        0.0655
     44 O          -5.3568   11.0245    0.6091 O.3     1  LIG1       -0.4945
     45 C          -5.5237   12.2765    1.2471 C.3     1  LIG1        0.0788
     46 H          -4.5269   12.5948    1.5399 H       1  LIG1        0.0660
     47 H          -5.9578   13.0091    0.5619 H       1  LIG1        0.0660
     48 H          -6.1551   12.1743    2.1327 H       1  LIG1        0.0660
     49 O          -9.8060    8.1272   -0.9013 O.3     1  LIG1       -0.5067
     50 H          -9.5925    7.2006   -1.0542 H       1  LIG1        0.2921
@<TRIPOS>BOND
     1    31    30    1
     2    32    30    1
     3    30    22    1
     4    26    23    1
     5    50    49    1
     6    42    40    1
     7    22    23   ar
     8    22    24   ar
     9    49    41    1
    10    23    25   ar
    11     6     1    1
    12    21    20    1
    13    40    41   ar
    14    40    37   ar
    15     5     1   ar
    16     5     4   ar
    17    18    17    1
    18    41    38   ar
    19     1     2   ar
    20    24    15    1
    21    24    27   ar
    22    15    16   ar
    23    15    14   ar
    24    16    12   ar
    25    25    37    1
    26    25    28   ar
    27    14    20    1
    28    14    13   ar
    29    19    17    1
    30    37    35   ar
    31    12    13   ar
    32    12     4    1
    33    13    17    1
    34    38    43    1
    35    38    36   ar
    36     4     3   ar
    37     9     7    1
    38     2     3   ar
    39     2     7    1
    40    27    28   ar
    41    27    29    1
    42    35    36   ar
    43    35    44    1
    44    28    34    1
    45    36    39    1
    46    10     7    1
    47     3    11    1
    48    47    45    1
    49     7     8    1
    50    44    45    1
    51    34    33    3
    52    45    46    1
    53    45    48    1
