@<TRIPOS>MOLECULE
mol_data/opt/m06hf/geoms/mol2/12ia12hf4hd4lf.out
 61 64 0 0 0
SMALL
GASTEIGER

@<TRIPOS>ATOM
      1 C           0.1871    1.6053   -0.0590 C.ar    1  LIG1        0.1170
      2 C           1.5400    1.5655   -0.0289 C.ar    1  LIG1        0.1059
      3 C           1.9689    2.9322   -0.1931 C.ar    1  LIG1        0.1879
      4 C           0.8487    3.6955   -0.3084 C.ar    1  LIG1        0.1959
      5 O          -0.2371    2.8949   -0.2281 O.2     1  LIG1       -0.4557
      6 H          -0.5762    0.8548    0.0292 H       1  LIG1        0.1050
      7 N           2.4402    0.5151    0.1842 N.pl3   1  LIG1       -0.3527
      8 H           2.0876   -0.3901   -0.0973 H       1  LIG1        0.1425
      9 H           3.3315    0.7095   -0.2578 H       1  LIG1        0.1425
     10 O           3.2800    3.3218   -0.2098 O.3     1  LIG1       -0.4896
     11 C           3.7569    3.7097    1.0873 C.3     1  LIG1        0.0791
     12 H           4.8148    3.9321    0.9676 H       1  LIG1        0.0660
     13 H           3.2215    4.5993    1.4198 H       1  LIG1        0.0660
     14 H           3.6133    2.8859    1.7882 H       1  LIG1        0.0660
     15 C           0.6149    5.1172   -0.4718 C.ar    1  LIG1        0.1074
     16 C           1.4677    6.1632   -0.7765 C.ar    1  LIG1        0.0569
     17 C           0.6881    7.3571   -0.7959 C.ar    1  LIG1       -0.0038
     18 C          -0.6183    6.9888   -0.5144 C.ar    1  LIG1        0.0535
     19 N          -0.6429    5.6436   -0.3073 N.ar    1  LIG1       -0.3499
     20 H          -1.4734    5.0937   -0.1531 H       1  LIG1        0.1661
     21 N           2.8589    6.1170   -0.9605 N.pl3   1  LIG1       -0.3560
     22 H           3.2088    5.1743   -1.1001 H       1  LIG1        0.1424
     23 H           3.1678    6.7375   -1.6986 H       1  LIG1        0.1424
     24 C           1.2390    8.7498   -0.9726 C.3     1  LIG1       -0.0359
     25 H           0.4991    9.4867   -0.6629 H       1  LIG1        0.0279
     26 H           1.5007    8.9566   -2.0141 H       1  LIG1        0.0279
     27 H           2.1375    8.8598   -0.3619 H       1  LIG1        0.0279
     28 C          -2.2325    8.6902   -1.3984 C.ar    1  LIG1        0.0344
     29 C          -3.4240    9.4069   -1.2364 C.ar    1  LIG1       -0.0323
     30 C          -1.8493    7.7967   -0.3847 C.ar    1  LIG1        0.0195
     31 C          -4.2280    9.2370   -0.1153 C.ar    1  LIG1       -0.0096
     32 H          -3.7279   10.1134   -2.0003 H       1  LIG1        0.0642
     33 C          -2.6746    7.6353    0.7328 C.ar    1  LIG1       -0.0474
     34 C          -3.8664    8.3305    0.8945 C.ar    1  LIG1       -0.0419
     35 H          -2.3559    6.9422    1.5044 H       1  LIG1        0.0627
     36 N          -1.4405    8.8804   -2.5290 N.pl3   1  LIG1       -0.3574
     37 H          -0.8053    8.1135   -2.7170 H       1  LIG1        0.1423
     38 H          -1.9421    9.1932   -3.3480 H       1  LIG1        0.1423
     39 C          -4.7387    8.1098    2.1153 C.3     1  LIG1       -0.0391
     40 H          -4.4236    7.2099    2.6435 H       1  LIG1        0.0278
     41 H          -5.7839    7.9993    1.8213 H       1  LIG1        0.0278
     42 H          -4.6608    8.9657    2.7879 H       1  LIG1        0.0278
     43 C          -5.7093   10.9763    0.9669 C.ar    1  LIG1        0.1280
     44 C          -6.9116   11.6651    1.0274 C.ar    1  LIG1       -0.0159
     45 C          -5.5107   10.0049   -0.0349 C.ar    1  LIG1        0.0275
     46 C          -7.9271   11.4136    0.0954 C.ar    1  LIG1       -0.0165
     47 H          -7.0835   12.4111    1.7901 H       1  LIG1        0.0655
     48 C          -6.5170    9.7711   -0.9557 C.ar    1  LIG1       -0.0087
     49 C          -7.7297   10.4702   -0.9015 C.ar    1  LIG1        0.1209
     50 H          -6.3841    9.0262   -1.7296 H       1  LIG1        0.0661
     51 H          -8.8531   11.9655    0.1721 H       1  LIG1        0.0655
     52 O          -4.6711   11.1774    1.8233 O.3     1  LIG1       -0.4945
     53 C          -4.8355   12.1343    2.8488 C.3     1  LIG1        0.0788
     54 H          -3.9011   12.1391    3.4037 H       1  LIG1        0.0660
     55 H          -5.0199   13.1265    2.4280 H       1  LIG1        0.0660
     56 H          -5.6592   11.8539    3.5120 H       1  LIG1        0.0660
     57 O          -8.6444   10.1500   -1.8587 O.3     1  LIG1       -0.4951
     58 C          -9.8944   10.8050   -1.8107 C.3     1  LIG1        0.0788
     59 H         -10.4736   10.4094   -2.6408 H       1  LIG1        0.0660
     60 H         -10.4072   10.5928   -0.8685 H       1  LIG1        0.0660
     61 H          -9.7717   11.8850   -1.9295 H       1  LIG1        0.0660
@<TRIPOS>BOND
     1    38    36    1
     2    37    36    1
     3    59    58    1
     4    36    28    1
     5    26    24    1
     6    32    29    1
     7    61    58    1
     8    57    58    1
     9    57    49    1
    10    58    60    1
    11    50    48    1
    12    23    21    1
    13    28    29   ar
    14    28    30   ar
    15    29    31   ar
    16    22    21    1
    17    24    17    1
    18    24    25    1
    19    24    27    1
    20    21    16    1
    21    48    49   ar
    22    48    45   ar
    23    49    46   ar
    24    17    16   ar
    25    17    18   ar
    26    16    15   ar
    27    18    30    1
    28    18    19   ar
    29    15     4    1
    30    15    19   ar
    31    30    33   ar
    32     4     5   ar
    33     4     3   ar
    34    19    20    1
    35     9     7    1
    36     5     1   ar
    37    10     3    1
    38    10    11    1
    39     3     2   ar
    40    31    45    1
    41    31    34   ar
    42     8     7    1
    43     1     2   ar
    44     1     6    1
    45    45    43   ar
    46     2     7    1
    47    46    51    1
    48    46    44   ar
    49    33    34   ar
    50    33    35    1
    51    34    39    1
    52    43    44   ar
    53    43    52    1
    54    12    11    1
    55    44    47    1
    56    11    13    1
    57    11    14    1
    58    41    39    1
    59    52    53    1
    60    39    40    1
    61    39    42    1
    62    55    53    1
    63    53    54    1
    64    53    56    1
