@<TRIPOS>MOLECULE
mol_data/opt/m06hf/geoms/mol2/12ia12ia-12ia-12ia-.out
 42 45 0 0 0
SMALL
GASTEIGER

@<TRIPOS>ATOM
      1 C          -0.0832    1.7448    0.1081 C.ar    1  LIG1        0.0956
      2 C           1.2418    1.6593   -0.1605 C.ar    1  LIG1       -0.0120
      3 C           1.7122    3.0218   -0.2002 C.ar    1  LIG1       -0.0099
      4 C           0.6281    3.8017    0.0487 C.ar    1  LIG1        0.1702
      5 O          -0.4683    3.0366    0.2371 O.2     1  LIG1       -0.4596
      6 H          -0.8526    1.0028    0.2344 H       1  LIG1        0.1032
      7 C           2.0563    0.4090   -0.3720 C.3     1  LIG1       -0.0367
      8 H           2.8590    0.3517    0.3640 H       1  LIG1        0.0278
      9 H           2.5009    0.4104   -1.3676 H       1  LIG1        0.0278
     10 H           1.4274   -0.4753   -0.2714 H       1  LIG1        0.0278
     11 H           2.7140    3.3710   -0.3858 H       1  LIG1        0.0659
     12 C           0.4804    5.2461    0.1386 C.ar    1  LIG1        0.1736
     13 C          -0.5641    6.0761    0.4219 C.ar    1  LIG1       -0.0009
     14 C          -0.0114    7.4026    0.3609 C.ar    1  LIG1       -0.0091
     15 C           1.3039    7.2620    0.0406 C.ar    1  LIG1        0.1713
     16 O           1.6086    5.9548   -0.0967 O.2     1  LIG1       -0.4484
     17 C          -1.9930    5.7198    0.7467 C.3     1  LIG1       -0.0360
     18 H          -2.1037    4.6432    0.8474 H       1  LIG1        0.0279
     19 H          -2.6547    6.0722   -0.0462 H       1  LIG1        0.0279
     20 H          -2.2885    6.1997    1.6804 H       1  LIG1        0.0279
     21 H          -0.5272    8.3262    0.5650 H       1  LIG1        0.0659
     22 C           2.3673    8.2300   -0.1788 C.ar    1  LIG1        0.1736
     23 C           2.3310    9.5398   -0.5592 C.ar    1  LIG1       -0.0009
     24 C           3.7047    9.9570   -0.5904 C.ar    1  LIG1       -0.0091
     25 C           4.4459    8.8735   -0.2282 C.ar    1  LIG1        0.1712
     26 O           3.6395    7.8229    0.0249 O.2     1  LIG1       -0.4484
     27 C           1.1182   10.3611   -0.9119 C.3     1  LIG1       -0.0360
     28 H           0.7156   10.8613   -0.0288 H       1  LIG1        0.0279
     29 H           0.3438    9.7216   -1.3366 H       1  LIG1        0.0279
     30 H           1.3876   11.1209   -1.6450 H       1  LIG1        0.0279
     31 H           4.0836   10.9214   -0.8852 H       1  LIG1        0.0659
     32 C           5.8810    8.6853   -0.0617 C.ar    1  LIG1        0.1726
     33 C           6.8663    9.5506    0.3081 C.ar    1  LIG1       -0.0017
     34 C           8.0788    8.7740    0.2701 C.ar    1  LIG1       -0.0203
     35 C           7.7179    7.5234   -0.1059 C.ar    1  LIG1        0.0930
     36 O           6.3895    7.4585   -0.3134 O.2     1  LIG1       -0.4596
     37 H           8.2686    6.6126   -0.2604 H       1  LIG1        0.1029
     38 C           6.7181   10.9983    0.6988 C.3     1  LIG1       -0.0360
     39 H           5.7170   11.1790    1.0916 H       1  LIG1        0.0279
     40 H           6.8811   11.6529   -0.1596 H       1  LIG1        0.0279
     41 H           7.4483   11.2507    1.4673 H       1  LIG1        0.0279
     42 H           9.0717    9.1169    0.5072 H       1  LIG1        0.0652
@<TRIPOS>BOND
     1    30    27    1
     2     9     7    1
     3    29    27    1
     4    27    23    1
     5    27    28    1
     6    31    24    1
     7    24    23   ar
     8    24    25   ar
     9    23    22   ar
    10    11     3    1
    11     7    10    1
    12     7     2    1
    13     7     8    1
    14    36    35   ar
    15    36    32   ar
    16    37    35    1
    17    25    32    1
    18    25    26   ar
    19     3     2   ar
    20     3     4   ar
    21    22    26   ar
    22    22    15    1
    23     2     1   ar
    24    40    38    1
    25    35    34   ar
    26    16    15   ar
    27    16    12   ar
    28    32    33   ar
    29    19    17    1
    30    15    14   ar
    31     4    12    1
    32     4     5   ar
    33     1     6    1
    34     1     5   ar
    35    12    13   ar
    36    34    33   ar
    37    34    42    1
    38    33    38    1
    39    14    13   ar
    40    14    21    1
    41    13    17    1
    42    38    39    1
    43    38    41    1
    44    17    18    1
    45    17    20    1
