@<TRIPOS>MOLECULE
mol_data/opt/m06hf/geoms/mol2/12ia12ia-12ia12ia.out
 42 45 0 0 0
SMALL
GASTEIGER

@<TRIPOS>ATOM
      1 C           0.2974    1.7574   -0.2075 C.ar    1  LIG1        0.0956
      2 C           1.6355    1.8247   -0.0068 C.ar    1  LIG1       -0.0120
      3 C           1.9368    3.2315    0.0872 C.ar    1  LIG1       -0.0099
      4 C           0.7531    3.8817   -0.0667 C.ar    1  LIG1        0.1702
      5 O          -0.2489    2.9960   -0.2480 O.2     1  LIG1       -0.4596
      6 H          -0.3795    0.9314   -0.3379 H       1  LIG1        0.1032
      7 C           2.6062    0.6762    0.0962 C.3     1  LIG1       -0.0367
      8 H           3.0894    0.6739    1.0738 H       1  LIG1        0.0278
      9 H           3.3775    0.7635   -0.6697 H       1  LIG1        0.0278
     10 H           2.0866   -0.2719   -0.0389 H       1  LIG1        0.0278
     11 H           2.8977    3.6916    0.2475 H       1  LIG1        0.0659
     12 C           0.4340    5.3004   -0.0697 C.ar    1  LIG1        0.1736
     13 C          -0.7184    6.0233   -0.1604 C.ar    1  LIG1       -0.0009
     14 C          -0.3060    7.4009   -0.0979 C.ar    1  LIG1       -0.0091
     15 C           1.0474    7.3914    0.0257 C.ar    1  LIG1        0.1713
     16 O           1.5069    6.1216    0.0446 O.2     1  LIG1       -0.4484
     17 C          -2.1337    5.5225   -0.2995 C.3     1  LIG1       -0.0360
     18 H          -2.1624    4.4381   -0.2298 H       1  LIG1        0.0279
     19 H          -2.5426    5.8290   -1.2633 H       1  LIG1        0.0279
     20 H          -2.7539    5.9502    0.4892 H       1  LIG1        0.0279
     21 H          -0.9340    8.2752   -0.1379 H       1  LIG1        0.0659
     22 C           2.0382    8.4438    0.1329 C.ar    1  LIG1        0.1736
     23 C           3.3980    8.4113    0.2375 C.ar    1  LIG1       -0.0009
     24 C           3.7929    9.7898    0.3220 C.ar    1  LIG1       -0.0091
     25 C           2.6510   10.5295    0.2495 C.ar    1  LIG1        0.1712
     26 O           1.5809    9.7141    0.1349 O.2     1  LIG1       -0.4484
     27 C           4.2907    7.1948    0.2806 C.3     1  LIG1       -0.0360
     28 H           5.3339    7.5056    0.2483 H       1  LIG1        0.0279
     29 H           4.0854    6.5419   -0.5677 H       1  LIG1        0.0279
     30 H           4.1178    6.6290    1.1969 H       1  LIG1        0.0279
     31 H           4.7940   10.1671    0.4497 H       1  LIG1        0.0659
     32 C           2.4079   11.9650    0.2552 C.ar    1  LIG1        0.1726
     33 C           3.1799   13.0151   -0.1417 C.ar    1  LIG1       -0.0017
     34 C           2.3893   14.1866    0.1378 C.ar    1  LIG1       -0.0203
     35 C           1.2221   13.7422    0.6628 C.ar    1  LIG1        0.0930
     36 O           1.2228   12.3980    0.7408 O.2     1  LIG1       -0.4596
     37 H           0.3340   14.2389    1.0109 H       1  LIG1        0.1029
     38 C           4.5508   12.9629   -0.7650 C.3     1  LIG1       -0.0360
     39 H           4.6626   13.7772   -1.4807 H       1  LIG1        0.0279
     40 H           4.6882   12.0150   -1.2860 H       1  LIG1        0.0279
     41 H           5.3289   13.0628   -0.0057 H       1  LIG1        0.0279
     42 H           2.6676   15.2106   -0.0473 H       1  LIG1        0.0652
@<TRIPOS>BOND
     1    39    38    1
     2    40    38    1
     3    19    17    1
     4    38    33    1
     5    38    41    1
     6     9     7    1
     7    29    27    1
     8     6     1    1
     9    17    18    1
    10    17    13    1
    11    17    20    1
    12     5     1   ar
    13     5     4   ar
    14     1     2   ar
    15    13    14   ar
    16    13    12   ar
    17    33    34   ar
    18    33    32   ar
    19    21    14    1
    20    14    15   ar
    21    12     4    1
    22    12    16   ar
    23     4     3   ar
    24    42    34    1
    25    10     7    1
    26     2     3   ar
    27     2     7    1
    28    15    16   ar
    29    15    22    1
    30     3    11    1
    31     7     8    1
    32    22    26   ar
    33    22    23   ar
    34    26    25   ar
    35    34    35   ar
    36    23    27    1
    37    23    24   ar
    38    28    27    1
    39    25    32    1
    40    25    24   ar
    41    32    36   ar
    42    27    30    1
    43    24    31    1
    44    35    36   ar
    45    35    37    1
