@<TRIPOS>MOLECULE
mol_data/opt/m06hf/geoms/mol2/12ia12ia-.out
 22 23 0 0 0
SMALL
GASTEIGER

@<TRIPOS>ATOM
      1 C           0.2165    1.8389    0.0664 C.ar    1  LIG1        0.0956
      2 C           1.5701    1.8437    0.0291 C.ar    1  LIG1       -0.0120
      3 C           1.9459    3.2358   -0.0154 C.ar    1  LIG1       -0.0099
      4 C           0.7848    3.9405   -0.0007 C.ar    1  LIG1        0.1702
      5 O          -0.2717    3.1020    0.0489 O.2     1  LIG1       -0.4596
      6 H          -0.5104    1.0467    0.1058 H       1  LIG1        0.1032
      7 C           2.4943    0.6530    0.0329 C.3     1  LIG1       -0.0367
      8 H           3.1558    0.6905    0.8991 H       1  LIG1        0.0278
      9 H           3.1070    0.6469   -0.8693 H       1  LIG1        0.0278
     10 H           1.9210   -0.2728    0.0715 H       1  LIG1        0.0278
     11 H           2.9390    3.6509   -0.0528 H       1  LIG1        0.0659
     12 C           0.5276    5.3741   -0.0287 C.ar    1  LIG1        0.1725
     13 C          -0.5995    6.1378   -0.0163 C.ar    1  LIG1       -0.0017
     14 C          -0.1251    7.5007   -0.0627 C.ar    1  LIG1       -0.0203
     15 C           1.2259    7.4373   -0.0985 C.ar    1  LIG1        0.0930
     16 O           1.6342    6.1526   -0.0782 O.2     1  LIG1       -0.4596
     17 H           1.9995    8.1833   -0.1381 H       1  LIG1        0.1029
     18 C          -2.0410    5.6974    0.0341 C.3     1  LIG1       -0.0360
     19 H          -2.1084    4.6131    0.0633 H       1  LIG1        0.0279
     20 H          -2.5712    6.0644   -0.8459 H       1  LIG1        0.0279
     21 H          -2.5230    6.1091    0.9221 H       1  LIG1        0.0279
     22 H          -0.7316    8.3915   -0.0677 H       1  LIG1        0.0652
@<TRIPOS>BOND
     1     9     7    1
     2    20    18    1
     3    17    15    1
     4    15    16   ar
     5    15    14   ar
     6    16    12   ar
     7    22    14    1
     8    14    13   ar
     9    11     3    1
    10    12    13   ar
    11    12     4    1
    12    13    18    1
    13     3     4   ar
    14     3     2   ar
    15     4     5   ar
    16     2     7    1
    17     2     1   ar
    18     7    10    1
    19     7     8    1
    20    18    19    1
    21    18    21    1
    22     5     1   ar
    23     1     6    1
