@<TRIPOS>MOLECULE
mol_data/opt/m06hf/geoms/mol2/12id12ai4da4ae.out
 46 49 0 0 0
SMALL
GASTEIGER

@<TRIPOS>ATOM
      1 C           0.4797    1.6469   -0.4132 C.ar    1  LIG1        0.0969
      2 C           1.8178    1.7069   -0.2256 C.ar    1  LIG1        0.0054
      3 C           2.0917    3.1116   -0.0326 C.ar    1  LIG1        0.1033
      4 C           0.8957    3.7672   -0.1235 C.ar    1  LIG1        0.1872
      5 O          -0.0792    2.8814   -0.3513 O.2     1  LIG1       -0.4582
      6 H          -0.1937    0.8280   -0.5955 H       1  LIG1        0.1032
      7 C           2.8280    0.5914   -0.2119 C.3     1  LIG1       -0.0355
      8 H           3.3382    0.5610    0.7510 H       1  LIG1        0.0279
      9 H           3.5721    0.7520   -0.9924 H       1  LIG1        0.0279
     10 H           2.3336   -0.3635   -0.3833 H       1  LIG1        0.0279
     11 N           4.3760    4.2183    0.4300 N.1     1  LIG1       -0.1907
     12 C           3.3621    3.7204    0.2207 C.1     1  LIG1        0.1033
     13 C           0.5484    5.1733   -0.0205 C.ar    1  LIG1        0.1721
     14 C           1.3039    6.2935    0.1423 C.ar    1  LIG1       -0.0092
     15 C           0.3840    7.3964    0.1735 C.ar    1  LIG1       -0.0040
     16 C          -0.8528    6.8384    0.0117 C.ar    1  LIG1        0.1399
     17 O          -0.7576    5.4904   -0.0944 O.2     1  LIG1       -0.4514
     18 H           2.3768    6.3370    0.2404 H       1  LIG1        0.0659
     19 C           0.7499    8.8388    0.4150 C.3     1  LIG1       -0.0361
     20 H          -0.1125    9.3985    0.7769 H       1  LIG1        0.0279
     21 H           1.1020    9.3036   -0.5061 H       1  LIG1        0.0279
     22 H           1.5385    8.8846    1.1659 H       1  LIG1        0.0279
     23 C          -2.5677    8.5375   -0.7052 C.ar    1  LIG1        0.0630
     24 C          -3.8705    9.0383   -0.6764 C.ar    1  LIG1       -0.0359
     25 C          -2.2214    7.3792    0.0023 C.ar    1  LIG1        0.0349
     26 C          -4.8604    8.3775    0.0462 C.ar    1  LIG1       -0.0166
     27 H          -4.1108    9.9209   -1.2550 H       1  LIG1        0.0637
     28 C          -3.2273    6.7107    0.7063 C.ar    1  LIG1       -0.0493
     29 C          -4.5243    7.2024    0.7288 C.ar    1  LIG1       -0.0533
     30 H          -2.9724    5.8087    1.2464 H       1  LIG1        0.0625
     31 N          -0.8689    9.7665   -2.2374 N.1     1  LIG1       -0.1908
     32 C          -1.6007    9.2103   -1.5498 C.1     1  LIG1        0.0999
     33 H          -5.2845    6.6870    1.3024 H       1  LIG1        0.0624
     34 C          -6.4915   10.2716    0.2636 C.ar    1  LIG1       -0.0540
     35 C          -7.7931   10.7638    0.2855 C.ar    1  LIG1       -0.0600
     36 C          -6.2549    8.9070    0.0755 C.ar    1  LIG1       -0.0167
     37 C          -8.8709    9.9014    0.1233 C.ar    1  LIG1       -0.0463
     38 H          -7.9665   11.8207    0.4379 H       1  LIG1        0.0618
     39 C          -7.3358    8.0413   -0.0885 C.ar    1  LIG1       -0.0386
     40 C          -8.6424    8.5345   -0.0629 C.ar    1  LIG1        0.0253
     41 H          -7.1715    6.9854   -0.2613 H       1  LIG1        0.0636
     42 H          -9.8871   10.2701    0.1401 H       1  LIG1        0.0630
     43 H          -5.6546   10.9419    0.4158 H       1  LIG1        0.0624
     44 C          -9.7557    7.6293   -0.2369 C.1     1  LIG1       -0.0696
     45 C         -10.6793    6.8743   -0.3806 C.1     1  LIG1       -0.1139
     46 H         -11.4985    6.2057   -0.5105 H       1  LIG1        0.1232
@<TRIPOS>BOND
     1    31    32    3
     2    32    23    1
     3    27    24    1
     4     9     7    1
     5    23    24   ar
     6    23    25   ar
     7    24    26   ar
     8     6     1    1
     9    46    45    1
    10    21    19    1
    11     1     5   ar
    12     1     2   ar
    13    10     7    1
    14    45    44    3
    15     5     4   ar
    16    41    39    1
    17    44    40    1
    18     2     7    1
    19     2     3   ar
    20     7     8    1
    21     4     3   ar
    22     4    13    1
    23    17    13   ar
    24    17    16   ar
    25    39    40   ar
    26    39    36   ar
    27    40    37   ar
    28     3    12    1
    29    13    14   ar
    30    25    16    1
    31    25    28   ar
    32    16    15   ar
    33    26    36    1
    34    26    29   ar
    35    36    34   ar
    36    37    42    1
    37    37    35   ar
    38    14    15   ar
    39    14    18    1
    40    15    19    1
    41    12    11    3
    42    34    35   ar
    43    34    43    1
    44    35    38    1
    45    19    20    1
    46    19    22    1
    47    28    29   ar
    48    28    30    1
    49    29    33    1
