@<TRIPOS>MOLECULE
mol_data/opt/m06hf/geoms/mol2/12id6hf6lh-12df12lh-12ld13ii12fh-.out
 98 105 0 0 0
SMALL
GASTEIGER

@<TRIPOS>ATOM
      1 C           2.0310    2.0773    1.3423 C.ar    1  LIG1        0.0968
      2 C           1.0887    1.6209    0.4922 C.ar    1  LIG1        0.0053
      3 C           0.4143    2.8112    0.0251 C.ar    1  LIG1        0.1004
      4 C           1.0102    3.8944    0.6268 C.ar    1  LIG1        0.1557
      5 O           1.9881    3.4345    1.4257 O.2     1  LIG1       -0.4612
      6 H           2.7789    1.5848    1.9377 H       1  LIG1        0.1032
      7 C           0.7715    0.2030    0.0992 C.3     1  LIG1       -0.0355
      8 H           0.8789    0.0793   -0.9788 H       1  LIG1        0.0279
      9 H          -0.2545   -0.0407    0.3756 H       1  LIG1        0.0279
     10 H           1.4481   -0.4843    0.6042 H       1  LIG1        0.0279
     11 N          -1.5505    2.8576   -1.6468 N.1     1  LIG1       -0.1907
     12 C          -0.6806    2.8309   -0.8952 C.1     1  LIG1        0.1032
     13 C           1.3268    6.2867    1.4227 C.ar    1  LIG1        0.1279
     14 C           0.7649    5.3338    0.5407 C.ar    1  LIG1        0.0615
     15 C          -0.0921    5.8011   -0.4578 C.ar    1  LIG1       -0.0040
     16 C          -0.4254    7.1399   -0.5451 C.ar    1  LIG1        0.1437
     17 C           0.1323    7.9960    0.4152 C.ar    1  LIG1        0.1195
     18 N           0.9916    7.5766    1.3332 N.ar    1  LIG1       -0.2279
     19 H          -0.4997    5.1181   -1.1878 H       1  LIG1        0.0663
     20 N           2.2486    5.9869    2.3880 N.pl3   1  LIG1       -0.3426
     21 H           2.3999    6.7176    3.0652 H       1  LIG1        0.1437
     22 H           2.3904    5.0324    2.6679 H       1  LIG1        0.1437
     23 O          -1.2100    7.6317   -1.5303 O.3     1  LIG1       -0.5046
     24 H          -1.5433    6.8727   -2.1038 H       1  LIG1        0.2922
     25 C          -1.5506    9.8838    0.4906 C.ar    1  LIG1        0.2248
     26 C          -0.2088    9.4438    0.4110 C.ar    1  LIG1        0.0672
     27 C           0.7664   10.4125    0.3883 C.ar    1  LIG1       -0.0244
     28 C           0.4486   11.7907    0.3717 C.ar    1  LIG1        0.0549
     29 C          -0.9121   12.0970    0.4383 C.ar    1  LIG1        0.1318
     30 N          -1.8579   11.1451    0.5294 N.ar    1  LIG1       -0.2073
     31 H           1.8051   10.1041    0.3592 H       1  LIG1        0.0645
     32 O          -2.5388    8.9646    0.5453 O.3     1  LIG1       -0.4792
     33 C          -3.8365    9.4623    0.8929 C.3     1  LIG1        0.0804
     34 H          -4.4843    8.5894    0.8994 H       1  LIG1        0.0660
     35 H          -3.7951    9.9275    1.8778 H       1  LIG1        0.0660
     36 H          -4.1727   10.1994    0.1639 H       1  LIG1        0.0660
     37 N           1.4521   12.7295    0.2026 N.pl3   1  LIG1       -0.3562
     38 H           2.3871   12.3494    0.1979 H       1  LIG1        0.1424
     39 H           1.3932   13.5978    0.7149 H       1  LIG1        0.1424
     40 C          -1.5197   13.4406    0.3053 C.ar    1  LIG1        0.1769
     41 C          -1.1723   14.7697    0.4436 C.ar    1  LIG1        0.1411
     42 C          -2.3427   15.5401    0.1111 C.ar    1  LIG1        0.1844
     43 C          -3.3032   14.6227   -0.1838 C.ar    1  LIG1        0.2168
     44 O          -2.7967   13.3803   -0.0764 O.2     1  LIG1       -0.4448
     45 N           1.0218   15.7733    1.3510 N.1     1  LIG1       -0.1906
     46 C           0.0452   15.3335    0.9345 C.1     1  LIG1        0.1067
     47 O          -2.4155   16.8818    0.1266 O.3     1  LIG1       -0.5023
     48 H          -3.2439   17.1640   -0.2996 H       1  LIG1        0.2923
     49 C          -4.7076   14.7272   -0.4974 C.ar    1  LIG1        0.2176
     50 C          -5.5259   15.7947   -0.6915 C.ar    1  LIG1        0.1904
     51 C          -6.8454   15.2742   -0.9405 C.ar    1  LIG1        0.1173
     52 C          -6.7016   13.9159   -0.8576 C.ar    1  LIG1        0.1987
     53 O          -5.4083   13.5895   -0.5970 O.2     1  LIG1       -0.4426
     54 O          -5.1612   17.1131   -0.6355 O.3     1  LIG1       -0.4896
     55 C          -5.6467   17.7605    0.5565 C.3     1  LIG1        0.0791
     56 H          -5.3971   18.8132    0.4515 H       1  LIG1        0.0660
     57 H          -6.7256   17.6228    0.6291 H       1  LIG1        0.0660
     58 H          -5.1464   17.3312    1.4257 H       1  LIG1        0.0660
     59 N          -7.9810   16.0566   -1.1415 N.pl3   1  LIG1       -0.3521
     60 H          -7.7842   16.8672   -1.7175 H       1  LIG1        0.1425
     61 H          -8.7665   15.5189   -1.4968 H       1  LIG1        0.1425
     62 C          -7.6303   12.8066   -0.9097 C.ar    1  LIG1        0.2153
     63 C          -8.9793   12.7304   -1.0493 C.ar    1  LIG1        0.1869
     64 C          -9.3163   11.3310   -0.9635 C.ar    1  LIG1        0.1412
     65 C          -8.1358   10.6650   -0.7595 C.ar    1  LIG1        0.1732
     66 O          -7.1257   11.5560   -0.7431 O.2     1  LIG1       -0.4450
     67 O          -9.8380   13.7646   -1.2447 O.3     1  LIG1       -0.4900
     68 C         -10.6476   14.0590   -0.0951 C.3     1  LIG1        0.0790
     69 H         -11.2868   14.8889   -0.3840 H       1  LIG1        0.0660
     70 H         -11.2535   13.1905    0.1634 H       1  LIG1        0.0660
     71 H         -10.0033   14.3425    0.7380 H       1  LIG1        0.0660
     72 N         -11.6809   10.3661   -1.3115 N.1     1  LIG1       -0.1906
     73 C         -10.6183   10.7744   -1.1577 C.1     1  LIG1        0.1067
     74 C          -7.8137    9.2660   -0.5586 C.ar    1  LIG1        0.0872
     75 C          -8.5325    8.2744    0.0911 C.ar    1  LIG1       -0.0185
     76 C          -7.7646    7.0817    0.0005 C.ar    1  LIG1       -0.0184
     77 C          -6.6089    7.4016   -0.6950 C.ar    1  LIG1        0.0895
     78 N          -6.6452    8.7246   -1.0181 N.ar    1  LIG1       -0.3488
     79 H          -5.9097    9.1996   -1.5288 H       1  LIG1        0.1661
     80 C          -9.8469    8.4145    0.8166 C.3     1  LIG1       -0.0373
     81 H          -9.9904    9.4406    1.1575 H       1  LIG1        0.0278
     82 H          -9.8535    7.7585    1.6878 H       1  LIG1        0.0278
     83 H         -10.6870    8.1502    0.1722 H       1  LIG1        0.0278
     84 C          -8.1582    5.7450    0.5801 C.3     1  LIG1       -0.0373
     85 H          -7.3916    5.0004    0.3806 H       1  LIG1        0.0278
     86 H          -9.0997    5.4069    0.1434 H       1  LIG1        0.0278
     87 H          -8.2940    5.8283    1.6607 H       1  LIG1        0.0278
     88 C          -5.4860    6.5921   -1.1473 C.ar    1  LIG1        0.1942
     89 C          -4.3104    6.9620   -1.7239 C.ar    1  LIG1        0.1853
     90 C          -3.6639    5.7391   -2.1342 C.ar    1  LIG1        0.1057
     91 C          -4.4769    4.7348   -1.7272 C.ar    1  LIG1        0.1170
     92 O          -5.5797    5.2419   -1.1354 O.2     1  LIG1       -0.4558
     93 H          -4.3879    3.6643   -1.7820 H       1  LIG1        0.1050
     94 O          -3.8899    8.2405   -1.9326 O.3     1  LIG1       -0.5020
     95 H          -3.0281    8.3662   -1.4822 H       1  LIG1        0.2924
     96 N          -2.4231    5.6711   -2.8362 N.pl3   1  LIG1       -0.3527
     97 H          -2.0683    4.7144   -2.8324 H       1  LIG1        0.1425
     98 H          -2.5492    5.9712   -3.8015 H       1  LIG1        0.1425
@<TRIPOS>BOND
     1    98    96    1
     2    96    97    1
     3    96    90    1
     4    90    91   ar
     5    90    89   ar
     6    24    23    1
     7    94    89    1
     8    94    95    1
     9    93    91    1
    10    91    92   ar
    11    89    88   ar
    12    60    59    1
    13    11    12    3
    14    23    16    1
    15    79    78    1
    16    61    59    1
    17    72    73    3
    18    67    63    1
    19    67    68    1
    20    19    15    1
    21    73    64    1
    22    88    92   ar
    23    88    77    1
    24    59    51    1
    25    63    64   ar
    26    63    62   ar
    27    78    77   ar
    28    78    74   ar
    29     8     7    1
    30    64    65   ar
    31    51    52   ar
    32    51    50   ar
    33    62    52    1
    34    62    66   ar
    35    12     3    1
    36    52    53   ar
    37    65    66   ar
    38    65    74    1
    39    77    76   ar
    40    50    54    1
    41    50    49   ar
    42    54    55    1
    43    53    49   ar
    44    74    75   ar
    45    16    15   ar
    46    16    17   ar
    47    49    43    1
    48    15    14   ar
    49    69    68    1
    50    48    47    1
    51    43    44   ar
    52    43    42   ar
    53    68    70    1
    54    68    71    1
    55    44    40   ar
    56    76    75   ar
    57    76    84    1
    58     3     2   ar
    59     3     4   ar
    60    75    80    1
    61     7     9    1
    62     7     2    1
    63     7    10    1
    64    42    47    1
    65    42    41   ar
    66    86    84    1
    67    36    33    1
    68    83    80    1
    69    38    37    1
    70    37    28    1
    71    37    39    1
    72    40    29    1
    73    40    41   ar
    74    31    27    1
    75    28    27   ar
    76    28    29   ar
    77    85    84    1
    78    27    26   ar
    79    26    17    1
    80    26    25   ar
    81    17    18   ar
    82    29    30   ar
    83    41    46    1
    84    56    55    1
    85    25    30   ar
    86    25    32    1
    87     2     1   ar
    88    14     4    1
    89    14    13   ar
    90    32    33    1
    91    55    57    1
    92    55    58    1
    93    84    87    1
    94     4     5   ar
    95    80    81    1
    96    80    82    1
    97    33    34    1
    98    33    35    1
    99    46    45    3
   100    18    13   ar
   101     1     5   ar
   102     1     6    1
   103    13    20    1
   104    20    22    1
   105    20    21    1
