@<TRIPOS>MOLECULE
mol_data/opt/m06hf/geoms/mol2/12id6eh-6el-13ee-13eh-6ad-13ih13ef-.out
 99 106 0 0 0
SMALL
GASTEIGER

@<TRIPOS>ATOM
      1 C           1.7166    2.2592    3.5318 C.ar    1  LIG1        0.0968
      2 C           1.8163    1.6684    2.3186 C.ar    1  LIG1        0.0053
      3 C           1.4550    2.7087    1.3865 C.ar    1  LIG1        0.1003
      4 C           1.1681    3.8296    2.1183 C.ar    1  LIG1        0.1551
      5 O           1.3322    3.5500    3.4148 O.2     1  LIG1       -0.4612
      6 H           1.8823    1.8996    4.5319 H       1  LIG1        0.1032
      7 C           2.2038    0.2550    1.9758 C.3     1  LIG1       -0.0355
      8 H           3.0790    0.2537    1.3257 H       1  LIG1        0.0279
      9 H           1.3854   -0.2417    1.4541 H       1  LIG1        0.0279
     10 H           2.4343   -0.2997    2.8839 H       1  LIG1        0.0279
     11 N           1.3718    2.4830   -1.1838 N.1     1  LIG1       -0.1907
     12 C           1.3966    2.5834   -0.0400 C.1     1  LIG1        0.1032
     13 C          -0.1068    5.9783    2.4752 C.ar    1  LIG1        0.1246
     14 C           0.7694    5.1860    1.7127 C.ar    1  LIG1        0.0541
     15 C           1.2630    5.7020    0.5201 C.ar    1  LIG1       -0.0256
     16 C           0.8854    6.9772    0.1008 C.ar    1  LIG1        0.0517
     17 C           0.0367    7.7055    0.9602 C.ar    1  LIG1        0.0957
     18 N          -0.4358    7.2095    2.0921 N.ar    1  LIG1       -0.2358
     19 H           1.9415    5.1154   -0.0878 H       1  LIG1        0.0644
     20 C          -0.7250    5.4986    3.6932 C.1     1  LIG1       -0.0491
     21 C          -1.2650    5.1103    4.6923 C.1     1  LIG1       -0.1124
     22 H          -1.7468    4.7738    5.5810 H       1  LIG1        0.1232
     23 N           1.3687    7.5224   -1.0767 N.pl3   1  LIG1       -0.3563
     24 H           1.7002    6.8514   -1.7561 H       1  LIG1        0.1424
     25 H           0.7957    8.2493   -1.4844 H       1  LIG1        0.1424
     26 C          -1.7009    9.4904    0.5318 C.ar    1  LIG1        0.1233
     27 C          -0.3594    9.1039    0.6167 C.ar    1  LIG1        0.0395
     28 C           0.6254   10.0718    0.4039 C.ar    1  LIG1       -0.0059
     29 C           0.2488   11.3782    0.1198 C.ar    1  LIG1        0.1481
     30 C          -1.1263   11.6603   -0.0028 C.ar    1  LIG1        0.1312
     31 N          -2.0541   10.7410    0.2240 N.ar    1  LIG1       -0.2326
     32 H           1.6679    9.7928    0.4883 H       1  LIG1        0.0662
     33 C          -2.7726    8.5390    0.7360 C.1     1  LIG1       -0.0491
     34 C          -3.6595    7.7464    0.8944 C.1     1  LIG1       -0.1124
     35 H          -4.4441    7.0419    1.0463 H       1  LIG1        0.1232
     36 O           1.0864   12.4108   -0.0205 O.3     1  LIG1       -0.4929
     37 C           2.4820   12.1735   -0.0374 C.3     1  LIG1        0.0789
     38 H           2.9325   13.1401   -0.2422 H       1  LIG1        0.0660
     39 H           2.8180   11.7977    0.9320 H       1  LIG1        0.0660
     40 H           2.7398   11.4652   -0.8286 H       1  LIG1        0.0660
     41 C          -1.6422   13.0029   -0.3315 C.ar    1  LIG1        0.0859
     42 C          -1.1639   14.1264   -0.9968 C.ar    1  LIG1        0.0675
     43 C          -2.2239   15.0903   -0.9902 C.ar    1  LIG1        0.0674
     44 C          -3.2974   14.5168   -0.3318 C.ar    1  LIG1        0.0814
     45 N          -2.9234   13.2656    0.0426 N.ar    1  LIG1       -0.3497
     46 H          -3.4729   12.5902    0.5591 H       1  LIG1        0.1661
     47 C           0.0711   14.3371   -1.6912 C.1     1  LIG1       -0.0662
     48 C           1.0621   14.5763   -2.3278 C.1     1  LIG1       -0.1138
     49 H           1.9306   14.7972   -2.9031 H       1  LIG1        0.1232
     50 C          -2.2045   16.3810   -1.6046 C.1     1  LIG1       -0.0662
     51 C          -2.1937   17.4635   -2.1244 C.1     1  LIG1       -0.1138
     52 H          -2.1857   18.4256   -2.5802 H       1  LIG1        0.1232
     53 C          -4.6345   15.0387   -0.0626 C.ar    1  LIG1        0.0820
     54 C          -5.0371   16.2437    0.4905 C.ar    1  LIG1        0.0726
     55 C          -6.4617   16.2207    0.5575 C.ar    1  LIG1        0.0665
     56 C          -6.8795   15.0082    0.0472 C.ar    1  LIG1        0.0706
     57 N          -5.7531   14.3154   -0.3310 N.ar    1  LIG1       -0.3505
     58 H          -5.7464   13.3980   -0.7497 H       1  LIG1        0.1660
     59 C          -4.2125   17.3105    0.9652 C.1     1  LIG1       -0.0656
     60 C          -3.5592   18.2277    1.3866 C.1     1  LIG1       -0.1138
     61 H          -2.9580   19.0265    1.7536 H       1  LIG1        0.1232
     62 N          -7.2859   17.2359    1.0824 N.pl3   1  LIG1       -0.3554
     63 H          -6.7207   17.9742    1.4894 H       1  LIG1        0.1424
     64 H          -7.9009   17.6329    0.3780 H       1  LIG1        0.1424
     65 C          -8.5809   13.5739   -1.1157 C.ar    1  LIG1        0.0376
     66 C          -8.2368   14.4713   -0.0962 C.ar    1  LIG1        0.0195
     67 C          -9.2567   14.8644    0.7689 C.ar    1  LIG1       -0.0316
     68 C         -10.5261   14.3134    0.6124 C.ar    1  LIG1        0.0797
     69 C         -10.7474   13.3343   -0.3724 C.ar    1  LIG1        0.1047
     70 N          -9.7766   13.0190   -1.2383 N.ar    1  LIG1       -0.2516
     71 H          -9.0628   15.6084    1.5335 H       1  LIG1        0.0638
     72 H          -7.8549   13.3027   -1.8751 H       1  LIG1        0.0836
     73 N         -12.4295   15.3420    2.0406 N.1     1  LIG1       -0.1908
     74 C         -11.6067   14.8485    1.4106 C.1     1  LIG1        0.1014
     75 C         -12.0209   12.6352   -0.5693 C.ar    1  LIG1        0.0714
     76 C         -13.0007   12.1689    0.2941 C.ar    1  LIG1       -0.0023
     77 C         -13.9408   11.4648   -0.5128 C.ar    1  LIG1        0.0553
     78 C         -13.4930   11.5140   -1.8243 C.ar    1  LIG1        0.0859
     79 N         -12.3246   12.2210   -1.8348 N.ar    1  LIG1       -0.3501
     80 H         -11.6498   12.2585   -2.5856 H       1  LIG1        0.1661
     81 C         -13.0905   12.2157    1.7973 C.3     1  LIG1       -0.0359
     82 H         -13.5641   11.2882    2.1226 H       1  LIG1        0.0279
     83 H         -13.6888   13.0609    2.1409 H       1  LIG1        0.0279
     84 H         -12.1005   12.2938    2.2476 H       1  LIG1        0.0279
     85 N         -15.0813   10.8279    0.0089 N.pl3   1  LIG1       -0.3561
     86 H         -15.7827   11.4861    0.3288 H       1  LIG1        0.1424
     87 H         -15.4812   10.1442   -0.6232 H       1  LIG1        0.1424
     88 C         -14.0968   11.0318   -3.0623 C.ar    1  LIG1        0.0839
     89 C         -14.7550    9.8468   -3.3549 C.ar    1  LIG1        0.0927
     90 C         -15.1584    9.9288   -4.7224 C.ar    1  LIG1        0.1500
     91 C         -14.7341   11.1338   -5.2171 C.ar    1  LIG1        0.0454
     92 N         -14.0867   11.7865   -4.1924 N.ar    1  LIG1       -0.3554
     93 H         -13.7674   12.7418   -4.2193 H       1  LIG1        0.1655
     94 H         -14.8375   11.5695   -6.1950 H       1  LIG1        0.0845
     95 C         -14.9531    8.7441   -2.4682 C.1     1  LIG1       -0.0638
     96 C         -15.1217    7.8336   -1.7000 C.1     1  LIG1       -0.1137
     97 H         -15.2545    7.0185   -1.0276 H       1  LIG1        0.1232
     98 O         -15.8293    8.9256   -5.3472 O.3     1  LIG1       -0.5040
     99 H         -16.0655    9.1908   -6.2416 H       1  LIG1        0.2923
@<TRIPOS>BOND
     1    99    98    1
     2    94    91    1
     3    98    90    1
     4    91    90   ar
     5    91    92   ar
     6    90    89   ar
     7    93    92    1
     8    92    88   ar
     9    89    88   ar
    10    89    95    1
    11    88    78    1
    12    49    48    1
    13    80    79    1
    14    52    51    1
    15    95    96    3
    16    48    47    3
    17    51    50    3
    18    72    65    1
    19    79    78   ar
    20    79    75   ar
    21    78    77   ar
    22    24    23    1
    23    96    97    1
    24    47    42    1
    25    50    43    1
    26    25    23    1
    27    70    65   ar
    28    70    69   ar
    29    11    12    3
    30    65    66   ar
    31    23    16    1
    32    42    43   ar
    33    42    41   ar
    34    43    44   ar
    35    40    37    1
    36    58    57    1
    37    87    85    1
    38    75    69    1
    39    75    76   ar
    40    77    85    1
    41    77    76   ar
    42    69    68   ar
    43    44    53    1
    44    44    45   ar
    45    41    30    1
    46    41    45   ar
    47    57    53   ar
    48    57    56   ar
    49    38    37    1
    50    66    56    1
    51    66    67   ar
    52    19    15    1
    53    53    54   ar
    54    12     3    1
    55    37    36    1
    56    37    39    1
    57    36    29    1
    58    30    29   ar
    59    30    31   ar
    60    85    86    1
    61    45    46    1
    62    56    55   ar
    63    16    15   ar
    64    16    17   ar
    65    29    28   ar
    66    31    26   ar
    67    76    81    1
    68    64    62    1
    69    28    32    1
    70    28    27   ar
    71    54    55   ar
    72    54    59    1
    73    15    14   ar
    74    26    27   ar
    75    26    33    1
    76    55    62    1
    77    68    67   ar
    78    68    74    1
    79    27    17    1
    80    33    34    3
    81    67    71    1
    82    34    35    1
    83    17    18   ar
    84    59    60    3
    85    62    63    1
    86     8     7    1
    87     3     4   ar
    88     3     2   ar
    89    60    61    1
    90    74    73    3
    91     9     7    1
    92    14     4    1
    93    14    13   ar
    94    81    82    1
    95    81    83    1
    96    81    84    1
    97     7     2    1
    98     7    10    1
    99    18    13   ar
   100     4     5   ar
   101     2     1   ar
   102    13    20    1
   103     5     1   ar
   104     1     6    1
   105    20    21    3
   106    21    22    1
