@<TRIPOS>MOLECULE
mol_data/opt/m06hf/geoms/mol2/12id13ei6de4df.out
 50 53 0 0 0
SMALL
GASTEIGER

@<TRIPOS>ATOM
      1 C           0.4226    1.6628    0.4364 C.ar    1  LIG1        0.0968
      2 C           1.6873    1.6163   -0.0374 C.ar    1  LIG1        0.0054
      3 C           2.0560    3.0003   -0.2440 C.ar    1  LIG1        0.1017
      4 C           0.9844    3.7575    0.1373 C.ar    1  LIG1        0.1696
      5 O          -0.0059    2.9447    0.5446 O.2     1  LIG1       -0.4598
      6 H          -0.2742    0.9000    0.7370 H       1  LIG1        0.1032
      7 C           2.5560    0.4199   -0.3177 C.3     1  LIG1       -0.0355
      8 H           3.4569    0.4616    0.2947 H       1  LIG1        0.0279
      9 H           2.8532    0.4128   -1.3666 H       1  LIG1        0.0279
     10 H           2.0143   -0.4974   -0.0933 H       1  LIG1        0.0279
     11 N           4.2838    3.6986   -1.3402 N.1     1  LIG1       -0.1907
     12 C           3.2884    3.4288   -0.8357 C.1     1  LIG1        0.1033
     13 C           0.6878    5.1803    0.1714 C.ar    1  LIG1        0.0996
     14 C           1.4953    6.2978    0.3310 C.ar    1  LIG1        0.0565
     15 C           0.6476    7.4411    0.3198 C.ar    1  LIG1       -0.0090
     16 C          -0.6463    6.9698    0.1586 C.ar    1  LIG1        0.0539
     17 N          -0.5953    5.6041    0.0770 N.ar    1  LIG1       -0.3505
     18 H          -1.3874    4.9797    0.0006 H       1  LIG1        0.1660
     19 C           2.9096    6.3060    0.5438 C.1     1  LIG1       -0.0672
     20 C           4.0970    6.3178    0.7289 C.1     1  LIG1       -0.1138
     21 H           5.1529    6.3009    0.8713 H       1  LIG1        0.1232
     22 C           1.1289    8.8561    0.5226 C.3     1  LIG1       -0.0365
     23 H           0.3713    9.4597    1.0229 H       1  LIG1        0.0279
     24 H           1.3886    9.3237   -0.4296 H       1  LIG1        0.0279
     25 H           2.0262    8.8322    1.1401 H       1  LIG1        0.0279
     26 C          -3.1442    7.2867    0.5183 C.ar    1  LIG1        0.1499
     27 C          -1.8964    7.7373    0.0636 C.ar    1  LIG1        0.0356
     28 C          -1.8945    9.0020   -0.5322 C.ar    1  LIG1       -0.0324
     29 C          -3.0610    9.7567   -0.5955 C.ar    1  LIG1        0.0514
     30 C          -4.2421    9.2136   -0.0487 C.ar    1  LIG1        0.0892
     31 N          -4.2695    7.9904    0.4592 N.ar    1  LIG1       -0.2344
     32 H          -0.9892    9.3886   -0.9781 H       1  LIG1        0.0638
     33 N          -3.3736    4.8770    1.4834 N.1     1  LIG1       -0.1893
     34 C          -3.2869    5.9489    1.0836 C.1     1  LIG1        0.1198
     35 C          -3.0533   11.0241   -1.2775 C.1     1  LIG1       -0.0675
     36 C          -3.0202   12.0711   -1.8641 C.1     1  LIG1       -0.1138
     37 H          -2.9963   13.0083   -2.3714 H       1  LIG1        0.1232
     38 C          -5.6957   11.2199    0.4851 C.ar    1  LIG1        0.0612
     39 C          -6.9400   11.8576    0.4449 C.ar    1  LIG1       -0.0403
     40 C          -5.5454    9.9443   -0.0686 C.ar    1  LIG1        0.0224
     41 C          -8.0274   11.2323   -0.1388 C.ar    1  LIG1       -0.0189
     42 H          -7.0430   12.8400    0.8849 H       1  LIG1        0.0632
     43 C          -6.6455    9.3061   -0.6310 C.ar    1  LIG1       -0.0097
     44 C          -7.8809    9.9488   -0.6702 C.ar    1  LIG1        0.1176
     45 H          -6.5258    8.3055   -1.0294 H       1  LIG1        0.0661
     46 H          -8.9988   11.7046   -0.1836 H       1  LIG1        0.0654
     47 N          -3.7431   12.4004    1.7207 N.1     1  LIG1       -0.1908
     48 C          -4.5959   11.8725    1.1628 C.1     1  LIG1        0.0998
     49 O          -8.9790    9.3768   -1.2148 O.3     1  LIG1       -0.5067
     50 H          -8.7871    8.4893   -1.5362 H       1  LIG1        0.2921
@<TRIPOS>BOND
     1    37    36    1
     2    36    35    3
     3    50    49    1
     4     9     7    1
     5    11    12    3
     6    35    29    1
     7    49    44    1
     8    45    43    1
     9    32    28    1
    10    12     3    1
    11    44    43   ar
    12    44    41   ar
    13    43    40   ar
    14    29    28   ar
    15    29    30   ar
    16    28    27   ar
    17    24    22    1
    18     7    10    1
    19     7     2    1
    20     7     8    1
    21     3     2   ar
    22     3     4   ar
    23    46    41    1
    24    41    39   ar
    25    40    30    1
    26    40    38   ar
    27    30    31   ar
    28     2     1   ar
    29    18    17    1
    30    27    16    1
    31    27    26   ar
    32    17    16   ar
    33    17    13   ar
    34     4    13    1
    35     4     5   ar
    36    16    15   ar
    37    13    14   ar
    38    15    14   ar
    39    15    22    1
    40    14    19    1
    41     1     5   ar
    42     1     6    1
    43    39    38   ar
    44    39    42    1
    45    31    26   ar
    46    38    48    1
    47    26    34    1
    48    22    23    1
    49    22    25    1
    50    19    20    3
    51    20    21    1
    52    34    33    3
    53    48    47    3
