@<TRIPOS>MOLECULE
mol_data/opt/m06hf/geoms/mol2/12ie12ie-12ie.out
 38 40 0 0 0
SMALL
GASTEIGER

@<TRIPOS>ATOM
      1 C           0.1600    1.8012   -0.2848 C.ar    1  LIG1        0.0968
      2 C           1.4890    1.7574   -0.0484 C.ar    1  LIG1        0.0034
      3 C           1.8934    3.1403    0.1071 C.ar    1  LIG1        0.0763
      4 C           0.7606    3.8884   -0.0553 C.ar    1  LIG1        0.1855
      5 O          -0.2890    3.0812   -0.2934 O.2     1  LIG1       -0.4583
      6 H          -0.5760    1.0369   -0.4625 H       1  LIG1        0.1032
      7 C           2.3968    0.5622    0.0499 C.3     1  LIG1       -0.0355
      8 H           2.8695    0.5349    1.0321 H       1  LIG1        0.0279
      9 H           3.1810    0.6270   -0.7050 H       1  LIG1        0.0279
     10 H           1.8309   -0.3560   -0.1006 H       1  LIG1        0.0279
     11 C           3.2226    3.5780    0.4037 C.1     1  LIG1       -0.0655
     12 C           4.3573    3.8797    0.6638 C.1     1  LIG1       -0.1138
     13 H           5.3599    4.1544    0.8989 H       1  LIG1        0.1232
     14 C           0.5054    5.3165   -0.0150 C.ar    1  LIG1        0.1760
     15 C          -0.6405    6.0480    0.0334 C.ar    1  LIG1        0.0145
     16 C          -0.2045    7.4248    0.0570 C.ar    1  LIG1        0.0771
     17 C           1.1629    7.3982    0.0251 C.ar    1  LIG1        0.1865
     18 O           1.5944    6.1264   -0.0178 O.2     1  LIG1       -0.4470
     19 C          -2.0771    5.6008    0.0594 C.3     1  LIG1       -0.0348
     20 H          -2.1411    4.5312    0.2389 H       1  LIG1        0.0279
     21 H          -2.5511    5.8355   -0.8949 H       1  LIG1        0.0279
     22 H          -2.6048    6.1421    0.8449 H       1  LIG1        0.0279
     23 C          -1.0753    8.5594    0.0988 C.1     1  LIG1       -0.0655
     24 C          -1.8515    9.4759    0.1323 C.1     1  LIG1       -0.1138
     25 H          -2.5338   10.2935    0.1621 H       1  LIG1        0.1232
     26 C           2.1629    8.4502    0.0211 C.ar    1  LIG1        0.1750
     27 C           3.5150    8.4478   -0.1446 C.ar    1  LIG1        0.0138
     28 C           3.8956    9.8395   -0.0418 C.ar    1  LIG1        0.0659
     29 C           2.7491   10.5404    0.1692 C.ar    1  LIG1        0.1083
     30 O           1.7006    9.7103    0.2095 O.2     1  LIG1       -0.4583
     31 H           2.5535   11.5892    0.3032 H       1  LIG1        0.1042
     32 C           4.4646    7.3075   -0.3904 C.3     1  LIG1       -0.0348
     33 H           5.1570    7.2281    0.4503 H       1  LIG1        0.0279
     34 H           5.0454    7.5114   -1.2908 H       1  LIG1        0.0279
     35 H           3.9261    6.3700   -0.5016 H       1  LIG1        0.0279
     36 C           5.2253   10.3626   -0.1486 C.1     1  LIG1       -0.0662
     37 C           6.3473   10.7818   -0.2424 C.1     1  LIG1       -0.1138
     38 H           7.3406   11.1576   -0.3257 H       1  LIG1        0.1232
@<TRIPOS>BOND
     1    34    32    1
     2    21    19    1
     3     9     7    1
     4    35    32    1
     5     6     1    1
     6    32    27    1
     7    32    33    1
     8    38    37    1
     9     5     1   ar
    10     5     4   ar
    11     1     2   ar
    12    37    36    3
    13    36    28    1
    14    27    28   ar
    15    27    26   ar
    16    10     7    1
    17     4    14    1
    18     4     3   ar
    19     2     7    1
    20     2     3   ar
    21    28    29   ar
    22    18    14   ar
    23    18    17   ar
    24    14    15   ar
    25    26    17    1
    26    26    30   ar
    27    17    16   ar
    28    15    16   ar
    29    15    19    1
    30     7     8    1
    31    16    23    1
    32    19    20    1
    33    19    22    1
    34    23    24    3
    35     3    11    1
    36    24    25    1
    37    29    30   ar
    38    29    31    1
    39    11    12    3
    40    12    13    1
