@<TRIPOS>MOLECULE
mol_data/opt/m06hf/geoms/mol2/12ie12ie12ie-12ie.out
 50 53 0 0 0
SMALL
GASTEIGER

@<TRIPOS>ATOM
      1 C           0.4635    1.6902    0.5375 C.ar    1  LIG1        0.0968
      2 C           1.6634    1.7460   -0.0833 C.ar    1  LIG1        0.0034
      3 C           1.9099    3.1568   -0.2957 C.ar    1  LIG1        0.0763
      4 C           0.8373    3.8165    0.2351 C.ar    1  LIG1        0.1855
      5 O          -0.0407    2.9301    0.7370 O.2     1  LIG1       -0.4583
      6 H          -0.1374    0.8687    0.8861 H       1  LIG1        0.1032
      7 C           2.5712    0.6215   -0.5008 C.3     1  LIG1       -0.0355
      8 H           3.5349    0.7144    0.0006 H       1  LIG1        0.0279
      9 H           2.7406    0.6605   -1.5773 H       1  LIG1        0.0279
     10 H           2.1263   -0.3388   -0.2441 H       1  LIG1        0.0279
     11 C           3.0281    3.7215   -0.9877 C.1     1  LIG1       -0.0655
     12 C           3.9735    4.1656   -1.5828 C.1     1  LIG1       -0.1138
     13 H           4.8067    4.5617   -2.1156 H       1  LIG1        0.1232
     14 C           0.5053    5.2282    0.3434 C.ar    1  LIG1        0.1760
     15 C           1.2531    6.3375    0.5819 C.ar    1  LIG1        0.0145
     16 C           0.3123    7.4355    0.5621 C.ar    1  LIG1        0.0771
     17 C          -0.9184    6.8846    0.3265 C.ar    1  LIG1        0.1866
     18 O          -0.8044    5.5547    0.1891 O.2     1  LIG1       -0.4470
     19 C           2.7247    6.4521    0.8666 C.3     1  LIG1       -0.0348
     20 H           2.8789    7.2023    1.6421 H       1  LIG1        0.0279
     21 H           3.2600    6.7580   -0.0330 H       1  LIG1        0.0279
     22 H           3.1202    5.4931    1.1972 H       1  LIG1        0.0279
     23 C           0.6390    8.8062    0.8068 C.1     1  LIG1       -0.0655
     24 C           0.9656    9.9405    1.0342 C.1     1  LIG1       -0.1138
     25 H           1.2446   10.9480    1.2400 H       1  LIG1        0.1232
     26 C          -2.2514    7.4432    0.2113 C.ar    1  LIG1        0.1761
     27 C          -3.4866    6.8715    0.1797 C.ar    1  LIG1        0.0145
     28 C          -4.4048    7.9783    0.0457 C.ar    1  LIG1        0.0771
     29 C          -3.6415    9.1141    0.0114 C.ar    1  LIG1        0.1865
     30 O          -2.3409    8.7935    0.1123 O.2     1  LIG1       -0.4470
     31 C          -3.8944    5.4249    0.2604 C.3     1  LIG1       -0.0348
     32 H          -3.0406    4.7928    0.4886 H       1  LIG1        0.0279
     33 H          -4.3275    5.1180   -0.6929 H       1  LIG1        0.0279
     34 H          -4.6569    5.3127    1.0318 H       1  LIG1        0.0279
     35 C          -5.8278    7.8584   -0.0371 C.1     1  LIG1       -0.0655
     36 C          -7.0179    7.7082   -0.1040 C.1     1  LIG1       -0.1138
     37 H          -8.0741    7.5850   -0.1646 H       1  LIG1        0.1232
     38 C          -3.9820   10.5187   -0.1182 C.ar    1  LIG1        0.1750
     39 C          -3.2352   11.6432   -0.2979 C.ar    1  LIG1        0.0138
     40 C          -4.2028   12.7165   -0.3558 C.ar    1  LIG1        0.0659
     41 C          -5.4273   12.1422   -0.2107 C.ar    1  LIG1        0.1083
     42 O          -5.3032   10.8177   -0.0665 O.2     1  LIG1       -0.4583
     43 H          -6.4224   12.5497   -0.1924 H       1  LIG1        0.1042
     44 C          -1.7463   11.8110   -0.4305 C.3     1  LIG1       -0.0348
     45 H          -1.3831   12.4504    0.3766 H       1  LIG1        0.0279
     46 H          -1.5227   12.3015   -1.3788 H       1  LIG1        0.0279
     47 H          -1.2419   10.8493   -0.3839 H       1  LIG1        0.0279
     48 C          -3.9109   14.1078   -0.5375 C.1     1  LIG1       -0.0662
     49 C          -3.6412   15.2685   -0.6915 C.1     1  LIG1       -0.1138
     50 H          -3.4057   16.2986   -0.8278 H       1  LIG1        0.1232
@<TRIPOS>BOND
     1    13    12    1
     2    12    11    3
     3     9     7    1
     4    46    44    1
     5    11     3    1
     6    50    49    1
     7    33    31    1
     8    49    48    3
     9    48    40    1
    10     7    10    1
    11     7     2    1
    12     7     8    1
    13    44    47    1
    14    44    39    1
    15    44    45    1
    16    40    39   ar
    17    40    41   ar
    18    39    38   ar
    19     3     2   ar
    20     3     4   ar
    21    41    43    1
    22    41    42   ar
    23    37    36    1
    24    38    42   ar
    25    38    29    1
    26    36    35    3
    27     2     1   ar
    28    35    28    1
    29    21    19    1
    30    29    28   ar
    31    29    30   ar
    32    28    27   ar
    33    30    26   ar
    34    27    26   ar
    35    27    31    1
    36    18    17   ar
    37    18    14   ar
    38    26    17    1
    39     4    14    1
    40     4     5   ar
    41    31    32    1
    42    31    34    1
    43    17    16   ar
    44    14    15   ar
    45     1     5   ar
    46     1     6    1
    47    16    15   ar
    48    16    23    1
    49    15    19    1
    50    23    24    3
    51    19    22    1
    52    19    20    1
    53    24    25    1
