@<TRIPOS>MOLECULE
mol_data/opt/m06hf/geoms/mol2/12ie6fd6eh-6ah-.out
 49 52 0 0 0
SMALL
GASTEIGER

@<TRIPOS>ATOM
      1 C           0.7169    1.7746    1.4800 C.ar    1  LIG1        0.0967
      2 C           1.6434    1.6249    0.5123 C.ar    1  LIG1        0.0033
      3 C           1.7863    2.9375   -0.0876 C.ar    1  LIG1        0.0734
      4 C           0.9345    3.7719    0.5788 C.ar    1  LIG1        0.1555
      5 O           0.2842    3.0639    1.5335 O.2     1  LIG1       -0.4612
      6 H           0.2770    1.0945    2.1882 H       1  LIG1        0.1032
      7 C           2.3895    0.3865    0.0972 C.3     1  LIG1       -0.0355
      8 H           3.4626    0.5473    0.2017 H       1  LIG1        0.0279
      9 H           2.1762    0.1577   -0.9472 H       1  LIG1        0.0279
     10 H           2.0930   -0.4589    0.7161 H       1  LIG1        0.0279
     11 C           2.6496    3.2512   -1.1851 C.1     1  LIG1       -0.0656
     12 C           3.3828    3.4894   -2.1081 C.1     1  LIG1       -0.1138
     13 H           4.0268    3.7043   -2.9305 H       1  LIG1        0.1232
     14 C          -0.5812    5.7712    0.9350 C.ar    1  LIG1        0.2239
     15 C           0.6250    5.1999    0.4492 C.ar    1  LIG1        0.0810
     16 C           1.5140    6.0508   -0.1900 C.ar    1  LIG1       -0.0264
     17 C           1.1899    7.3967   -0.3498 C.ar    1  LIG1        0.0787
     18 C          -0.0356    7.8587    0.1525 C.ar    1  LIG1        0.0949
     19 N          -0.8759    7.0493    0.7818 N.ar    1  LIG1       -0.2110
     20 H           2.4515    5.6710   -0.5743 H       1  LIG1        0.0640
     21 O          -1.5052    5.0606    1.5806 O.3     1  LIG1       -0.4919
     22 H          -1.2088    4.1552    1.7417 H       1  LIG1        0.2938
     23 N           2.8725    8.9507   -1.5634 N.1     1  LIG1       -0.1908
     24 C           2.1134    8.2716   -1.0341 C.1     1  LIG1        0.1013
     25 C          -1.6989    9.6238   -0.5372 C.ar    1  LIG1        0.1231
     26 C          -0.4509    9.2833    0.0064 C.ar    1  LIG1        0.0373
     27 C           0.3996   10.3091    0.3930 C.ar    1  LIG1       -0.0271
     28 C           0.0056   11.6393    0.2517 C.ar    1  LIG1        0.0516
     29 C          -1.2949   11.8764   -0.2431 C.ar    1  LIG1        0.0945
     30 N          -2.0890   10.8912   -0.6429 N.ar    1  LIG1       -0.2359
     31 H           1.3780   10.0820    0.8004 H       1  LIG1        0.0644
     32 C          -2.6064    8.6164   -1.0460 C.1     1  LIG1       -0.0491
     33 C          -3.3530    7.7891   -1.4911 C.1     1  LIG1       -0.1124
     34 H          -4.0242    7.0567   -1.8751 H       1  LIG1        0.1232
     35 N           0.8591   12.6768    0.6107 N.pl3   1  LIG1       -0.3563
     36 H           1.8386   12.4252    0.6054 H       1  LIG1        0.1424
     37 H           0.6828   13.5461    0.1220 H       1  LIG1        0.1424
     38 C          -2.5814   13.5797   -1.5284 C.ar    1  LIG1        0.0369
     39 C          -1.8399   13.2582   -0.3895 C.ar    1  LIG1        0.0220
     40 C          -1.6663   14.2316    0.5928 C.ar    1  LIG1       -0.0289
     41 C          -2.2248   15.4967    0.4019 C.ar    1  LIG1        0.0435
     42 C          -2.9341   15.7134   -0.7872 C.ar    1  LIG1        0.0482
     43 N          -3.1068   14.7850   -1.7189 N.ar    1  LIG1       -0.2608
     44 H          -1.1239   14.0021    1.5038 H       1  LIG1        0.0643
     45 H          -3.3850   16.6824   -0.9751 H       1  LIG1        0.0848
     46 H          -2.7490   12.8304   -2.2911 H       1  LIG1        0.0836
     47 N          -2.1370   16.4917    1.3713 N.pl3   1  LIG1       -0.3568
     48 H          -1.3682   16.4011    2.0194 H       1  LIG1        0.1424
     49 H          -2.2523   17.4362    1.0331 H       1  LIG1        0.1424
@<TRIPOS>BOND
     1    13    12    1
     2    46    38    1
     3    12    11    3
     4    34    33    1
     5    43    38   ar
     6    43    42   ar
     7    23    24    3
     8    38    39   ar
     9    33    32    3
    10    11     3    1
    11    32    25    1
    12    24    17    1
    13    45    42    1
    14     9     7    1
    15    42    41   ar
    16    30    25   ar
    17    30    29   ar
    18    20    16    1
    19    25    26   ar
    20    39    29    1
    21    39    40   ar
    22    17    16   ar
    23    17    18   ar
    24    29    28   ar
    25    16    15   ar
    26     3     2   ar
    27     3     4   ar
    28    26    18    1
    29    26    27   ar
    30     7     8    1
    31     7     2    1
    32     7    10    1
    33    37    35    1
    34    18    19   ar
    35    28    27   ar
    36    28    35    1
    37    27    31    1
    38    41    40   ar
    39    41    47    1
    40    15     4    1
    41    15    14   ar
    42     2     1   ar
    43     4     5   ar
    44    40    44    1
    45    36    35    1
    46    19    14   ar
    47    14    21    1
    48    49    47    1
    49    47    48    1
    50     1     5   ar
    51     1     6    1
    52    21    22    1
