@<TRIPOS>MOLECULE
mol_data/opt/m06hf/geoms/mol2/12ie12ie-12ie-12ie-.out
 50 53 0 0 0
SMALL
GASTEIGER

@<TRIPOS>ATOM
      1 C          -0.1154    1.7542    0.3307 C.ar    1  LIG1        0.0968
      2 C           1.1933    1.6629    0.6569 C.ar    1  LIG1        0.0034
      3 C           1.7031    3.0162    0.5717 C.ar    1  LIG1        0.0763
      4 C           0.6440    3.7949    0.1992 C.ar    1  LIG1        0.1855
      5 O          -0.4579    3.0369    0.0529 O.2     1  LIG1       -0.4583
      6 H          -0.9015    1.0238    0.2536 H       1  LIG1        0.1032
      7 C           1.9961    0.4482    1.0337 C.3     1  LIG1       -0.0355
      8 H           2.4119    0.5730    2.0339 H       1  LIG1        0.0279
      9 H           2.8225    0.3182    0.3343 H       1  LIG1        0.0279
     10 H           1.3692   -0.4422    1.0152 H       1  LIG1        0.0279
     11 C           3.0494    3.4232    0.8287 C.1     1  LIG1       -0.0655
     12 C           4.1874    3.7381    1.0496 C.1     1  LIG1       -0.1138
     13 H           5.1920    4.0370    1.2387 H       1  LIG1        0.1232
     14 C           0.4997    5.2152   -0.0526 C.ar    1  LIG1        0.1760
     15 C          -0.5800    5.9638   -0.4148 C.ar    1  LIG1        0.0145
     16 C          -0.0683    7.3087   -0.5199 C.ar    1  LIG1        0.0771
     17 C           1.2615    7.2485   -0.1991 C.ar    1  LIG1        0.1866
     18 O           1.6039    5.9809    0.0804 O.2     1  LIG1       -0.4470
     19 C          -1.9959    5.5216   -0.6787 C.3     1  LIG1       -0.0348
     20 H          -2.4163    5.0450    0.2066 H       1  LIG1        0.0279
     21 H          -2.0225    4.8062   -1.5002 H       1  LIG1        0.0279
     22 H          -2.5949    6.3924   -0.9402 H       1  LIG1        0.0279
     23 C          -0.8027    8.4627   -0.9430 C.1     1  LIG1       -0.0655
     24 C          -1.4408    9.4128   -1.3109 C.1     1  LIG1       -0.1138
     25 H          -1.9985   10.2560   -1.6473 H       1  LIG1        0.1232
     26 C           2.2913    8.2724   -0.1119 C.ar    1  LIG1        0.1761
     27 C           2.2615    9.5474    0.3607 C.ar    1  LIG1        0.0145
     28 C           3.5952   10.0532    0.1355 C.ar    1  LIG1        0.0771
     29 C           4.3102    9.0291   -0.4222 C.ar    1  LIG1        0.1865
     30 O           3.5243    7.9528   -0.5771 O.2     1  LIG1       -0.4470
     31 C           1.1314   10.3010    1.0043 C.3     1  LIG1       -0.0348
     32 H           0.3611    9.6092    1.3421 H       1  LIG1        0.0279
     33 H           0.6869   10.9956    0.2905 H       1  LIG1        0.0279
     34 H           1.5162   10.8666    1.8530 H       1  LIG1        0.0279
     35 C           4.0503   11.3823    0.4070 C.1     1  LIG1       -0.0655
     36 C           4.4062   12.5071    0.6372 C.1     1  LIG1       -0.1138
     37 H           4.7251   13.5047    0.8318 H       1  LIG1        0.1232
     38 C           5.7019    8.9328   -0.8392 C.ar    1  LIG1        0.1750
     39 C           6.8486    9.4109   -0.2866 C.ar    1  LIG1        0.0138
     40 C           7.8930    9.0047   -1.2017 C.ar    1  LIG1        0.0659
     41 C           7.2805    8.3137   -2.2012 C.ar    1  LIG1        0.1083
     42 O           5.9604    8.2645   -1.9917 O.2     1  LIG1       -0.4583
     43 H           7.6577    7.8259   -3.0826 H       1  LIG1        0.1042
     44 C           7.0471   10.1565    1.0036 C.3     1  LIG1       -0.0348
     45 H           6.1784   10.0320    1.6485 H       1  LIG1        0.0279
     46 H           7.1835   11.2207    0.8074 H       1  LIG1        0.0279
     47 H           7.9370    9.7736    1.5032 H       1  LIG1        0.0279
     48 C           9.2942    9.2690   -1.0612 C.1     1  LIG1       -0.0662
     49 C          10.4646    9.5024   -0.9245 C.1     1  LIG1       -0.1138
     50 H          11.5025    9.7117   -0.8088 H       1  LIG1        0.1232
@<TRIPOS>BOND
     1    43    41    1
     2    41    42   ar
     3    41    40   ar
     4    42    38   ar
     5    25    24    1
     6    21    19    1
     7    24    23    3
     8    40    48    1
     9    40    39   ar
    10    48    49    3
    11    23    16    1
    12    22    19    1
    13    49    50    1
    14    38    29    1
    15    38    39   ar
    16    19    15    1
    17    19    20    1
    18    30    29   ar
    19    30    26   ar
    20    16    15   ar
    21    16    17   ar
    22    29    28   ar
    23    15    14   ar
    24    39    44    1
    25    17    26    1
    26    17    18   ar
    27    26    27   ar
    28    14    18   ar
    29    14     4    1
    30     5     4   ar
    31     5     1   ar
    32    28    27   ar
    33    28    35    1
    34     4     3   ar
    35     6     1    1
    36    33    31    1
    37     1     2   ar
    38     9     7    1
    39    27    31    1
    40    35    36    3
    41     3     2   ar
    42     3    11    1
    43    36    37    1
    44     2     7    1
    45    46    44    1
    46    11    12    3
    47    44    47    1
    48    44    45    1
    49    31    32    1
    50    31    34    1
    51    10     7    1
    52     7     8    1
    53    12    13    1
