@<TRIPOS>MOLECULE
mol_data/opt/m06hf/geoms/mol2/12ie12ie-12ie-12ie.out
 50 53 0 0 0
SMALL
GASTEIGER

@<TRIPOS>ATOM
      1 C          -0.0129    1.7565    0.0266 C.ar    1  LIG1        0.0968
      2 C           1.2336    1.6955    0.5437 C.ar    1  LIG1        0.0034
      3 C           1.6953    3.0679    0.5898 C.ar    1  LIG1        0.0763
      4 C           0.6736    3.8258    0.0907 C.ar    1  LIG1        0.1855
      5 O          -0.3615    3.0376   -0.2521 O.2     1  LIG1       -0.4583
      6 H          -0.7472    1.0025   -0.1968 H       1  LIG1        0.1032
      7 C           2.0177    0.4925    0.9911 C.3     1  LIG1       -0.0355
      8 H           2.2743    0.5873    2.0466 H       1  LIG1        0.0279
      9 H           2.9438    0.4194    0.4202 H       1  LIG1        0.0279
     10 H           1.4351   -0.4160    0.8447 H       1  LIG1        0.0279
     11 C           2.9684    3.5005    1.0788 C.1     1  LIG1       -0.0655
     12 C           4.0469    3.8156    1.5057 C.1     1  LIG1       -0.1138
     13 H           4.9983    4.1067    1.8872 H       1  LIG1        0.1232
     14 C           0.5161    5.2509   -0.1233 C.ar    1  LIG1        0.1760
     15 C          -0.5391    5.9971   -0.5552 C.ar    1  LIG1        0.0145
     16 C          -0.0459    7.3539   -0.5619 C.ar    1  LIG1        0.0771
     17 C           1.2484    7.3017   -0.1192 C.ar    1  LIG1        0.1866
     18 O           1.5882    6.0289    0.1424 O.2     1  LIG1       -0.4470
     19 C          -1.9152    5.5456   -0.9693 C.3     1  LIG1       -0.0348
     20 H          -2.3370    4.8771   -0.2201 H       1  LIG1        0.0279
     21 H          -1.8682    5.0130   -1.9195 H       1  LIG1        0.0279
     22 H          -2.5554    6.4194   -1.0829 H       1  LIG1        0.0279
     23 C          -0.7615    8.5108   -1.0064 C.1     1  LIG1       -0.0655
     24 C          -1.3825    9.4648   -1.3929 C.1     1  LIG1       -0.1138
     25 H          -1.9243   10.3127   -1.7428 H       1  LIG1        0.1232
     26 C           2.2614    8.3177    0.1089 C.ar    1  LIG1        0.1761
     27 C           2.2104    9.5867    0.5944 C.ar    1  LIG1        0.0145
     28 C           3.5813   10.0461    0.5873 C.ar    1  LIG1        0.0771
     29 C           4.3325    9.0042    0.1136 C.ar    1  LIG1        0.1865
     30 O           3.5400    7.9628   -0.1803 O.2     1  LIG1       -0.4470
     31 C           1.0277   10.3690    1.0935 C.3     1  LIG1       -0.0348
     32 H           0.2016    9.6988    1.3253 H       1  LIG1        0.0279
     33 H           0.6979   11.0791    0.3339 H       1  LIG1        0.0279
     34 H           1.3185   10.9201    1.9878 H       1  LIG1        0.0279
     35 C           4.0325   11.3301    1.0266 C.1     1  LIG1       -0.0655
     36 C           4.3763   12.4159    1.4085 C.1     1  LIG1       -0.1138
     37 H           4.6935   13.3755    1.7445 H       1  LIG1        0.1232
     38 C           5.7496    8.8143   -0.1196 C.ar    1  LIG1        0.1750
     39 C           6.4427    7.7540   -0.6211 C.ar    1  LIG1        0.0138
     40 C           7.8227    8.1867   -0.6007 C.ar    1  LIG1        0.0659
     41 C           7.8263    9.4496   -0.0924 C.ar    1  LIG1        0.1083
     42 O           6.5783    9.8346    0.2006 O.2     1  LIG1       -0.4583
     43 H           8.6174   10.1509    0.1046 H       1  LIG1        0.1042
     44 C           5.9293    6.4273   -1.1192 C.3     1  LIG1       -0.0348
     45 H           6.7688    5.7416   -1.2259 H       1  LIG1        0.0279
     46 H           5.4513    6.5530   -2.0917 H       1  LIG1        0.0279
     47 H           5.1939    6.0111   -0.4322 H       1  LIG1        0.0279
     48 C           8.9598    7.4296   -1.0338 C.1     1  LIG1       -0.0662
     49 C           9.9003    6.7807   -1.4050 C.1     1  LIG1       -0.1138
     50 H          10.7371    6.2114   -1.7371 H       1  LIG1        0.1232
@<TRIPOS>BOND
     1    46    44    1
     2    21    19    1
     3    25    24    1
     4    50    49    1
     5    49    48    3
     6    24    23    3
     7    45    44    1
     8    44    39    1
     9    44    47    1
    10    22    19    1
    11    48    40    1
    12    23    16    1
    13    19    15    1
    14    19    20    1
    15    39    40   ar
    16    39    38   ar
    17    40    41   ar
    18    16    15   ar
    19    16    17   ar
    20    15    14   ar
    21     5     1   ar
    22     5     4   ar
    23     6     1    1
    24    30    26   ar
    25    30    29   ar
    26    14     4    1
    27    14    18   ar
    28    38    29    1
    29    38    42   ar
    30    17    26    1
    31    17    18   ar
    32    41    43    1
    33    41    42   ar
    34     1     2   ar
    35     4     3   ar
    36    26    27   ar
    37    29    28   ar
    38    33    31    1
    39     9     7    1
    40     2     3   ar
    41     2     7    1
    42    28    27   ar
    43    28    35    1
    44     3    11    1
    45    27    31    1
    46    10     7    1
    47     7     8    1
    48    35    36    3
    49    11    12    3
    50    31    32    1
    51    31    34    1
    52    36    37    1
    53    12    13    1
