@<TRIPOS>MOLECULE
mol_data/opt/m06hf/geoms/mol2/12ie12ie12ie12ie.out
 50 53 0 0 0
SMALL
GASTEIGER

@<TRIPOS>ATOM
      1 C           1.0059    2.1235    1.9776 C.ar    1  LIG1        0.0968
      2 C           1.9978    1.9221    1.0804 C.ar    1  LIG1        0.0034
      3 C           2.0214    3.1242    0.2748 C.ar    1  LIG1        0.0763
      4 C           1.0469    3.9406    0.7774 C.ar    1  LIG1        0.1855
      5 O           0.4310    3.3353    1.8069 O.2     1  LIG1       -0.4583
      6 H           0.6071    1.5138    2.7696 H       1  LIG1        0.1032
      7 C           2.8899    0.7236    0.9056 C.3     1  LIG1       -0.0355
      8 H           3.9329    1.0089    1.0469 H       1  LIG1        0.0279
      9 H           2.7782    0.3201   -0.1011 H       1  LIG1        0.0279
     10 H           2.6309   -0.0479    1.6295 H       1  LIG1        0.0279
     11 C           2.8609    3.3653   -0.8587 C.1     1  LIG1       -0.0655
     12 C           3.5740    3.5381   -1.8109 C.1     1  LIG1       -0.1138
     13 H           4.1975    3.6912   -2.6609 H       1  LIG1        0.1232
     14 C           0.6050    5.2762    0.4023 C.ar    1  LIG1        0.1760
     15 C           1.2926    6.3798    0.0033 C.ar    1  LIG1        0.0145
     16 C           0.2761    7.3718   -0.2589 C.ar    1  LIG1        0.0771
     17 C          -0.9240    6.7848    0.0356 C.ar    1  LIG1        0.1866
     18 O          -0.7290    5.5178    0.4319 O.2     1  LIG1       -0.4470
     19 C           2.7758    6.5852   -0.1291 C.3     1  LIG1       -0.0348
     20 H           3.0347    7.5722    0.2539 H       1  LIG1        0.0279
     21 H           3.0736    6.5237   -1.1765 H       1  LIG1        0.0279
     22 H           3.3128    5.8204    0.4296 H       1  LIG1        0.0279
     23 C           0.5012    8.6908   -0.7663 C.1     1  LIG1       -0.0655
     24 C           0.7233    9.7903   -1.1984 C.1     1  LIG1       -0.1138
     25 H           0.9142   10.7624   -1.5905 H       1  LIG1        0.1232
     26 C          -2.2892    7.2888    0.0033 C.ar    1  LIG1        0.1761
     27 C          -2.8177    8.4960    0.3397 C.ar    1  LIG1        0.0145
     28 C          -4.2271    8.3727    0.0500 C.ar    1  LIG1        0.0771
     29 C          -4.4208    7.0961   -0.4030 C.ar    1  LIG1        0.1865
     30 O          -3.2509    6.4403   -0.4369 O.2     1  LIG1       -0.4470
     31 C          -2.1394    9.7086    0.9131 C.3     1  LIG1       -0.0348
     32 H          -2.7822   10.1507    1.6742 H       1  LIG1        0.0279
     33 H          -1.9604   10.4465    0.1302 H       1  LIG1        0.0279
     34 H          -1.1829    9.4317    1.3537 H       1  LIG1        0.0279
     35 C          -5.2066    9.4080    0.1793 C.1     1  LIG1       -0.0655
     36 C          -6.0061   10.2987    0.2906 C.1     1  LIG1       -0.1138
     37 H          -6.7176   11.0866    0.3797 H       1  LIG1        0.1232
     38 C          -5.6223    6.3844   -0.8147 C.ar    1  LIG1        0.1750
     39 C          -6.8885    6.3831   -0.3197 C.ar    1  LIG1        0.0138
     40 C          -7.6197    5.4855   -1.1874 C.ar    1  LIG1        0.0659
     41 C          -6.7267    5.0259   -2.1049 C.ar    1  LIG1        0.1083
     42 O          -5.5203    5.5620   -1.8896 O.2     1  LIG1       -0.4583
     43 H          -6.8210    4.3390   -2.9273 H       1  LIG1        0.1042
     44 C          -7.4452    7.0938    0.8824 C.3     1  LIG1       -0.0348
     45 H          -8.1270    6.4240    1.4066 H       1  LIG1        0.0279
     46 H          -7.9934    7.9848    0.5741 H       1  LIG1        0.0279
     47 H          -6.6391    7.3957    1.5493 H       1  LIG1        0.0279
     48 C          -9.0066    5.1432   -1.0781 C.1     1  LIG1       -0.0662
     49 C         -10.1716    4.8708   -0.9688 C.1     1  LIG1       -0.1138
     50 H         -11.2050    4.6303   -0.8768 H       1  LIG1        0.1232
@<TRIPOS>BOND
     1    43    41    1
     2    13    12    1
     3    41    42   ar
     4    41    40   ar
     5    42    38   ar
     6    12    11    3
     7    25    24    1
     8    24    23    3
     9    40    48    1
    10    40    39   ar
    11    21    19    1
    12    48    49    3
    13    49    50    1
    14    11     3    1
    15    38    29    1
    16    38    39   ar
    17    23    16    1
    18    30    29   ar
    19    30    26   ar
    20    29    28   ar
    21    39    44    1
    22    16    15   ar
    23    16    17   ar
    24    19    15    1
    25    19    20    1
    26    19    22    1
    27     9     7    1
    28    15    14   ar
    29    26    17    1
    30    26    27   ar
    31    17    18   ar
    32    28    35    1
    33    28    27   ar
    34    33    31    1
    35    35    36    3
    36     3     4   ar
    37     3     2   ar
    38    36    37    1
    39    27    31    1
    40    14    18   ar
    41    14     4    1
    42    46    44    1
    43     4     5   ar
    44    44    45    1
    45    44    47    1
    46     7     8    1
    47     7     2    1
    48     7    10    1
    49    31    34    1
    50    31    32    1
    51     2     1   ar
    52     5     1   ar
    53     1     6    1
