@<TRIPOS>MOLECULE
mol_data/opt/m06hf/geoms/mol2/12ie12ie-.out
 26 27 0 0 0
SMALL
GASTEIGER

@<TRIPOS>ATOM
      1 C           0.1808    1.8660   -0.0027 C.ar    1  LIG1        0.0968
      2 C           1.5310    1.8185   -0.0098 C.ar    1  LIG1        0.0034
      3 C           1.9614    3.2024   -0.0150 C.ar    1  LIG1        0.0763
      4 C           0.8194    3.9531   -0.0109 C.ar    1  LIG1        0.1855
      5 O          -0.2593    3.1490   -0.0033 O.2     1  LIG1       -0.4583
      6 H          -0.5760    1.1011    0.0028 H       1  LIG1        0.1032
      7 C           2.4369    0.6176   -0.0099 C.3     1  LIG1       -0.0355
      8 H           3.0633    0.6236    0.8825 H       1  LIG1        0.0279
      9 H           3.0869    0.6419   -0.8848 H       1  LIG1        0.0279
     10 H           1.8487   -0.2989   -0.0273 H       1  LIG1        0.0279
     11 C           3.3193    3.6511   -0.0218 C.1     1  LIG1       -0.0655
     12 C           4.4735    3.9855   -0.0272 C.1     1  LIG1       -0.1138
     13 H           5.4936    4.2922   -0.0314 H       1  LIG1        0.1232
     14 C           0.5649    5.3809   -0.0146 C.ar    1  LIG1        0.1750
     15 C          -0.5966    6.0909    0.0155 C.ar    1  LIG1        0.0138
     16 C          -0.1751    7.4740   -0.0116 C.ar    1  LIG1        0.0659
     17 C           1.1855    7.4633   -0.0536 C.ar    1  LIG1        0.1083
     18 O           1.6382    6.2035   -0.0559 O.2     1  LIG1       -0.4583
     19 H           1.9169    8.2509   -0.0833 H       1  LIG1        0.1042
     20 C          -2.0165    5.5889    0.0664 C.3     1  LIG1       -0.0348
     21 H          -2.1595    4.9416    0.9309 H       1  LIG1        0.0279
     22 H          -2.2510    5.0191   -0.8325 H       1  LIG1        0.0279
     23 H          -2.6902    6.4415    0.1381 H       1  LIG1        0.0279
     24 C          -1.0271    8.6260    0.0051 C.1     1  LIG1       -0.0662
     25 C          -1.7575    9.5798    0.0200 C.1     1  LIG1       -0.1138
     26 H          -2.4016   10.4284    0.0332 H       1  LIG1        0.1232
@<TRIPOS>BOND
     1     9     7    1
     2    22    20    1
     3    19    17    1
     4    18    17   ar
     5    18    14   ar
     6    17    16   ar
     7    13    12    1
     8    10     7    1
     9    12    11    3
    10    11     3    1
    11     3     4   ar
    12     3     2   ar
    13    14     4    1
    14    14    15   ar
    15    16    24    1
    16    16    15   ar
    17     4     5   ar
    18     7     2    1
    19     7     8    1
    20     2     1   ar
    21     5     1   ar
    22     1     6    1
    23    24    25    3
    24    15    20    1
    25    25    26    1
    26    20    23    1
    27    20    21    1
