@<TRIPOS>MOLECULE
mol_data/opt/m06hf/geoms/mol2/12ie12ie12ie.out
 38 40 0 0 0
SMALL
GASTEIGER

@<TRIPOS>ATOM
      1 C           0.4836    1.8617    1.1279 C.ar    1  LIG1        0.0968
      2 C           1.6646    1.7963    0.4709 C.ar    1  LIG1        0.0034
      3 C           1.8756    3.1301   -0.0500 C.ar    1  LIG1        0.0763
      4 C           0.8045    3.8747    0.3587 C.ar    1  LIG1        0.1855
      5 O          -0.0398    3.1071    1.0683 O.2     1  LIG1       -0.4583
      6 H          -0.0916    1.1270    1.6639 H       1  LIG1        0.1032
      7 C           2.5798    0.6185    0.2755 C.3     1  LIG1       -0.0355
      8 H           3.5675    0.8428    0.6791 H       1  LIG1        0.0279
      9 H           2.6861    0.4015   -0.7878 H       1  LIG1        0.0279
     10 H           2.1794   -0.2596    0.7800 H       1  LIG1        0.0279
     11 C           2.9645    3.5483   -0.8799 C.1     1  LIG1       -0.0655
     12 C           3.8878    3.8648   -1.5821 C.1     1  LIG1       -0.1138
     13 H           4.7012    4.1460   -2.2105 H       1  LIG1        0.1232
     14 C           0.4583    5.2761    0.1704 C.ar    1  LIG1        0.1760
     15 C           1.2152    6.4056    0.1700 C.ar    1  LIG1        0.0145
     16 C           0.2816    7.4738   -0.1015 C.ar    1  LIG1        0.0771
     17 C          -0.9529    6.8934   -0.2077 C.ar    1  LIG1        0.1865
     18 O          -0.8485    5.5648   -0.0471 O.2     1  LIG1       -0.4470
     19 C           2.6893    6.5653    0.4179 C.3     1  LIG1       -0.0348
     20 H           2.8536    7.4461    1.0388 H       1  LIG1        0.0279
     21 H           3.2188    6.6954   -0.5264 H       1  LIG1        0.0279
     22 H           3.0838    5.6817    0.9173 H       1  LIG1        0.0279
     23 C           0.6126    8.8572   -0.2617 C.1     1  LIG1       -0.0655
     24 C           0.9269   10.0097   -0.3968 C.1     1  LIG1       -0.1138
     25 H           1.2065   11.0296   -0.5274 H       1  LIG1        0.1232
     26 C          -2.2766    7.4537   -0.4348 C.ar    1  LIG1        0.1750
     27 C          -2.8724    8.5873    0.0225 C.ar    1  LIG1        0.0138
     28 C          -4.1890    8.5764   -0.5775 C.ar    1  LIG1        0.0659
     29 C          -4.2629    7.4396   -1.3209 C.ar    1  LIG1        0.1083
     30 O          -3.1156    6.7559   -1.2420 O.2     1  LIG1       -0.4583
     31 H          -5.0469    7.0189   -1.9253 H       1  LIG1        0.1042
     32 C          -2.3471    9.6213    0.9788 C.3     1  LIG1       -0.0348
     33 H          -3.1465    9.9166    1.6584 H       1  LIG1        0.0279
     34 H          -2.0035   10.5014    0.4343 H       1  LIG1        0.0279
     35 H          -1.5102    9.2179    1.5471 H       1  LIG1        0.0279
     36 C          -5.2147    9.5601   -0.3957 C.1     1  LIG1       -0.0662
     37 C          -6.0632   10.3939   -0.2279 C.1     1  LIG1       -0.1138
     38 H          -6.8195   11.1294   -0.0806 H       1  LIG1        0.1232
@<TRIPOS>BOND
     1    13    12    1
     2    31    29    1
     3    12    11    3
     4    29    30   ar
     5    29    28   ar
     6    30    26   ar
     7    11     3    1
     8     9     7    1
     9    28    36    1
    10    28    27   ar
    11    25    24    1
    12    21    19    1
    13    26    17    1
    14    26    27   ar
    15    24    23    3
    16    36    37    3
    17    23    16    1
    18    37    38    1
    19    17    16   ar
    20    17    18   ar
    21    16    15   ar
    22     3     4   ar
    23     3     2   ar
    24    18    14   ar
    25    27    32    1
    26    15    14   ar
    27    15    19    1
    28    14     4    1
    29     7     2    1
    30     7     8    1
    31     7    10    1
    32     4     5   ar
    33    19    22    1
    34    19    20    1
    35    34    32    1
    36     2     1   ar
    37    32    35    1
    38    32    33    1
    39     5     1   ar
    40     1     6    1
