@<TRIPOS>MOLECULE
mol_data/opt/m06hf/geoms/mol2/12ie12ie12ie12ie-.out
 50 53 0 0 0
SMALL
GASTEIGER

@<TRIPOS>ATOM
      1 C           1.0644    2.1483    1.9787 C.ar    1  LIG1        0.0968
      2 C           2.0123    1.9444    1.0350 C.ar    1  LIG1        0.0034
      3 C           2.0104    3.1523    0.2378 C.ar    1  LIG1        0.0763
      4 C           1.0681    3.9745    0.7903 C.ar    1  LIG1        0.1855
      5 O           0.4943    3.3669    1.8427 O.2     1  LIG1       -0.4583
      6 H           0.6966    1.5372    2.7845 H       1  LIG1        0.1032
      7 C           2.8822    0.7383    0.8082 C.3     1  LIG1       -0.0355
      8 H           3.9335    1.0096    0.9080 H       1  LIG1        0.0279
      9 H           2.7227    0.3493   -0.1978 H       1  LIG1        0.0279
     10 H           2.6451   -0.0398    1.5326 H       1  LIG1        0.0279
     11 C           2.7971    3.3908   -0.9337 C.1     1  LIG1       -0.0655
     12 C           3.4650    3.5568   -1.9193 C.1     1  LIG1       -0.1138
     13 H           4.0484    3.7037   -2.7983 H       1  LIG1        0.1232
     14 C           0.6199    5.3151    0.4433 C.ar    1  LIG1        0.1760
     15 C           1.2944    6.4146    0.0133 C.ar    1  LIG1        0.0145
     16 C           0.2735    7.4140   -0.2010 C.ar    1  LIG1        0.0771
     17 C          -0.9155    6.8356    0.1505 C.ar    1  LIG1        0.1866
     18 O          -0.7107    5.5655    0.5355 O.2     1  LIG1       -0.4470
     19 C           2.7709    6.6111   -0.1882 C.3     1  LIG1       -0.0348
     20 H           3.0539    7.5946    0.1870 H       1  LIG1        0.0279
     21 H           3.0185    6.5531   -1.2487 H       1  LIG1        0.0279
     22 H           3.3286    5.8402    0.3412 H       1  LIG1        0.0279
     23 C           0.4862    8.7287   -0.7249 C.1     1  LIG1       -0.0655
     24 C           0.6988    9.8239   -1.1734 C.1     1  LIG1       -0.1138
     25 H           0.8806   10.7926   -1.5791 H       1  LIG1        0.1232
     26 C          -2.2793    7.3371    0.1831 C.ar    1  LIG1        0.1761
     27 C          -2.8092    8.5502    0.4927 C.ar    1  LIG1        0.0145
     28 C          -4.2359    8.3897    0.3244 C.ar    1  LIG1        0.0771
     29 C          -4.4349    7.0892   -0.0539 C.ar    1  LIG1        0.1865
     30 O          -3.2579    6.4529   -0.1443 O.2     1  LIG1       -0.4470
     31 C          -2.1217    9.7992    0.9692 C.3     1  LIG1       -0.0348
     32 H          -2.7423   10.2769    1.7272 H       1  LIG1        0.0279
     33 H          -1.9808   10.4928    0.1394 H       1  LIG1        0.0279
     34 H          -1.1462    9.5571    1.3881 H       1  LIG1        0.0279
     35 C          -5.2183    9.4025    0.5588 C.1     1  LIG1       -0.0655
     36 C          -6.0137   10.2777    0.7713 C.1     1  LIG1       -0.1138
     37 H          -6.7300   11.0441    0.9556 H       1  LIG1        0.1232
     38 C          -5.6290    6.3197   -0.3490 C.ar    1  LIG1        0.1750
     39 C          -5.8374    4.9933   -0.5773 C.ar    1  LIG1        0.0138
     40 C          -7.2628    4.8838   -0.7979 C.ar    1  LIG1        0.0659
     41 C          -7.7710    6.1406   -0.6789 C.ar    1  LIG1        0.1083
     42 O          -6.7916    7.0119   -0.4096 O.2     1  LIG1       -0.4583
     43 H          -8.7692    6.5326   -0.7607 H       1  LIG1        0.1042
     44 C          -4.8622    3.8467   -0.6097 C.3     1  LIG1       -0.0348
     45 H          -3.9058    4.1376   -0.1823 H       1  LIG1        0.0279
     46 H          -4.7101    3.5240   -1.6410 H       1  LIG1        0.0279
     47 H          -5.2791    3.0095   -0.0493 H       1  LIG1        0.0279
     48 C          -7.9849    3.6777   -1.0758 C.1     1  LIG1       -0.0662
     49 C          -8.5705    2.6538   -1.3040 C.1     1  LIG1       -0.1138
     50 H          -9.0942    1.7489   -1.5080 H       1  LIG1        0.1232
@<TRIPOS>BOND
     1    13    12    1
     2    12    11    3
     3    46    44    1
     4    25    24    1
     5    50    49    1
     6    49    48    3
     7    21    19    1
     8    24    23    3
     9    48    40    1
    10    11     3    1
    11    40    41   ar
    12    40    39   ar
    13    43    41    1
    14    23    16    1
    15    41    42   ar
    16    44    39    1
    17    44    45    1
    18    44    47    1
    19    39    38   ar
    20    42    38   ar
    21    38    29    1
    22    16    15   ar
    23    16    17   ar
    24     9     7    1
    25    19    15    1
    26    19    20    1
    27    19    22    1
    28    30    29   ar
    29    30    26   ar
    30    29    28   ar
    31    15    14   ar
    32    33    31    1
    33    17    26    1
    34    17    18   ar
    35    26    27   ar
    36     3     4   ar
    37     3     2   ar
    38    28    27   ar
    39    28    35    1
    40    14    18   ar
    41    14     4    1
    42    27    31    1
    43    35    36    3
    44    36    37    1
    45     4     5   ar
    46     7     8    1
    47     7     2    1
    48     7    10    1
    49    31    34    1
    50    31    32    1
    51     2     1   ar
    52     5     1   ar
    53     1     6    1
