@<TRIPOS>MOLECULE
mol_data/opt/m06hf/geoms/mol2/12ie12ie12ie-12ie-.out
 50 53 0 0 0
SMALL
GASTEIGER

@<TRIPOS>ATOM
      1 C           0.4567    1.6964    0.6443 C.ar    1  LIG1        0.0968
      2 C           1.6872    1.7353    0.0849 C.ar    1  LIG1        0.0034
      3 C           1.9415    3.1391   -0.1616 C.ar    1  LIG1        0.0763
      4 C           0.8422    3.8128    0.2912 C.ar    1  LIG1        0.1855
      5 O          -0.0596    2.9405    0.7760 O.2     1  LIG1       -0.4583
      6 H          -0.1600    0.8851    0.9890 H       1  LIG1        0.1032
      7 C           2.6162    0.6003   -0.2484 C.3     1  LIG1       -0.0355
      8 H           3.5578    0.7193    0.2885 H       1  LIG1        0.0279
      9 H           2.8306    0.5961   -1.3176 H       1  LIG1        0.0279
     10 H           2.1656   -0.3516    0.0290 H       1  LIG1        0.0279
     11 C           3.0944    3.6816   -0.8127 C.1     1  LIG1       -0.0655
     12 C           4.0726    4.1038   -1.3695 C.1     1  LIG1       -0.1138
     13 H           4.9357    4.4826   -1.8661 H       1  LIG1        0.1232
     14 C           0.5040    5.2267    0.3321 C.ar    1  LIG1        0.1760
     15 C           1.2421    6.3453    0.5586 C.ar    1  LIG1        0.0145
     16 C           0.3063    7.4415    0.4457 C.ar    1  LIG1        0.0771
     17 C          -0.9125    6.8803    0.1785 C.ar    1  LIG1        0.1866
     18 O          -0.7970    5.5450    0.1040 O.2     1  LIG1       -0.4470
     19 C           2.6993    6.4712    0.9057 C.3     1  LIG1       -0.0348
     20 H           2.8204    7.2617    1.6462 H       1  LIG1        0.0279
     21 H           3.2782    6.7270    0.0175 H       1  LIG1        0.0279
     22 H           3.0738    5.5298    1.3046 H       1  LIG1        0.0279
     23 C           0.6190    8.8252    0.6251 C.1     1  LIG1       -0.0655
     24 C           0.9149    9.9781    0.7856 C.1     1  LIG1       -0.1138
     25 H           1.1635   11.0044    0.9237 H       1  LIG1        0.1232
     26 C          -2.2337    7.4438   -0.0256 C.ar    1  LIG1        0.1761
     27 C          -3.4691    6.8783   -0.1294 C.ar    1  LIG1        0.0145
     28 C          -4.3612    7.9921   -0.3472 C.ar    1  LIG1        0.0771
     29 C          -3.5889    9.1210   -0.3372 C.ar    1  LIG1        0.1865
     30 O          -2.3022    8.7900   -0.1461 O.2     1  LIG1       -0.4470
     31 C          -3.8894    5.4342   -0.0615 C.3     1  LIG1       -0.0348
     32 H          -3.0490    4.7998    0.2080 H       1  LIG1        0.0279
     33 H          -4.2812    5.1243   -1.0315 H       1  LIG1        0.0279
     34 H          -4.6845    5.3267    0.6771 H       1  LIG1        0.0279
     35 C          -5.7693    7.9016   -0.5854 C.1     1  LIG1       -0.0655
     36 C          -6.9485    7.7915   -0.7895 C.1     1  LIG1       -0.1138
     37 H          -7.9922    7.6938   -0.9791 H       1  LIG1        0.1232
     38 C          -3.9188   10.5304   -0.4844 C.ar    1  LIG1        0.1750
     39 C          -4.9653   11.2693   -0.0279 C.ar    1  LIG1        0.0138
     40 C          -4.7212   12.6018   -0.5356 C.ar    1  LIG1        0.0659
     41 C          -3.5535   12.5399   -1.2310 C.ar    1  LIG1        0.1083
     42 O          -3.0622   11.2959   -1.2067 O.2     1  LIG1       -0.4583
     43 H          -2.9875   13.2832   -1.7638 H       1  LIG1        0.1042
     44 C          -6.1149   10.8557    0.8482 C.3     1  LIG1       -0.0348
     45 H          -5.8805    9.9256    1.3635 H       1  LIG1        0.0279
     46 H          -7.0114   10.7022    0.2464 H       1  LIG1        0.0279
     47 H          -6.3096   11.6427    1.5768 H       1  LIG1        0.0279
     48 C          -5.5395   13.7580   -0.3196 C.1     1  LIG1       -0.0662
     49 C          -6.2366   14.7169   -0.1251 C.1     1  LIG1       -0.1138
     50 H          -6.8503   15.5707    0.0456 H       1  LIG1        0.1232
@<TRIPOS>BOND
     1    13    12    1
     2    43    41    1
     3    12    11    3
     4     9     7    1
     5    41    42   ar
     6    41    40   ar
     7    42    38   ar
     8    33    31    1
     9    37    36    1
    10    11     3    1
    11    36    35    3
    12    35    28    1
    13    40    48    1
    14    40    39   ar
    15    38    29    1
    16    38    39   ar
    17    28    29   ar
    18    28    27   ar
    19    29    30   ar
    20    48    49    3
    21     7    10    1
    22     7     2    1
    23     7     8    1
    24     3     2   ar
    25     3     4   ar
    26    30    26   ar
    27    27    31    1
    28    27    26   ar
    29    49    50    1
    30    31    32    1
    31    31    34    1
    32    39    44    1
    33    26    17    1
    34    21    19    1
    35     2     1   ar
    36    18    17   ar
    37    18    14   ar
    38    17    16   ar
    39    46    44    1
    40     4    14    1
    41     4     5   ar
    42    14    15   ar
    43    16    15   ar
    44    16    23    1
    45    15    19    1
    46    23    24    3
    47     1     5   ar
    48     1     6    1
    49    24    25    1
    50    44    45    1
    51    44    47    1
    52    19    22    1
    53    19    20    1
