@<TRIPOS>MOLECULE
mol_data/opt/m06hf/geoms/mol2/12ie12ie.out
 26 27 0 0 0
SMALL
GASTEIGER

@<TRIPOS>ATOM
      1 C           0.2208    1.8529    0.5376 C.ar    1  LIG1        0.0968
      2 C           1.5228    1.8203    0.1744 C.ar    1  LIG1        0.0034
      3 C           1.8489    3.1889   -0.1679 C.ar    1  LIG1        0.0763
      4 C           0.7107    3.9164    0.0362 C.ar    1  LIG1        0.1855
      5 O          -0.2762    3.1090    0.4618 O.2     1  LIG1       -0.4583
      6 H          -0.4632    1.0879    0.8615 H       1  LIG1        0.1032
      7 C           2.4609    0.6464    0.1067 C.3     1  LIG1       -0.0355
      8 H           3.3105    0.8088    0.7708 H       1  LIG1        0.0279
      9 H           2.8385    0.5287   -0.9093 H       1  LIG1        0.0279
     10 H           1.9464   -0.2665    0.4037 H       1  LIG1        0.0279
     11 C           3.1016    3.6542   -0.6802 C.1     1  LIG1       -0.0655
     12 C           4.1627    4.0123   -1.1170 C.1     1  LIG1       -0.1138
     13 H           5.0982    4.3330   -1.5128 H       1  LIG1        0.1232
     14 C           0.4199    5.3358   -0.1118 C.ar    1  LIG1        0.1750
     15 C           1.1510    6.4467    0.1703 C.ar    1  LIG1        0.0138
     16 C           0.3046    7.5526   -0.2236 C.ar    1  LIG1        0.0659
     17 C          -0.8515    7.0053   -0.6871 C.ar    1  LIG1        0.1083
     18 O          -0.7915    5.6700   -0.6256 O.2     1  LIG1       -0.4583
     19 H          -1.7571    7.4408   -1.0706 H       1  LIG1        0.1042
     20 C           2.5140    6.5562    0.7951 C.3     1  LIG1       -0.0348
     21 H           2.5202    7.3931    1.4934 H       1  LIG1        0.0279
     22 H           3.2691    6.7310    0.0278 H       1  LIG1        0.0279
     23 H           2.7621    5.6353    1.3209 H       1  LIG1        0.0279
     24 C           0.6220    8.9462   -0.1161 C.1     1  LIG1       -0.0662
     25 C           0.9064   10.1094   -0.0141 C.1     1  LIG1       -0.1138
     26 H           1.1548   11.1418    0.0749 H       1  LIG1        0.1232
@<TRIPOS>BOND
     1    13    12    1
     2    12    11    3
     3    19    17    1
     4     9     7    1
     5    17    18   ar
     6    17    16   ar
     7    11     3    1
     8    18    14   ar
     9    16    24    1
    10    16    15   ar
    11     3     4   ar
    12     3     2   ar
    13    24    25    3
    14    14     4    1
    15    14    15   ar
    16    25    26    1
    17    22    20    1
    18     4     5   ar
    19     7     2    1
    20     7    10    1
    21     7     8    1
    22    15    20    1
    23     2     1   ar
    24     5     1   ar
    25     1     6    1
    26    20    23    1
    27    20    21    1
