@<TRIPOS>MOLECULE
mol_data/opt/m06hf/geoms/mol2/12ie12ie-12ie12ie-.out
 50 53 0 0 0
SMALL
GASTEIGER

@<TRIPOS>ATOM
      1 C           0.2052    1.7259    0.0677 C.ar    1  LIG1        0.0968
      2 C           1.5075    1.7312   -0.2908 C.ar    1  LIG1        0.0034
      3 C           1.8859    3.1294   -0.3292 C.ar    1  LIG1        0.0763
      4 C           0.7666    3.8353    0.0148 C.ar    1  LIG1        0.1855
      5 O          -0.2503    2.9892    0.2582 O.2     1  LIG1       -0.4583
      6 H          -0.5056    0.9339    0.2256 H       1  LIG1        0.1032
      7 C           2.4126    0.5700   -0.5982 C.3     1  LIG1       -0.0355
      8 H           3.2467    0.5519    0.1040 H       1  LIG1        0.0279
      9 H           2.8162    0.6712   -1.6058 H       1  LIG1        0.0279
     10 H           1.8637   -0.3678   -0.5251 H       1  LIG1        0.0279
     11 C           3.1792    3.6248   -0.6852 C.1     1  LIG1       -0.0655
     12 C           4.2818    3.9850   -1.0005 C.1     1  LIG1       -0.1138
     13 H           5.2542    4.3149   -1.2837 H       1  LIG1        0.1232
     14 C           0.5039    5.2558    0.1578 C.ar    1  LIG1        0.1760
     15 C          -0.6395    5.9766    0.3158 C.ar    1  LIG1        0.0145
     16 C          -0.2052    7.3516    0.3986 C.ar    1  LIG1        0.0771
     17 C           1.1577    7.3363    0.2776 C.ar    1  LIG1        0.1866
     18 O           1.5876    6.0721    0.1306 O.2     1  LIG1       -0.4470
     19 C          -2.0724    5.5247    0.3963 C.3     1  LIG1       -0.0348
     20 H          -2.4681    5.7444    1.3889 H       1  LIG1        0.0279
     21 H          -2.1497    4.4584    0.2038 H       1  LIG1        0.0279
     22 H          -2.6637    6.0764   -0.3354 H       1  LIG1        0.0279
     23 C          -1.0691    8.4745    0.5957 C.1     1  LIG1       -0.0655
     24 C          -1.8389    9.3814    0.7719 C.1     1  LIG1       -0.1138
     25 H          -2.5124   10.1912    0.9352 H       1  LIG1        0.1232
     26 C           2.1551    8.3878    0.2893 C.ar    1  LIG1        0.1761
     27 C           3.5090    8.3792    0.4262 C.ar    1  LIG1        0.0145
     28 C           3.8989    9.7679    0.3596 C.ar    1  LIG1        0.0771
     29 C           2.7465   10.4868    0.1925 C.ar    1  LIG1        0.1865
     30 O           1.6918    9.6566    0.1517 O.2     1  LIG1       -0.4470
     31 C           4.4557    7.2271    0.6242 C.3     1  LIG1       -0.0348
     32 H           4.9931    7.3619    1.5638 H       1  LIG1        0.0279
     33 H           5.1866    7.2207   -0.1867 H       1  LIG1        0.0279
     34 H           3.9200    6.2813    0.6342 H       1  LIG1        0.0279
     35 C           5.2430   10.2502    0.4474 C.1     1  LIG1       -0.0655
     36 C           6.3874   10.6081    0.5234 C.1     1  LIG1       -0.1138
     37 H           7.3982   10.9374    0.5907 H       1  LIG1        0.1232
     38 C           2.4926   11.9086    0.0503 C.ar    1  LIG1        0.1750
     39 C           1.3879   12.6250   -0.2984 C.ar    1  LIG1        0.0138
     40 C           1.8227   14.0040   -0.2591 C.ar    1  LIG1        0.0659
     41 C           3.1337   13.9867    0.1034 C.ar    1  LIG1        0.1083
     42 O           3.5445   12.7276    0.2937 O.2     1  LIG1       -0.4583
     43 H           3.8557   14.7690    0.2566 H       1  LIG1        0.1042
     44 C           0.0061   12.1614   -0.6702 C.3     1  LIG1       -0.0348
     45 H          -0.0596   11.0765   -0.6451 H       1  LIG1        0.0279
     46 H          -0.2394   12.5257   -1.6686 H       1  LIG1        0.0279
     47 H          -0.7163   12.5830    0.0314 H       1  LIG1        0.0279
     48 C           1.0180   15.1520   -0.5552 C.1     1  LIG1       -0.0662
     49 C           0.3260   16.1002   -0.8105 C.1     1  LIG1       -0.1138
     50 H          -0.2837   16.9435   -1.0381 H       1  LIG1        0.1232
@<TRIPOS>BOND
     1    46    44    1
     2     9     7    1
     3    13    12    1
     4    50    49    1
     5    12    11    3
     6    49    48    3
     7    11     3    1
     8    44    45    1
     9    44    39    1
    10    44    47    1
    11     7    10    1
    12     7     2    1
    13     7     8    1
    14    48    40    1
    15    22    19    1
    16     3     2   ar
    17     3     4   ar
    18    39    40   ar
    19    39    38   ar
    20     2     1   ar
    21    40    41   ar
    22    33    31    1
    23     4    14    1
    24     4     5   ar
    25    38    29    1
    26    38    42   ar
    27     1     6    1
    28     1     5   ar
    29    41    43    1
    30    41    42   ar
    31    18    14   ar
    32    18    17   ar
    33    30    29   ar
    34    30    26   ar
    35    14    15   ar
    36    29    28   ar
    37    21    19    1
    38    17    26    1
    39    17    16   ar
    40    26    27   ar
    41    15    19    1
    42    15    16   ar
    43    28    27   ar
    44    28    35    1
    45    19    20    1
    46    16    23    1
    47    27    31    1
    48    35    36    3
    49    36    37    1
    50    23    24    3
    51    31    34    1
    52    31    32    1
    53    24    25    1
