@<TRIPOS>MOLECULE
mol_data/opt/m06hf/geoms/mol2/12ie12ie-12ie12ie.out
 50 53 0 0 0
SMALL
GASTEIGER

@<TRIPOS>ATOM
      1 C           0.1426    1.7596    0.1920 C.ar    1  LIG1        0.0968
      2 C           1.4892    1.7163    0.2910 C.ar    1  LIG1        0.0034
      3 C           1.9190    3.0991    0.2450 C.ar    1  LIG1        0.0763
      4 C           0.7811    3.8460    0.1196 C.ar    1  LIG1        0.1855
      5 O          -0.2952    3.0390    0.0872 O.2     1  LIG1       -0.4583
      6 H          -0.6130    0.9937    0.1807 H       1  LIG1        0.1032
      7 C           2.3930    0.5216    0.4258 C.3     1  LIG1       -0.0355
      8 H           2.9678    0.5933    1.3494 H       1  LIG1        0.0279
      9 H           3.0916    0.4875   -0.4108 H       1  LIG1        0.0279
     10 H           1.8068   -0.3962    0.4396 H       1  LIG1        0.0279
     11 C           3.2756    3.5424    0.3382 C.1     1  LIG1       -0.0655
     12 C           4.4339    3.8526    0.4299 C.1     1  LIG1       -0.1138
     13 H           5.4575    4.1369    0.5151 H       1  LIG1        0.1232
     14 C           0.5282    5.2693    0.0214 C.ar    1  LIG1        0.1760
     15 C          -0.6299    5.9854    0.0204 C.ar    1  LIG1        0.0145
     16 C          -0.2147    7.3620   -0.1074 C.ar    1  LIG1        0.0771
     17 C           1.1532    7.3495   -0.1681 C.ar    1  LIG1        0.1866
     18 O           1.6043    6.0861   -0.0884 O.2     1  LIG1       -0.4470
     19 C          -2.0519    5.4986    0.1173 C.3     1  LIG1       -0.0348
     20 H          -2.1405    4.7315    0.8846 H       1  LIG1        0.0279
     21 H          -2.3710    5.0741   -0.8352 H       1  LIG1        0.0279
     22 H          -2.6962    6.3415    0.3631 H       1  LIG1        0.0279
     23 C          -1.0872    8.4941   -0.1604 C.1     1  LIG1       -0.0655
     24 C          -1.8472    9.4233   -0.2006 C.1     1  LIG1       -0.1138
     25 H          -2.5066   10.2590   -0.2378 H       1  LIG1        0.1232
     26 C           2.1317    8.4124   -0.2980 C.ar    1  LIG1        0.1761
     27 C           3.4768    8.4156   -0.5150 C.ar    1  LIG1        0.0145
     28 C           3.8353    9.8134   -0.5613 C.ar    1  LIG1        0.0771
     29 C           2.6820   10.5208   -0.3573 C.ar    1  LIG1        0.1865
     30 O           1.6526    9.6745   -0.1998 O.2     1  LIG1       -0.4470
     31 C           4.4303    7.2686   -0.7094 C.3     1  LIG1       -0.0348
     32 H           5.1456    7.2476    0.1152 H       1  LIG1        0.0279
     33 H           4.9831    7.4164   -1.6379 H       1  LIG1        0.0279
     34 H           3.8948    6.3232   -0.7431 H       1  LIG1        0.0279
     35 C           5.1393   10.3317   -0.8421 C.1     1  LIG1       -0.0655
     36 C           6.2441   10.7354   -1.0897 C.1     1  LIG1       -0.1138
     37 H           7.2212   11.0941   -1.3168 H       1  LIG1        0.1232
     38 C           2.4099   11.9479   -0.2774 C.ar    1  LIG1        0.1750
     39 C           3.1103   12.9765    0.2710 C.ar    1  LIG1        0.0138
     40 C           2.3051   14.1492    0.0071 C.ar    1  LIG1        0.0659
     41 C           1.2001   13.7153   -0.6572 C.ar    1  LIG1        0.1083
     42 O           1.2537   12.3903   -0.8338 O.2     1  LIG1       -0.4583
     43 H           0.3373   14.2296   -1.0422 H       1  LIG1        0.1042
     44 C           4.4047   12.9500    1.0350 C.3     1  LIG1       -0.0348
     45 H           4.3401   13.6503    1.8680 H       1  LIG1        0.0279
     46 H           5.2324   13.2452    0.3891 H       1  LIG1        0.0279
     47 H           4.5996   11.9474    1.4122 H       1  LIG1        0.0279
     48 C           2.6124   15.4938    0.3961 C.1     1  LIG1       -0.0662
     49 C           2.8922   16.6118    0.7354 C.1     1  LIG1       -0.1138
     50 H           3.1392   17.6037    1.0351 H       1  LIG1        0.1232
@<TRIPOS>BOND
     1    33    31    1
     2    37    36    1
     3    36    35    3
     4    43    41    1
     5    35    28    1
     6    21    19    1
     7    42    41   ar
     8    42    38   ar
     9    34    31    1
    10    31    27    1
    11    31    32    1
    12    41    40   ar
    13    28    27   ar
    14    28    29   ar
    15    27    26   ar
    16     9     7    1
    17    29    38    1
    18    29    30   ar
    19    26    30   ar
    20    26    17    1
    21    38    39   ar
    22    25    24    1
    23    24    23    3
    24    17    16   ar
    25    17    18   ar
    26    23    16    1
    27    16    15   ar
    28    18    14   ar
    29    40    39   ar
    30    40    48    1
    31    15    14   ar
    32    15    19    1
    33    14     4    1
    34     5     4   ar
    35     5     1   ar
    36    19    22    1
    37    19    20    1
    38     4     3   ar
    39     6     1    1
    40     1     2   ar
    41     3     2   ar
    42     3    11    1
    43    39    44    1
    44     2     7    1
    45    11    12    3
    46    46    44    1
    47    48    49    3
    48     7    10    1
    49     7     8    1
    50    12    13    1
    51    49    50    1
    52    44    47    1
    53    44    45    1
