@<TRIPOS>MOLECULE
mol_data/opt/m06hf/geoms/mol2/12if12if12if12if-.out
 46 49 0 0 0
SMALL
GASTEIGER

@<TRIPOS>ATOM
      1 C           1.6255    2.1096    1.8582 C.ar    1  LIG1        0.0993
      2 C           2.3525    1.9361    0.7259 C.ar    1  LIG1        0.0295
      3 C           2.0730    3.1078   -0.0576 C.ar    1  LIG1        0.1687
      4 C           1.2214    3.8851    0.6646 C.ar    1  LIG1        0.2114
      5 O           0.9417    3.2700    1.8416 O.2     1  LIG1       -0.4557
      6 H           1.5068    1.4986    2.7366 H       1  LIG1        0.1033
      7 C           3.2470    0.7963    0.3197 C.3     1  LIG1       -0.0332
      8 H           4.2722    1.1471    0.1983 H       1  LIG1        0.0280
      9 H           2.9129    0.3825   -0.6318 H       1  LIG1        0.0280
     10 H           3.2271    0.0126    1.0759 H       1  LIG1        0.0280
     11 O           2.5827    3.3252   -1.2947 O.3     1  LIG1       -0.5030
     12 H           2.1210    4.0689   -1.7030 H       1  LIG1        0.2923
     13 C           0.6365    5.1741    0.3349 C.ar    1  LIG1        0.1809
     14 C           1.2072    6.2686   -0.2494 C.ar    1  LIG1        0.0407
     15 C           0.1211    7.1911   -0.4164 C.ar    1  LIG1        0.1694
     16 C          -0.9933    6.6039    0.0993 C.ar    1  LIG1        0.2125
     17 O          -0.6842    5.3601    0.5463 O.2     1  LIG1       -0.4444
     18 C           2.6500    6.5253   -0.5978 C.3     1  LIG1       -0.0325
     19 H           2.9625    7.4719   -0.1570 H       1  LIG1        0.0280
     20 H           2.7824    6.6007   -1.6789 H       1  LIG1        0.0280
     21 H           3.2793    5.7242   -0.2111 H       1  LIG1        0.0280
     22 O           0.2543    8.4117   -0.9881 O.3     1  LIG1       -0.5029
     23 H          -0.6209    8.7862   -1.1542 H       1  LIG1        0.2923
     24 C          -2.3444    7.1223    0.2102 C.ar    1  LIG1        0.1809
     25 C          -2.7860    8.3708    0.5395 C.ar    1  LIG1        0.0407
     26 C          -4.2127    8.3055    0.3897 C.ar    1  LIG1        0.1694
     27 C          -4.5154    7.0341    0.0050 C.ar    1  LIG1        0.2124
     28 O          -3.3766    6.3087   -0.1163 O.2     1  LIG1       -0.4444
     29 C          -2.0110    9.5608    1.0413 C.3     1  LIG1       -0.0325
     30 H          -2.4889    9.9386    1.9451 H       1  LIG1        0.0280
     31 H          -2.0103   10.3658    0.3037 H       1  LIG1        0.0280
     32 H          -0.9841    9.2756    1.2685 H       1  LIG1        0.0280
     33 O          -5.0377    9.3473    0.6294 O.3     1  LIG1       -0.5029
     34 H          -5.9508    9.0700    0.4741 H       1  LIG1        0.2923
     35 C          -5.8027    6.4228   -0.2497 C.ar    1  LIG1        0.1799
     36 C          -6.2144    5.1727   -0.5854 C.ar    1  LIG1        0.0399
     37 C          -7.6536    5.2792   -0.6714 C.ar    1  LIG1        0.1581
     38 C          -7.9924    6.5554   -0.3871 C.ar    1  LIG1        0.1343
     39 O          -6.8572    7.2669   -0.1248 O.2     1  LIG1       -0.4557
     40 H          -8.9310    7.0731   -0.3309 H       1  LIG1        0.1068
     41 C          -5.4018    3.9242   -0.8136 C.3     1  LIG1       -0.0325
     42 H          -4.3459    4.1313   -0.6550 H       1  LIG1        0.0280
     43 H          -5.5353    3.5615   -1.8356 H       1  LIG1        0.0280
     44 H          -5.7103    3.1401   -0.1183 H       1  LIG1        0.0280
     45 O          -8.5211    4.2797   -0.9747 O.3     1  LIG1       -0.5034
     46 H          -8.0351    3.4832   -1.2116 H       1  LIG1        0.2923
@<TRIPOS>BOND
     1    43    41    1
     2    12    11    1
     3    20    18    1
     4    11     3    1
     5    46    45    1
     6    23    22    1
     7    22    15    1
     8    45    37    1
     9    41    42    1
    10    41    36    1
    11    41    44    1
    12    37    36   ar
    13    37    38   ar
    14     9     7    1
    15    18    14    1
    16    18    21    1
    17    18    19    1
    18    36    35   ar
    19    15    14   ar
    20    15    16   ar
    21    38    40    1
    22    38    39   ar
    23    35    39   ar
    24    35    27    1
    25    14    13   ar
    26    28    27   ar
    27    28    24   ar
    28     3     4   ar
    29     3     2   ar
    30    27    26   ar
    31    16    24    1
    32    16    17   ar
    33     8     7    1
    34    24    25   ar
    35    31    29    1
    36     7     2    1
    37     7    10    1
    38    13    17   ar
    39    13     4    1
    40    26    25   ar
    41    26    33    1
    42    34    33    1
    43    25    29    1
    44     4     5   ar
    45     2     1   ar
    46    29    32    1
    47    29    30    1
    48     5     1   ar
    49     1     6    1
