@<TRIPOS>MOLECULE
mol_data/opt/m06hf/geoms/mol2/12if12if-12if.out
 35 37 0 0 0
SMALL
GASTEIGER

@<TRIPOS>ATOM
      1 C           0.2409    1.7745    0.1211 C.ar    1  LIG1        0.0993
      2 C           1.5844    1.8482   -0.0353 C.ar    1  LIG1        0.0295
      3 C           1.8653    3.2570   -0.1213 C.ar    1  LIG1        0.1687
      4 C           0.6737    3.9071   -0.0090 C.ar    1  LIG1        0.2114
      5 O          -0.3269    3.0019    0.1394 O.2     1  LIG1       -0.4557
      6 H          -0.4286    0.9390    0.2301 H       1  LIG1        0.1033
      7 C           2.6084    0.7483   -0.1105 C.3     1  LIG1       -0.0332
      8 H           3.3468    0.8737    0.6816 H       1  LIG1        0.0280
      9 H           3.1259    0.7865   -1.0691 H       1  LIG1        0.0280
     10 H           2.1286   -0.2234   -0.0011 H       1  LIG1        0.0280
     11 O           3.1072    3.7623   -0.2852 O.3     1  LIG1       -0.5030
     12 H           3.0545    4.7246   -0.3598 H       1  LIG1        0.2923
     13 C           0.3923    5.3256   -0.0151 C.ar    1  LIG1        0.1809
     14 C          -0.7347    6.0842    0.0265 C.ar    1  LIG1        0.0407
     15 C          -0.2615    7.4464   -0.0067 C.ar    1  LIG1        0.1694
     16 C           1.0955    7.4123   -0.0706 C.ar    1  LIG1        0.2124
     17 O           1.4998    6.1071   -0.0800 O.2     1  LIG1       -0.4444
     18 C          -2.1749    5.6463    0.0943 C.3     1  LIG1       -0.0325
     19 H          -2.2300    4.5603    0.0650 H       1  LIG1        0.0280
     20 H          -2.7350    6.0479   -0.7533 H       1  LIG1        0.0280
     21 H          -2.6384    5.9923    1.0210 H       1  LIG1        0.0280
     22 O          -1.0224    8.5655    0.0221 O.3     1  LIG1       -0.5029
     23 H          -1.9475    8.3249    0.1360 H       1  LIG1        0.2923
     24 C           2.1231    8.4319   -0.1098 C.ar    1  LIG1        0.1799
     25 C           3.4732    8.3649    0.0669 C.ar    1  LIG1        0.0399
     26 C           3.9171    9.7231   -0.0927 C.ar    1  LIG1        0.1581
     27 C           2.8236   10.4854   -0.3395 C.ar    1  LIG1        0.1343
     28 O           1.7219    9.6939   -0.3534 O.2     1  LIG1       -0.4557
     29 H           2.6742   11.5354   -0.5146 H       1  LIG1        0.1068
     30 C           4.3600    7.1882    0.3816 C.3     1  LIG1       -0.0325
     31 H           5.2480    7.5452    0.9020 H       1  LIG1        0.0280
     32 H           4.6826    6.6880   -0.5344 H       1  LIG1        0.0280
     33 H           3.8382    6.4742    1.0184 H       1  LIG1        0.0280
     34 O           5.2281   10.0682    0.0218 O.3     1  LIG1       -0.5034
     35 H           5.3344   11.0208   -0.0690 H       1  LIG1        0.2923
@<TRIPOS>BOND
     1     9     7    1
     2    20    18    1
     3    32    30    1
     4    29    27    1
     5    12    11    1
     6    28    27   ar
     7    28    24   ar
     8    27    26   ar
     9    11     3    1
    10     3     2   ar
    11     3     4   ar
    12     7     2    1
    13     7    10    1
    14     7     8    1
    15    24    16    1
    16    24    25   ar
    17    26    34    1
    18    26    25   ar
    19    17    16   ar
    20    17    13   ar
    21    16    15   ar
    22    35    34    1
    23     2     1   ar
    24    13     4    1
    25    13    14   ar
    26     4     5   ar
    27    15    22    1
    28    15    14   ar
    29    22    23    1
    30    14    18    1
    31    19    18    1
    32    25    30    1
    33    18    21    1
    34     1     5   ar
    35     1     6    1
    36    30    31    1
    37    30    33    1
