@<TRIPOS>MOLECULE
mol_data/opt/m06hf/geoms/mol2/12if4ia-4hd4eh.out
 53 56 0 0 0
SMALL
GASTEIGER

@<TRIPOS>ATOM
      1 C           0.4878    1.6006   -0.5864 C.ar    1  LIG1        0.0991
      2 C           1.8220    1.6549   -0.3547 C.ar    1  LIG1        0.0294
      3 C           2.0864    3.0503   -0.1297 C.ar    1  LIG1        0.1655
      4 C           0.9042    3.7173   -0.2200 C.ar    1  LIG1        0.1765
      5 O          -0.0757    2.8246   -0.5214 O.2     1  LIG1       -0.4589
      6 H          -0.1740    0.7801   -0.8041 H       1  LIG1        0.1033
      7 C           2.8430    0.5497   -0.3450 C.3     1  LIG1       -0.0332
      8 H           3.2994    0.4668    0.6415 H       1  LIG1        0.0280
      9 H           3.6307    0.7633   -1.0676 H       1  LIG1        0.0280
     10 H           2.3742   -0.4000   -0.5998 H       1  LIG1        0.0280
     11 O           3.3356    3.5502    0.0841 O.3     1  LIG1       -0.5030
     12 H           3.3610    4.4708   -0.2035 H       1  LIG1        0.2923
     13 C           1.0126    5.9372    0.9369 C.ar    1  LIG1       -0.0391
     14 C           0.7121    7.3005    0.9263 C.ar    1  LIG1       -0.0504
     15 C           0.5729    5.1510   -0.1421 C.ar    1  LIG1        0.0238
     16 C          -0.0300    7.8843   -0.1051 C.ar    1  LIG1       -0.0158
     17 H           1.0347    7.9216    1.7548 H       1  LIG1        0.0626
     18 C          -0.1911    5.7238   -1.1644 C.ar    1  LIG1       -0.0501
     19 C          -0.4932    7.0779   -1.1486 C.ar    1  LIG1       -0.0533
     20 H          -0.5330    5.0943   -1.9759 H       1  LIG1        0.0625
     21 C           1.7215    5.3243    2.1333 C.3     1  LIG1       -0.0390
     22 H           1.8013    6.0606    2.9317 H       1  LIG1        0.0278
     23 H           2.7205    4.9659    1.8812 H       1  LIG1        0.0278
     24 H           1.1493    4.4678    2.4934 H       1  LIG1        0.0278
     25 H          -1.0677    7.5206   -1.9527 H       1  LIG1        0.0624
     26 C           0.6592   10.3136    0.0488 C.ar    1  LIG1        0.0330
     27 C           0.3110   11.6711    0.0599 C.ar    1  LIG1       -0.0315
     28 C          -0.3564    9.3415   -0.0774 C.ar    1  LIG1        0.0040
     29 C          -1.0053   12.0885   -0.0688 C.ar    1  LIG1        0.0025
     30 H           1.0898   12.4165    0.1612 H       1  LIG1        0.0643
     31 C          -1.6744    9.7614   -0.2029 C.ar    1  LIG1       -0.0343
     32 C          -2.0093   11.1157   -0.2006 C.ar    1  LIG1        0.0602
     33 H          -2.4591    9.0215   -0.2963 H       1  LIG1        0.0637
     34 N           1.9820    9.9446    0.1875 N.pl3   1  LIG1       -0.3575
     35 H           2.2222    9.0158   -0.1293 H       1  LIG1        0.1423
     36 H           2.6666   10.6536   -0.0278 H       1  LIG1        0.1423
     37 N          -4.5141   11.7475   -0.4500 N.1     1  LIG1       -0.1908
     38 C          -3.4010   11.4833   -0.3481 C.1     1  LIG1        0.0998
     39 C          -0.6757   14.4473   -0.9128 C.ar    1  LIG1        0.0325
     40 C          -1.0156   15.8029   -0.8507 C.ar    1  LIG1       -0.0440
     41 C          -1.3287   13.5467   -0.0518 C.ar    1  LIG1        0.0005
     42 C          -1.9805   16.2635    0.0282 C.ar    1  LIG1       -0.0399
     43 H          -0.5149   16.4937   -1.5158 H       1  LIG1        0.0630
     44 C          -2.2907   14.0144    0.8352 C.ar    1  LIG1       -0.0321
     45 C          -2.6425   15.3686    0.8798 C.ar    1  LIG1        0.0252
     46 H          -2.7805   13.3171    1.5043 H       1  LIG1        0.0642
     47 H          -2.2290   17.3171    0.0587 H       1  LIG1        0.0636
     48 C           0.3079   14.0207   -1.8800 C.1     1  LIG1       -0.0691
     49 C           1.1282   13.7074   -2.7018 C.1     1  LIG1       -0.1139
     50 H           1.8438   13.4254   -3.4383 H       1  LIG1        0.1232
     51 N          -3.5908   15.8158    1.7872 N.pl3   1  LIG1       -0.3579
     52 H          -4.0298   16.6964    1.5628 H       1  LIG1        0.1423
     53 H          -4.2490   15.1200    2.1070 H       1  LIG1        0.1423
@<TRIPOS>BOND
     1    50    49    1
     2    49    48    3
     3    20    18    1
     4    25    19    1
     5    48    39    1
     6    43    40    1
     7    18    19   ar
     8    18    15   ar
     9    19    16   ar
    10     9     7    1
    11    39    40   ar
    12    39    41   ar
    13    40    42   ar
    14     6     1    1
    15    10     7    1
    16     1     5   ar
    17     1     2   ar
    18     5     4   ar
    19    37    38    3
    20     2     7    1
    21     2     3   ar
    22    38    32    1
    23     7     8    1
    24    33    31    1
    25     4    15    1
    26     4     3   ar
    27    12    11    1
    28    31    32   ar
    29    31    28   ar
    30    32    29   ar
    31    15    13   ar
    32     3    11    1
    33    35    34    1
    34    16    28    1
    35    16    14   ar
    36    28    26   ar
    37    29    41    1
    38    29    27   ar
    39    41    44   ar
    40    36    34    1
    41    42    47    1
    42    42    45   ar
    43    26    27   ar
    44    26    34    1
    45    27    30    1
    46    44    45   ar
    47    44    46    1
    48    45    51    1
    49    14    13   ar
    50    14    17    1
    51    13    21    1
    52    52    51    1
    53    51    53    1
    54    23    21    1
    55    21    24    1
    56    21    22    1
