@<TRIPOS>MOLECULE
mol_data/opt/m06hf/geoms/mol2/12if12if12if-12if-.out
 46 49 0 0 0
SMALL
GASTEIGER

@<TRIPOS>ATOM
      1 C           0.8390    1.6182    0.7523 C.ar    1  LIG1        0.0993
      2 C           1.8464    1.7676   -0.1425 C.ar    1  LIG1        0.0295
      3 C           1.8318    3.1688   -0.4635 C.ar    1  LIG1        0.1687
      4 C           0.8375    3.7415    0.2674 C.ar    1  LIG1        0.2114
      5 O           0.2211    2.7873    1.0116 O.2     1  LIG1       -0.4557
      6 H           0.4598    0.7533    1.2690 H       1  LIG1        0.1033
      7 C           2.7788    0.7382   -0.7215 C.3     1  LIG1       -0.0332
      8 H           3.8119    0.9853   -0.4769 H       1  LIG1        0.0280
      9 H           2.6801    0.7160   -1.8072 H       1  LIG1        0.0280
     10 H           2.5448   -0.2480   -0.3226 H       1  LIG1        0.0280
     11 O           2.6707    3.7420   -1.3597 O.3     1  LIG1       -0.5030
     12 H           2.3646    4.6360   -1.5593 H       1  LIG1        0.2923
     13 C           0.4063    5.1268    0.3214 C.ar    1  LIG1        0.1809
     14 C           1.1383    6.2783    0.3367 C.ar    1  LIG1        0.0407
     15 C           0.1647    7.3338    0.2948 C.ar    1  LIG1        0.1694
     16 C          -1.0622    6.7397    0.2735 C.ar    1  LIG1        0.2125
     17 O          -0.9215    5.3907    0.2807 O.2     1  LIG1       -0.4444
     18 C           2.6282    6.4650    0.4539 C.3     1  LIG1       -0.0325
     19 H           2.8355    7.1742    1.2554 H       1  LIG1        0.0280
     20 H           3.0423    6.8753   -0.4692 H       1  LIG1        0.0280
     21 H           3.1114    5.5143    0.6775 H       1  LIG1        0.0280
     22 O           0.4858    8.6433    0.3059 O.3     1  LIG1       -0.5029
     23 H          -0.3208    9.1780    0.2958 H       1  LIG1        0.2923
     24 C          -2.3743    7.3448    0.2599 C.ar    1  LIG1        0.1809
     25 C          -3.6512    6.8797    0.3158 C.ar    1  LIG1        0.0407
     26 C          -4.4669    8.0675    0.2786 C.ar    1  LIG1        0.1694
     27 C          -3.6408    9.1423    0.1892 C.ar    1  LIG1        0.2124
     28 O          -2.3515    8.6966    0.1732 O.2     1  LIG1       -0.4444
     29 C          -4.1461    5.4600    0.4174 C.3     1  LIG1       -0.0325
     30 H          -3.3047    4.7719    0.3713 H       1  LIG1        0.0280
     31 H          -4.8294    5.2386   -0.4049 H       1  LIG1        0.0280
     32 H          -4.6689    5.3016    1.3638 H       1  LIG1        0.0280
     33 O          -5.8241    8.1190    0.3155 O.3     1  LIG1       -0.5029
     34 H          -6.1700    7.2933    0.6707 H       1  LIG1        0.2923
     35 C          -3.8681   10.5732    0.1179 C.ar    1  LIG1        0.1799
     36 C          -4.8915   11.3050   -0.4005 C.ar    1  LIG1        0.0399
     37 C          -4.5289   12.6717   -0.1202 C.ar    1  LIG1        0.1581
     38 C          -3.3325   12.6539    0.5128 C.ar    1  LIG1        0.1343
     39 O          -2.9214   11.3707    0.6601 O.2     1  LIG1       -0.4557
     40 H          -2.6883   13.4309    0.8794 H       1  LIG1        0.1068
     41 C          -6.1136   10.8392   -1.1465 C.3     1  LIG1       -0.0325
     42 H          -5.9431    9.8449   -1.5557 H       1  LIG1        0.0280
     43 H          -6.3257   11.5312   -1.9635 H       1  LIG1        0.0280
     44 H          -6.9812   10.7847   -0.4863 H       1  LIG1        0.0280
     45 O          -5.2260   13.7849   -0.4862 O.3     1  LIG1       -0.5034
     46 H          -6.1700   13.5993   -0.4417 H       1  LIG1        0.2923
@<TRIPOS>BOND
     1    43    41    1
     2     9     7    1
     3    12    11    1
     4    42    41    1
     5    11     3    1
     6    41    44    1
     7    41    36    1
     8     7     8    1
     9     7    10    1
    10     7     2    1
    11    45    46    1
    12    45    37    1
    13    20    18    1
    14     3     2   ar
    15     3     4   ar
    16    31    29    1
    17    36    37   ar
    18    36    35   ar
    19     2     1   ar
    20    37    38   ar
    21    35    27    1
    22    35    39   ar
    23    28    27   ar
    24    28    24   ar
    25    27    26   ar
    26    24    16    1
    27    24    25   ar
    28     4    13    1
    29     4     5   ar
    30    16    17   ar
    31    16    15   ar
    32    26    33    1
    33    26    25   ar
    34    17    13   ar
    35    15    22    1
    36    15    14   ar
    37    23    22    1
    38    33    34    1
    39    25    29    1
    40    13    14   ar
    41    14    18    1
    42    30    29    1
    43    29    32    1
    44    18    21    1
    45    18    19    1
    46    38    39   ar
    47    38    40    1
    48     1     5   ar
    49     1     6    1
