@<TRIPOS>MOLECULE
mol_data/opt/m06hf/geoms/mol2/12if12if12if12if.out
 46 49 0 0 0
SMALL
GASTEIGER

@<TRIPOS>ATOM
      1 C           1.4931    2.1322    1.9678 C.ar    1  LIG1        0.0993
      2 C           2.2718    1.9311    0.8753 C.ar    1  LIG1        0.0295
      3 C           2.0303    3.0835    0.0513 C.ar    1  LIG1        0.1687
      4 C           1.1472    3.8778    0.7138 C.ar    1  LIG1        0.2114
      5 O           0.8123    3.2919    1.8911 O.2     1  LIG1       -0.4557
      6 H           1.3315    1.5418    2.8535 H       1  LIG1        0.1033
      7 C           3.1801    0.7799    0.5377 C.3     1  LIG1       -0.0332
      8 H           4.2091    1.1270    0.4414 H       1  LIG1        0.0280
      9 H           2.8793    0.3355   -0.4112 H       1  LIG1        0.0280
     10 H           3.1328    0.0205    1.3173 H       1  LIG1        0.0280
     11 O           2.5953    3.2717   -1.1666 O.3     1  LIG1       -0.5030
     12 H           2.1438    3.9971   -1.6171 H       1  LIG1        0.2923
     13 C           0.5771    5.1558    0.3204 C.ar    1  LIG1        0.1809
     14 C           1.1778    6.2374   -0.2575 C.ar    1  LIG1        0.0407
     15 C           0.1000    7.1490   -0.5133 C.ar    1  LIG1        0.1694
     16 C          -1.0410    6.5680   -0.0523 C.ar    1  LIG1        0.2125
     17 O          -0.7541    5.3392    0.4462 O.2     1  LIG1       -0.4444
     18 C           2.6384    6.4882   -0.5275 C.3     1  LIG1       -0.0325
     19 H           2.9209    7.4537   -0.1077 H       1  LIG1        0.0280
     20 H           2.8373    6.5196   -1.6006 H       1  LIG1        0.0280
     21 H           3.2442    5.7060   -0.0709 H       1  LIG1        0.0280
     22 O           0.2620    8.3560   -1.1071 O.3     1  LIG1       -0.5029
     23 H          -0.6035    8.7170   -1.3399 H       1  LIG1        0.2923
     24 C          -2.4005    7.0815   -0.0454 C.ar    1  LIG1        0.1809
     25 C          -2.8605    8.3342    0.2467 C.ar    1  LIG1        0.0407
     26 C          -4.2679    8.2676   -0.0246 C.ar    1  LIG1        0.1694
     27 C          -4.5455    6.9963   -0.4232 C.ar    1  LIG1        0.2124
     28 O          -3.4001    6.2705   -0.4511 O.2     1  LIG1       -0.4444
     29 C          -2.1165    9.5253    0.7911 C.3     1  LIG1       -0.0325
     30 H          -2.6383    9.9034    1.6701 H       1  LIG1        0.0280
     31 H          -2.0774   10.3301    0.0545 H       1  LIG1        0.0280
     32 H          -1.1024    9.2410    1.0706 H       1  LIG1        0.0280
     33 O          -5.1112    9.3187    0.1163 O.3     1  LIG1       -0.5029
     34 H          -5.9668    9.0949   -0.2726 H       1  LIG1        0.2923
     35 C          -5.8243    6.3993   -0.7720 C.ar    1  LIG1        0.1799
     36 C          -7.0421    6.5325   -0.1749 C.ar    1  LIG1        0.0399
     37 C          -7.9383    5.7827   -1.0135 C.ar    1  LIG1        0.1581
     38 C          -7.2006    5.2570   -2.0227 C.ar    1  LIG1        0.1343
     39 O          -5.9076    5.6386   -1.8832 O.2     1  LIG1       -0.4557
     40 H          -7.4371    4.6239   -2.8592 H       1  LIG1        0.1068
     41 C          -7.4092    7.2188    1.1147 C.3     1  LIG1       -0.0325
     42 H          -7.9700    6.5249    1.7410 H       1  LIG1        0.0280
     43 H          -8.0443    8.0869    0.9278 H       1  LIG1        0.0280
     44 H          -6.5095    7.5348    1.6422 H       1  LIG1        0.0280
     45 O          -9.2631    5.6786   -0.7290 O.3     1  LIG1       -0.5034
     46 H          -9.7015    5.0924   -1.3542 H       1  LIG1        0.2923
@<TRIPOS>BOND
     1    40    38    1
     2    38    39   ar
     3    38    37   ar
     4    39    35   ar
     5    12    11    1
     6    20    18    1
     7    46    45    1
     8    23    22    1
     9    11     3    1
    10    22    15    1
    11    37    45    1
    12    37    36   ar
    13    35    27    1
    14    35    36   ar
    15    18    14    1
    16    18    19    1
    17    18    21    1
    18    15    14   ar
    19    15    16   ar
    20    28    27   ar
    21    28    24   ar
    22    27    26   ar
    23     9     7    1
    24    34    33    1
    25    14    13   ar
    26    36    41    1
    27    16    24    1
    28    16    17   ar
    29    24    25   ar
    30    26    33    1
    31    26    25   ar
    32     3     4   ar
    33     3     2   ar
    34    31    29    1
    35    25    29    1
    36    13    17   ar
    37    13     4    1
    38     8     7    1
    39     7     2    1
    40     7    10    1
    41     4     5   ar
    42    29    32    1
    43    29    30    1
    44     2     1   ar
    45    43    41    1
    46    41    44    1
    47    41    42    1
    48     5     1   ar
    49     1     6    1
