@<TRIPOS>MOLECULE
mol_data/opt/m06hf/geoms/mol2/12if12if12if-12if.out
 46 49 0 0 0
SMALL
GASTEIGER

@<TRIPOS>ATOM
      1 C           0.8384    1.7271    0.9996 C.ar    1  LIG1        0.0993
      2 C           1.8716    1.8177    0.1266 C.ar    1  LIG1        0.0295
      3 C           1.8381    3.1824   -0.3237 C.ar    1  LIG1        0.1687
      4 C           0.8084    3.7964    0.3199 C.ar    1  LIG1        0.2114
      5 O           0.1869    2.8997    1.1286 O.2     1  LIG1       -0.4557
      6 H           0.4608    0.9049    1.5830 H       1  LIG1        0.1033
      7 C           2.8482    0.7632   -0.3193 C.3     1  LIG1       -0.0332
      8 H           3.8669    1.0714   -0.0837 H       1  LIG1        0.0280
      9 H           2.7755    0.6174   -1.3973 H       1  LIG1        0.0280
     10 H           2.6375   -0.1806    0.1822 H       1  LIG1        0.0280
     11 O           2.6964    3.6922   -1.2406 O.3     1  LIG1       -0.5030
     12 H           2.3655    4.5452   -1.5500 H       1  LIG1        0.2923
     13 C           0.3580    5.1746    0.2499 C.ar    1  LIG1        0.1809
     14 C           1.0772    6.3332    0.1998 C.ar    1  LIG1        0.0407
     15 C           0.0934    7.3704    0.0662 C.ar    1  LIG1        0.1694
     16 C          -1.1273    6.7631    0.0651 C.ar    1  LIG1        0.2125
     17 O          -0.9717    5.4194    0.1672 O.2     1  LIG1       -0.4444
     18 C           2.5630    6.5418    0.3300 C.3     1  LIG1       -0.0325
     19 H           2.7494    7.3226    1.0672 H       1  LIG1        0.0280
     20 H           2.9955    6.8676   -0.6178 H       1  LIG1        0.0280
     21 H           3.0455    5.6185    0.6495 H       1  LIG1        0.0280
     22 O           0.3990    8.6831   -0.0132 O.3     1  LIG1       -0.5029
     23 H          -0.4145    9.1984   -0.0965 H       1  LIG1        0.2923
     24 C          -2.4468    7.3464   -0.0242 C.ar    1  LIG1        0.1809
     25 C          -3.7110    6.8549   -0.1154 C.ar    1  LIG1        0.0407
     26 C          -4.5531    8.0233   -0.1937 C.ar    1  LIG1        0.1694
     27 C          -3.7481    9.1181   -0.1481 C.ar    1  LIG1        0.2124
     28 O          -2.4507    8.7031   -0.0453 O.2     1  LIG1       -0.4444
     29 C          -4.1757    5.4215   -0.1386 C.3     1  LIG1       -0.0325
     30 H          -3.3174    4.7542   -0.0977 H       1  LIG1        0.0280
     31 H          -4.7353    5.2199   -1.0546 H       1  LIG1        0.0280
     32 H          -4.8165    5.2123    0.7214 H       1  LIG1        0.0280
     33 O          -5.9017    8.0406   -0.3059 O.3     1  LIG1       -0.5029
     34 H          -6.2490    7.1505   -0.1878 H       1  LIG1        0.2923
     35 C          -3.9876   10.5459   -0.1703 C.ar    1  LIG1        0.1799
     36 C          -3.1544   11.6033    0.0451 C.ar    1  LIG1        0.0399
     37 C          -3.9993   12.7551   -0.1164 C.ar    1  LIG1        0.1581
     38 C          -5.2474   12.3112   -0.4037 C.ar    1  LIG1        0.1343
     39 O          -5.2411   10.9551   -0.4400 O.2     1  LIG1       -0.4557
     40 H          -6.1835   12.8024   -0.5974 H       1  LIG1        0.1068
     41 C          -1.6876   11.6355    0.3899 C.3     1  LIG1       -0.0325
     42 H          -1.4439   12.6141    0.8012 H       1  LIG1        0.0280
     43 H          -1.0753   11.4790   -0.5011 H       1  LIG1        0.0280
     44 H          -1.4510   10.8719    1.1317 H       1  LIG1        0.0280
     45 O          -3.5225   14.0210    0.0296 O.3     1  LIG1       -0.5034
     46 H          -4.2320   14.6626   -0.0774 H       1  LIG1        0.2923
@<TRIPOS>BOND
     1    12    11    1
     2     9     7    1
     3    11     3    1
     4    31    29    1
     5    20    18    1
     6    40    38    1
     7    43    41    1
     8    39    38   ar
     9    39    35   ar
    10    38    37   ar
    11     3     2   ar
    12     3     4   ar
    13     7     8    1
    14     7     2    1
    15     7    10    1
    16    33    26    1
    17    33    34    1
    18    26    27   ar
    19    26    25   ar
    20    35    27    1
    21    35    36   ar
    22    27    28   ar
    23    29    25    1
    24    29    30    1
    25    29    32    1
    26    37    45    1
    27    37    36   ar
    28    25    24   ar
    29    23    22    1
    30    46    45    1
    31    28    24   ar
    32    24    16    1
    33    22    15    1
    34    36    41    1
    35    16    15   ar
    36    16    17   ar
    37    15    14   ar
    38     2     1   ar
    39    17    13   ar
    40    14    13   ar
    41    14    18    1
    42    13     4    1
    43     4     5   ar
    44    18    21    1
    45    18    19    1
    46    41    42    1
    47    41    44    1
    48     1     5   ar
    49     1     6    1
