@<TRIPOS>MOLECULE
mol_data/opt/m06hf/geoms/mol2/12if12if-12if-12if.out
 46 49 0 0 0
SMALL
GASTEIGER

@<TRIPOS>ATOM
      1 C           0.3759    1.7638   -0.0534 C.ar    1  LIG1        0.0993
      2 C           1.7163    1.9077   -0.1889 C.ar    1  LIG1        0.0295
      3 C           1.9352    3.3304   -0.1836 C.ar    1  LIG1        0.1687
      4 C           0.7121    3.9161   -0.0468 C.ar    1  LIG1        0.2114
      5 O          -0.2484    2.9605    0.0329 O.2     1  LIG1       -0.4557
      6 H          -0.2545    0.8929   -0.0053 H       1  LIG1        0.1033
      7 C           2.7899    0.8618   -0.3187 C.3     1  LIG1       -0.0332
      8 H           3.5097    0.9661    0.4932 H       1  LIG1        0.0280
      9 H           3.3196    0.9878   -1.2629 H       1  LIG1        0.0280
     10 H           2.3535   -0.1355   -0.2838 H       1  LIG1        0.0280
     11 O           3.1548    3.8958   -0.2960 O.3     1  LIG1       -0.5030
     12 H           3.0776    4.8612   -0.2907 H       1  LIG1        0.2923
     13 C           0.3794    5.3200    0.0271 C.ar    1  LIG1        0.1809
     14 C          -0.7567    6.0519    0.1846 C.ar    1  LIG1        0.0407
     15 C          -0.3084    7.4216    0.1829 C.ar    1  LIG1        0.1694
     16 C           1.0421    7.4237    0.0160 C.ar    1  LIG1        0.2125
     17 O           1.4577    6.1280   -0.0805 O.2     1  LIG1       -0.4444
     18 C          -2.1791    5.5798    0.3386 C.3     1  LIG1       -0.0325
     19 H          -2.2089    4.4930    0.2953 H       1  LIG1        0.0280
     20 H          -2.8041    5.9789   -0.4631 H       1  LIG1        0.0280
     21 H          -2.5901    5.8971    1.3002 H       1  LIG1        0.0280
     22 O          -1.0980    8.5194    0.3162 O.3     1  LIG1       -0.5029
     23 H          -1.9838    8.2527    0.5833 H       1  LIG1        0.2923
     24 C           2.0988    8.4172   -0.0582 C.ar    1  LIG1        0.1809
     25 C           2.1437    9.7715   -0.2062 C.ar    1  LIG1        0.0407
     26 C           3.5467   10.0939   -0.1891 C.ar    1  LIG1        0.1694
     27 C           4.2342    8.9275   -0.0500 C.ar    1  LIG1        0.2124
     28 O           3.3461    7.9031    0.0307 O.2     1  LIG1       -0.4444
     29 C           1.0331   10.7731   -0.3856 C.3     1  LIG1       -0.0325
     30 H           0.0741   10.2666   -0.4639 H       1  LIG1        0.0280
     31 H           1.2015   11.3557   -1.2945 H       1  LIG1        0.0280
     32 H           0.9914   11.4544    0.4678 H       1  LIG1        0.0280
     33 O           4.0919   11.3284   -0.3114 O.3     1  LIG1       -0.5029
     34 H           3.3953   11.9926   -0.2843 H       1  LIG1        0.2923
     35 C           5.6423    8.5898    0.0008 C.ar    1  LIG1        0.1799
     36 C           6.2802    7.4066    0.2288 C.ar    1  LIG1        0.0399
     37 C           7.6759    7.7352    0.1188 C.ar    1  LIG1        0.1581
     38 C           7.7668    9.0598   -0.1545 C.ar    1  LIG1        0.1343
     39 O           6.5190    9.5870   -0.2276 O.2     1  LIG1       -0.4557
     40 H           8.5925    9.7295   -0.3136 H       1  LIG1        0.1068
     41 C           5.7253    6.0367    0.5234 C.3     1  LIG1       -0.0325
     42 H           6.4424    5.4859    1.1312 H       1  LIG1        0.0280
     43 H           5.5647    5.4793   -0.4016 H       1  LIG1        0.0280
     44 H           4.7807    6.1150    1.0598 H       1  LIG1        0.0280
     45 O           8.6508    6.8001    0.2849 O.3     1  LIG1       -0.5034
     46 H           9.5200    7.2034    0.1941 H       1  LIG1        0.2923
@<TRIPOS>BOND
     1    31    29    1
     2     9     7    1
     3    30    29    1
     4    20    18    1
     5    43    41    1
     6    29    25    1
     7    29    32    1
     8     7    10    1
     9     7     2    1
    10     7     8    1
    11    40    38    1
    12    33    34    1
    13    33    26    1
    14    11    12    1
    15    11     3    1
    16    39    38   ar
    17    39    35   ar
    18    25    26   ar
    19    25    24   ar
    20    26    27   ar
    21     2     3   ar
    22     2     1   ar
    23     3     4   ar
    24    38    37   ar
    25    17    16   ar
    26    17    13   ar
    27    24    16    1
    28    24    28   ar
    29     1     6    1
    30     1     5   ar
    31    27    35    1
    32    27    28   ar
    33     4    13    1
    34     4     5   ar
    35    35    36   ar
    36    16    15   ar
    37    13    14   ar
    38    37    36   ar
    39    37    45    1
    40    15    14   ar
    41    15    22    1
    42    14    18    1
    43    46    45    1
    44    36    41    1
    45    19    18    1
    46    22    23    1
    47    18    21    1
    48    41    44    1
    49    41    42    1
