@<TRIPOS>MOLECULE
mol_data/opt/m06hf/geoms/mol2/12if12if-.out
 24 25 0 0 0
SMALL
GASTEIGER

@<TRIPOS>ATOM
      1 C           0.1960    1.7794    0.0680 C.ar    1  LIG1        0.0993
      2 C           1.5500    1.8016    0.0344 C.ar    1  LIG1        0.0295
      3 C           1.8909    3.1996   -0.0057 C.ar    1  LIG1        0.1687
      4 C           0.7216    3.8952    0.0068 C.ar    1  LIG1        0.2114
      5 O          -0.3222    3.0284    0.0519 O.2     1  LIG1       -0.4557
      6 H          -0.5120    0.9698    0.1037 H       1  LIG1        0.1033
      7 C           2.5341    0.6635    0.0365 C.3     1  LIG1       -0.0332
      8 H           3.1915    0.7419    0.9027 H       1  LIG1        0.0280
      9 H           3.1485    0.7015   -0.8634 H       1  LIG1        0.0280
     10 H           2.0102   -0.2909    0.0711 H       1  LIG1        0.0280
     11 O           3.1616    3.6566   -0.0470 O.3     1  LIG1       -0.5030
     12 H           3.1513    4.6226   -0.0689 H       1  LIG1        0.2923
     13 C           0.4875    5.3246   -0.0203 C.ar    1  LIG1        0.1798
     14 C          -0.6208    6.1097   -0.0114 C.ar    1  LIG1        0.0399
     15 C          -0.1079    7.4605   -0.0547 C.ar    1  LIG1        0.1581
     16 C           1.2411    7.3901   -0.0858 C.ar    1  LIG1        0.1343
     17 O           1.6149    6.0769   -0.0648 O.2     1  LIG1       -0.4557
     18 H           2.0160    8.1315   -0.1215 H       1  LIG1        0.1068
     19 C          -2.0735    5.7113    0.0330 C.3     1  LIG1       -0.0325
     20 H          -2.1566    4.6272    0.0593 H       1  LIG1        0.0280
     21 H          -2.5989    6.0788   -0.8517 H       1  LIG1        0.0280
     22 H          -2.5556    6.1187    0.9248 H       1  LIG1        0.0280
     23 O          -0.8440    8.6021   -0.0628 O.3     1  LIG1       -0.5034
     24 H          -1.7814    8.3852   -0.0354 H       1  LIG1        0.2923
@<TRIPOS>BOND
     1     9     7    1
     2    21    19    1
     3    18    16    1
     4    16    17   ar
     5    16    15   ar
     6    12    11    1
     7    17    13   ar
     8    23    15    1
     9    23    24    1
    10    15    14   ar
    11    11     3    1
    12    13    14   ar
    13    13     4    1
    14    14    19    1
    15     3     4   ar
    16     3     2   ar
    17     4     5   ar
    18    19    20    1
    19    19    22    1
    20     2     7    1
    21     2     1   ar
    22     7    10    1
    23     7     8    1
    24     5     1   ar
    25     1     6    1
