@<TRIPOS>MOLECULE
mol_data/opt/m06hf/geoms/mol2/12if12if12if.out
 35 37 0 0 0
SMALL
GASTEIGER

@<TRIPOS>ATOM
      1 C           0.7194    1.8414    1.2409 C.ar    1  LIG1        0.0993
      2 C           1.7561    1.8107    0.3664 C.ar    1  LIG1        0.0295
      3 C           1.7656    3.1230   -0.2187 C.ar    1  LIG1        0.1687
      4 C           0.7556    3.8307    0.3567 C.ar    1  LIG1        0.2114
      5 O           0.1071    3.0410    1.2496 O.2     1  LIG1       -0.4557
      6 H           0.3154    1.0937    1.9018 H       1  LIG1        0.1033
      7 C           2.6967    0.6856    0.0296 C.3     1  LIG1       -0.0332
      8 H           3.7226    0.9692    0.2647 H       1  LIG1        0.0280
      9 H           2.6403    0.4581   -1.0352 H       1  LIG1        0.0280
     10 H           2.4352   -0.2061    0.5981 H       1  LIG1        0.0280
     11 O           2.6373    3.5111   -1.1821 O.3     1  LIG1       -0.5030
     12 H           2.3278    4.3369   -1.5764 H       1  LIG1        0.2923
     13 C           0.3381    5.2040    0.1320 C.ar    1  LIG1        0.1809
     14 C           1.0917    6.3272   -0.0599 C.ar    1  LIG1        0.0407
     15 C           0.1306    7.3588   -0.3265 C.ar    1  LIG1        0.1694
     16 C          -1.1046    6.7954   -0.2459 C.ar    1  LIG1        0.2124
     17 O          -0.9804    5.4702    0.0191 O.2     1  LIG1       -0.4444
     18 C           2.5834    6.5099    0.0418 C.3     1  LIG1       -0.0325
     19 H           2.7961    7.3685    0.6788 H       1  LIG1        0.0280
     20 H           3.0219    6.7063   -0.9386 H       1  LIG1        0.0280
     21 H           3.0429    5.6199    0.4709 H       1  LIG1        0.0280
     22 O           0.4646    8.6452   -0.5927 O.3     1  LIG1       -0.5029
     23 H          -0.3197    9.1216   -0.8949 H       1  LIG1        0.2923
     24 C          -2.4140    7.4133   -0.3755 C.ar    1  LIG1        0.1799
     25 C          -2.8719    8.6027    0.1088 C.ar    1  LIG1        0.0399
     26 C          -4.2132    8.7063   -0.3998 C.ar    1  LIG1        0.1581
     27 C          -4.4568    7.5866   -1.1249 C.ar    1  LIG1        0.1343
     28 O          -3.3558    6.7967   -1.1196 O.2     1  LIG1       -0.4557
     29 H          -5.3159    7.2275   -1.6633 H       1  LIG1        0.1068
     30 C          -2.2047    9.5804    1.0402 C.3     1  LIG1       -0.0325
     31 H          -2.8843    9.8119    1.8604 H       1  LIG1        0.0280
     32 H          -1.9718   10.5153    0.5264 H       1  LIG1        0.0280
     33 H          -1.2872    9.1512    1.4421 H       1  LIG1        0.0280
     34 O          -5.0066    9.7734   -0.1170 O.3     1  LIG1       -0.5034
     35 H          -5.8953    9.6358   -0.4606 H       1  LIG1        0.2923
@<TRIPOS>BOND
     1    29    27    1
     2    12    11    1
     3    11     3    1
     4    27    28   ar
     5    27    26   ar
     6    28    24   ar
     7     9     7    1
     8    20    18    1
     9    23    22    1
    10    22    15    1
    11    35    34    1
    12    26    34    1
    13    26    25   ar
    14    24    16    1
    15    24    25   ar
    16    15    16   ar
    17    15    14   ar
    18    16    17   ar
    19     3     4   ar
    20     3     2   ar
    21    14    18    1
    22    14    13   ar
    23    17    13   ar
    24     7     8    1
    25     7     2    1
    26     7    10    1
    27    18    21    1
    28    18    19    1
    29    25    30    1
    30    13     4    1
    31     4     5   ar
    32     2     1   ar
    33    32    30    1
    34    30    33    1
    35    30    31    1
    36     1     5   ar
    37     1     6    1
