@<TRIPOS>MOLECULE
mol_data/opt/m06hf/geoms/mol2/12if12if.out
 24 25 0 0 0
SMALL
GASTEIGER

@<TRIPOS>ATOM
      1 C           0.3307    1.8472    0.7121 C.ar    1  LIG1        0.0993
      2 C           1.5338    1.8569    0.0865 C.ar    1  LIG1        0.0295
      3 C           1.7135    3.2252   -0.3148 C.ar    1  LIG1        0.1687
      4 C           0.6234    3.9194    0.1090 C.ar    1  LIG1        0.2114
      5 O          -0.2315    3.0713    0.7361 O.2     1  LIG1       -0.4557
      6 H          -0.2324    1.0538    1.1728 H       1  LIG1        0.1033
      7 C           2.4908    0.7255   -0.1754 C.3     1  LIG1       -0.0332
      8 H           3.4605    0.9423    0.2729 H       1  LIG1        0.0280
      9 H           2.6326    0.5961   -1.2485 H       1  LIG1        0.0280
     10 H           2.1034   -0.2009    0.2468 H       1  LIG1        0.0280
     11 O           2.7933    3.6732   -1.0021 O.3     1  LIG1       -0.5030
     12 H           2.6155    4.5660   -1.3258 H       1  LIG1        0.2923
     13 C           0.3217    5.3361   -0.0195 C.ar    1  LIG1        0.1798
     14 C           1.1327    6.4198    0.1430 C.ar    1  LIG1        0.0399
     15 C           0.3035    7.5456   -0.1945 C.ar    1  LIG1        0.1581
     16 C          -0.9218    7.0619   -0.5144 C.ar    1  LIG1        0.1343
     17 O          -0.9133    5.7099   -0.4164 O.2     1  LIG1       -0.4557
     18 H          -1.8465    7.5264   -0.8066 H       1  LIG1        0.1068
     19 C           2.5518    6.4898    0.6425 C.3     1  LIG1       -0.0325
     20 H           2.6120    7.2237    1.4464 H       1  LIG1        0.0280
     21 H           3.2306    6.8090   -0.1508 H       1  LIG1        0.0280
     22 H           2.8677    5.5166    1.0174 H       1  LIG1        0.0280
     23 O           0.7712    8.8217   -0.1453 O.3     1  LIG1       -0.5034
     24 H           0.0536    9.4506   -0.2725 H       1  LIG1        0.2923
@<TRIPOS>BOND
     1    12    11    1
     2     9     7    1
     3    11     3    1
     4    18    16    1
     5    16    17   ar
     6    16    15   ar
     7    17    13   ar
     8     3     2   ar
     9     3     4   ar
    10    24    23    1
    11    15    23    1
    12    15    14   ar
    13     7     2    1
    14     7    10    1
    15     7     8    1
    16    21    19    1
    17    13     4    1
    18    13    14   ar
    19     2     1   ar
    20     4     5   ar
    21    14    19    1
    22    19    22    1
    23    19    20    1
    24     1     5   ar
    25     1     6    1
