@<TRIPOS>MOLECULE
mol_data/opt/m06hf/geoms/mol2/12if12if-12if-12if-.out
 46 49 0 0 0
SMALL
GASTEIGER

@<TRIPOS>ATOM
      1 C           0.0746    1.7147    0.0744 C.ar    1  LIG1        0.0993
      2 C           1.4034    1.7524   -0.1838 C.ar    1  LIG1        0.0295
      3 C           1.7363    3.1534   -0.1951 C.ar    1  LIG1        0.1687
      4 C           0.5824    3.8338    0.0554 C.ar    1  LIG1        0.2114
      5 O          -0.4409    2.9562    0.2213 O.2     1  LIG1       -0.4557
      6 H          -0.6157    0.8954    0.1802 H       1  LIG1        0.1033
      7 C           2.3712    0.6244   -0.4173 C.3     1  LIG1       -0.0332
      8 H           3.1708    0.6616    0.3225 H       1  LIG1        0.0280
      9 H           2.8177    0.7168   -1.4074 H       1  LIG1        0.0280
     10 H           1.8598   -0.3346   -0.3435 H       1  LIG1        0.0280
     11 O           2.9829    3.6142   -0.4181 O.3     1  LIG1       -0.5030
     12 H           2.9954    4.5811   -0.3803 H       1  LIG1        0.2923
     13 C           0.3591    5.2583    0.1546 C.ar    1  LIG1        0.1809
     14 C          -0.7016    6.0542    0.4603 C.ar    1  LIG1        0.0407
     15 C          -0.1781    7.3945    0.3902 C.ar    1  LIG1        0.1694
     16 C           1.1339    7.3164    0.0405 C.ar    1  LIG1        0.2125
     17 O           1.4590    5.9996   -0.1066 O.2     1  LIG1       -0.4444
     18 C          -2.1119    5.6627    0.8187 C.3     1  LIG1       -0.0325
     19 H          -2.2064    4.5792    0.7938 H       1  LIG1        0.0280
     20 H          -2.8217    6.0917    0.1083 H       1  LIG1        0.0280
     21 H          -2.3654    6.0076    1.8243 H       1  LIG1        0.0280
     22 O          -0.8654    8.5407    0.6315 O.3     1  LIG1       -0.5029
     23 H          -1.7236    8.3327    1.0156 H       1  LIG1        0.2923
     24 C           2.2039    8.2760   -0.1669 C.ar    1  LIG1        0.1809
     25 C           2.2308    9.5899   -0.5307 C.ar    1  LIG1        0.0407
     26 C           3.6289    9.9245   -0.5496 C.ar    1  LIG1        0.1694
     27 C           4.3269    8.8101   -0.2035 C.ar    1  LIG1        0.2124
     28 O           3.4529    7.8025    0.0404 O.2     1  LIG1       -0.4444
     29 C           1.1075   10.5211   -0.9036 C.3     1  LIG1       -0.0325
     30 H           0.1456   10.0558   -0.7020 H       1  LIG1        0.0280
     31 H           1.1619   10.7768   -1.9650 H       1  LIG1        0.0280
     32 H           1.1809   11.4403   -0.3194 H       1  LIG1        0.0280
     33 O           4.1696   11.1393   -0.8474 O.3     1  LIG1       -0.5029
     34 H           3.6501   11.5638   -1.5398 H       1  LIG1        0.2923
     35 C           5.7508    8.5551   -0.0680 C.ar    1  LIG1        0.1799
     36 C           6.7713    9.3632    0.3296 C.ar    1  LIG1        0.0399
     37 C           7.9467    8.5387    0.2076 C.ar    1  LIG1        0.1581
     38 C           7.5445    7.3211   -0.2273 C.ar    1  LIG1        0.1343
     39 O           6.2007    7.3258   -0.3965 O.2     1  LIG1       -0.4557
     40 H           8.0707    6.4076   -0.4332 H       1  LIG1        0.1068
     41 C           6.7206   10.7798    0.8375 C.3     1  LIG1       -0.0325
     42 H           5.7189   11.0095    1.1974 H       1  LIG1        0.0280
     43 H           6.9620   11.4919    0.0465 H       1  LIG1        0.0280
     44 H           7.4306   10.8980    1.6585 H       1  LIG1        0.0280
     45 O           9.2226    8.8929    0.5342 O.3     1  LIG1       -0.5034
     46 H           9.3483    9.8313    0.3575 H       1  LIG1        0.2923
@<TRIPOS>BOND
     1    31    29    1
     2    34    33    1
     3     9     7    1
     4    29    30    1
     5    29    25    1
     6    29    32    1
     7    33    26    1
     8    26    25   ar
     9    26    27   ar
    10    25    24   ar
    11    40    38    1
    12    11    12    1
    13    11     3    1
    14     7    10    1
    15     7     2    1
    16     7     8    1
    17    39    38   ar
    18    39    35   ar
    19    38    37   ar
    20    27    35    1
    21    27    28   ar
    22     3     2   ar
    23     3     4   ar
    24     2     1   ar
    25    24    28   ar
    26    24    16    1
    27    17    16   ar
    28    17    13   ar
    29    35    36   ar
    30    16    15   ar
    31    43    41    1
    32     4    13    1
    33     4     5   ar
    34     1     6    1
    35     1     5   ar
    36    20    18    1
    37    13    14   ar
    38    37    36   ar
    39    37    45    1
    40    36    41    1
    41    46    45    1
    42    15    14   ar
    43    15    22    1
    44    14    18    1
    45    22    23    1
    46    19    18    1
    47    18    21    1
    48    41    42    1
    49    41    44    1
