@<TRIPOS>MOLECULE
mol_data/opt/m06hf/geoms/mol2/12if12if-12if12if.out
 46 49 0 0 0
SMALL
GASTEIGER

@<TRIPOS>ATOM
      1 C           0.3818    1.7102    0.3777 C.ar    1  LIG1        0.0993
      2 C           1.7246    1.8433    0.2572 C.ar    1  LIG1        0.0295
      3 C           1.9384    3.2580    0.1033 C.ar    1  LIG1        0.1687
      4 C           0.7137    3.8518    0.1422 C.ar    1  LIG1        0.2114
      5 O          -0.2457    2.9063    0.3112 O.2     1  LIG1       -0.4557
      6 H          -0.2486    0.8483    0.5120 H       1  LIG1        0.1033
      7 C           2.8015    0.7924    0.2743 C.3     1  LIG1       -0.0332
      8 H           3.5121    1.0023    1.0739 H       1  LIG1        0.0280
      9 H           3.3412    0.7959   -0.6727 H       1  LIG1        0.0280
     10 H           2.3650   -0.1927    0.4335 H       1  LIG1        0.0280
     11 O           3.1583    3.8187   -0.0449 O.3     1  LIG1       -0.5030
     12 H           3.0642    4.7797   -0.0898 H       1  LIG1        0.2923
     13 C           0.3610    5.2512    0.0489 C.ar    1  LIG1        0.1809
     14 C          -0.8018    5.9547    0.0981 C.ar    1  LIG1        0.0407
     15 C          -0.4032    7.3329   -0.0469 C.ar    1  LIG1        0.1694
     16 C           0.9510    7.3618   -0.1705 C.ar    1  LIG1        0.2125
     17 O           1.4228    6.0804   -0.1108 O.2     1  LIG1       -0.4444
     18 C          -2.2123    5.4537    0.2701 C.3     1  LIG1       -0.0325
     19 H          -2.2048    4.3741    0.4020 H       1  LIG1        0.0280
     20 H          -2.8150    5.6930   -0.6093 H       1  LIG1        0.0280
     21 H          -2.6726    5.9099    1.1495 H       1  LIG1        0.0280
     22 O          -1.2158    8.4128   -0.0524 O.3     1  LIG1       -0.5029
     23 H          -2.1357    8.1313   -0.0193 H       1  LIG1        0.2923
     24 C           1.9185    8.4259   -0.3209 C.ar    1  LIG1        0.1809
     25 C           3.2652    8.3950   -0.5511 C.ar    1  LIG1        0.0407
     26 C           3.6430    9.7768   -0.5811 C.ar    1  LIG1        0.1694
     27 C           2.5225   10.5181   -0.3648 C.ar    1  LIG1        0.2124
     28 O           1.4603    9.6865   -0.2086 O.2     1  LIG1       -0.4444
     29 C           4.1911    7.2246   -0.7613 C.3     1  LIG1       -0.0325
     30 H           5.1290    7.5908   -1.1770 H       1  LIG1        0.0280
     31 H           3.7541    6.5091   -1.4589 H       1  LIG1        0.0280
     32 H           4.4084    6.7249    0.1852 H       1  LIG1        0.0280
     33 O           4.9073   10.2080   -0.8124 O.3     1  LIG1       -0.5029
     34 H           4.8894   11.1589   -0.9835 H       1  LIG1        0.2923
     35 C           2.3738   11.9609   -0.2864 C.ar    1  LIG1        0.1799
     36 C           3.1614   12.8837    0.3361 C.ar    1  LIG1        0.0399
     37 C           2.5741   14.1506   -0.0078 C.ar    1  LIG1        0.1581
     38 C           1.4916   13.8954   -0.7832 C.ar    1  LIG1        0.1343
     39 O           1.3703   12.5577   -0.9637 O.2     1  LIG1       -0.4557
     40 H           0.7496   14.5213   -1.2460 H       1  LIG1        0.1068
     41 C           4.3364   12.6756    1.2552 C.3     1  LIG1       -0.0325
     42 H           4.1774   13.2410    2.1734 H       1  LIG1        0.0280
     43 H           5.2604   13.0344    0.7977 H       1  LIG1        0.0280
     44 H           4.4413   11.6179    1.4959 H       1  LIG1        0.0280
     45 O           3.0886   15.3263    0.4424 O.3     1  LIG1       -0.5034
     46 H           2.5283   16.0637    0.1793 H       1  LIG1        0.2923
@<TRIPOS>BOND
     1    31    29    1
     2    40    38    1
     3    30    29    1
     4    34    33    1
     5    39    38   ar
     6    39    35   ar
     7    33    26    1
     8    38    37   ar
     9    29    25    1
    10    29    32    1
    11     9     7    1
    12    20    18    1
    13    26    25   ar
    14    26    27   ar
    15    25    24   ar
    16    27    35    1
    17    27    28   ar
    18    24    28   ar
    19    24    16    1
    20    35    36   ar
    21    16    17   ar
    22    16    15   ar
    23    17    13   ar
    24    12    11    1
    25    22    15    1
    26    22    23    1
    27    15    14   ar
    28    11     3    1
    29    37    36   ar
    30    37    45    1
    31    13    14   ar
    32    13     4    1
    33    14    18    1
    34     3     4   ar
    35     3     2   ar
    36     4     5   ar
    37    46    45    1
    38     2     7    1
    39     2     1   ar
    40    18    19    1
    41    18    21    1
    42     7    10    1
    43     7     8    1
    44     5     1   ar
    45    36    41    1
    46     1     6    1
    47    43    41    1
    48    41    44    1
    49    41    42    1
