@<TRIPOS>MOLECULE
mol_data/opt/m06hf/geoms/mol2/12if6el-12il4fl.out
 57 60 0 0 0
SMALL
GASTEIGER

@<TRIPOS>ATOM
      1 C           1.0889    1.6729    1.5668 C.ar    1  LIG1        0.0991
      2 C           1.6360    1.5615    0.3306 C.ar    1  LIG1        0.0294
      3 C           1.5189    2.8797   -0.2264 C.ar    1  LIG1        0.1656
      4 C           0.9207    3.6693    0.7084 C.ar    1  LIG1        0.1790
      5 O           0.6528    2.9236    1.8065 O.2     1  LIG1       -0.4588
      6 H           0.9466    0.9581    2.3590 H       1  LIG1        0.1033
      7 C           2.2296    0.3597   -0.3533 C.3     1  LIG1       -0.0332
      8 H           3.2904    0.5200   -0.5468 H       1  LIG1        0.0280
      9 H           1.7302    0.1900   -1.3074 H       1  LIG1        0.0280
     10 H           2.1132   -0.5249    0.2717 H       1  LIG1        0.0280
     11 O           1.9420    3.2127   -1.4785 O.3     1  LIG1       -0.5030
     12 H           1.4003    3.9355   -1.8185 H       1  LIG1        0.2923
     13 C          -0.6119    5.6373    1.1255 C.ar    1  LIG1        0.1249
     14 C           0.5936    5.0982    0.6568 C.ar    1  LIG1        0.0582
     15 C           1.5170    5.9680    0.0658 C.ar    1  LIG1       -0.0043
     16 C           1.2139    7.3186   -0.0350 C.ar    1  LIG1        0.1497
     17 C          -0.0069    7.7731    0.5100 C.ar    1  LIG1        0.1492
     18 N          -0.8801    6.9421    1.0578 N.ar    1  LIG1       -0.2309
     19 H           2.4559    5.5668   -0.2936 H       1  LIG1        0.0663
     20 C          -1.6393    4.7892    1.6934 C.1     1  LIG1       -0.0491
     21 C          -2.4957    4.0833    2.1504 C.1     1  LIG1       -0.1124
     22 H          -3.2574    3.4615    2.5602 H       1  LIG1        0.1232
     23 O           2.0037    8.2347   -0.6285 O.3     1  LIG1       -0.4928
     24 C           3.2674    7.8166   -1.1129 C.3     1  LIG1        0.0789
     25 H           3.7392    8.7099   -1.5124 H       1  LIG1        0.0660
     26 H           3.8733    7.4070   -0.3013 H       1  LIG1        0.0660
     27 H           3.1502    7.0733   -1.9050 H       1  LIG1        0.0660
     28 C          -0.3781    9.2002    0.4558 C.ar    1  LIG1        0.1640
     29 C           0.3194   10.3564    0.6325 C.ar    1  LIG1        0.0393
     30 C          -0.6581   11.4013    0.4877 C.ar    1  LIG1        0.1693
     31 C          -1.8653   10.8034    0.2523 C.ar    1  LIG1        0.1810
     32 O          -1.6818    9.4612    0.2253 O.2     1  LIG1       -0.4490
     33 C           1.7686   10.5987    0.9602 C.3     1  LIG1       -0.0325
     34 H           1.8421   11.5071    1.5568 H       1  LIG1        0.0280
     35 H           2.3475   10.7277    0.0446 H       1  LIG1        0.0280
     36 H           2.1821    9.7593    1.5177 H       1  LIG1        0.0280
     37 O          -0.3164   12.7112    0.5647 O.3     1  LIG1       -0.4910
     38 C          -0.7345   13.5129   -0.5334 C.3     1  LIG1        0.0790
     39 H          -0.2390   14.4732   -0.4101 H       1  LIG1        0.0660
     40 H          -0.4263   13.0480   -1.4725 H       1  LIG1        0.0660
     41 H          -1.8153   13.6508   -0.5203 H       1  LIG1        0.0660
     42 C          -3.7745   12.3838    0.6461 C.ar    1  LIG1        0.1278
     43 C          -5.0860   12.7608    0.3999 C.ar    1  LIG1       -0.0160
     44 C          -3.2406   11.2601   -0.0043 C.ar    1  LIG1        0.0657
     45 C          -5.8948   12.0253   -0.4676 C.ar    1  LIG1       -0.0165
     46 H          -5.4928   13.6338    0.8971 H       1  LIG1        0.0655
     47 C          -4.0508   10.5256   -0.8623 C.ar    1  LIG1       -0.0057
     48 C          -5.3737   10.9004   -1.1002 C.ar    1  LIG1        0.1210
     49 H          -3.6627    9.6426   -1.3513 H       1  LIG1        0.0662
     50 H          -6.9147   12.3426   -0.6322 H       1  LIG1        0.0655
     51 O          -2.9611   13.0679    1.5008 O.3     1  LIG1       -0.5061
     52 H          -3.4707   13.6994    2.0186 H       1  LIG1        0.2922
     53 O          -6.0703   10.1135   -1.9661 O.3     1  LIG1       -0.4951
     54 C          -7.4265   10.4311   -2.1976 C.3     1  LIG1        0.0788
     55 H          -7.7962    9.6782   -2.8885 H       1  LIG1        0.0660
     56 H          -7.9993   10.3912   -1.2671 H       1  LIG1        0.0660
     57 H          -7.5226   11.4224   -2.6491 H       1  LIG1        0.0660
@<TRIPOS>BOND
     1    55    54    1
     2    57    54    1
     3    54    53    1
     4    54    56    1
     5    53    48    1
     6    27    24    1
     7    12    11    1
     8    25    24    1
     9    11     3    1
    10    40    38    1
    11    49    47    1
    12     9     7    1
    13    24    23    1
    14    24    26    1
    15    48    47   ar
    16    48    45   ar
    17    47    44   ar
    18    50    45    1
    19    23    16    1
    20     8     7    1
    21    38    41    1
    22    38    39    1
    23    38    37    1
    24    45    43   ar
    25     7    10    1
    26     7     2    1
    27    19    15    1
    28     3     2   ar
    29     3     4   ar
    30    16    15   ar
    31    16    17   ar
    32    44    31    1
    33    44    42   ar
    34    35    33    1
    35    15    14   ar
    36    32    31   ar
    37    32    28   ar
    38    31    30   ar
    39     2     1   ar
    40    43    42   ar
    41    43    46    1
    42    28    17    1
    43    28    29   ar
    44    30    37    1
    45    30    29   ar
    46    17    18   ar
    47    29    33    1
    48    42    51    1
    49    14     4    1
    50    14    13   ar
    51     4     5   ar
    52    33    36    1
    53    33    34    1
    54    18    13   ar
    55    13    20    1
    56    51    52    1
    57     1     5   ar
    58     1     6    1
    59    20    21    3
    60    21    22    1
