@<TRIPOS>MOLECULE
mol_data/opt/m06hf/geoms/mol2/12if12if-12if12if-.out
 46 49 0 0 0
SMALL
GASTEIGER

@<TRIPOS>ATOM
      1 C           0.2866    1.6693    0.0291 C.ar    1  LIG1        0.0993
      2 C           1.6309    1.7682   -0.1060 C.ar    1  LIG1        0.0295
      3 C           1.8947    3.1827   -0.1083 C.ar    1  LIG1        0.1687
      4 C           0.6932    3.8106    0.0262 C.ar    1  LIG1        0.2114
      5 O          -0.2972    2.8860    0.1118 O.2     1  LIG1       -0.4557
      6 H          -0.3711    0.8192    0.0823 H       1  LIG1        0.1033
      7 C           2.6673    0.6847   -0.2319 C.3     1  LIG1       -0.0332
      8 H           3.3855    0.7602    0.5846 H       1  LIG1        0.0280
      9 H           3.2062    0.7933   -1.1731 H       1  LIG1        0.0280
     10 H           2.1939   -0.2957   -0.2017 H       1  LIG1        0.0280
     11 O           3.1310    3.7117   -0.2308 O.3     1  LIG1       -0.5030
     12 H           3.0696    4.6762   -0.2423 H       1  LIG1        0.2923
     13 C           0.3895    5.2231    0.0773 C.ar    1  LIG1        0.1809
     14 C          -0.7523    5.9609    0.1298 C.ar    1  LIG1        0.0407
     15 C          -0.3031    7.3301    0.1445 C.ar    1  LIG1        0.1694
     16 C           1.0560    7.3213    0.0969 C.ar    1  LIG1        0.2125
     17 O           1.4841    6.0252    0.0560 O.2     1  LIG1       -0.4444
     18 C          -2.1854    5.4969    0.1632 C.3     1  LIG1       -0.0325
     19 H          -2.2217    4.4117    0.0967 H       1  LIG1        0.0280
     20 H          -2.7414    5.9159   -0.6787 H       1  LIG1        0.0280
     21 H          -2.6663    5.8047    1.0943 H       1  LIG1        0.0280
     22 O          -1.0829    8.4369    0.1951 O.3     1  LIG1       -0.5029
     23 H          -2.0099    8.1790    0.2280 H       1  LIG1        0.2923
     24 C           2.0556    8.3636    0.0915 C.ar    1  LIG1        0.1809
     25 C           3.4184    8.3257    0.1573 C.ar    1  LIG1        0.0407
     26 C           3.8162    9.7032    0.1054 C.ar    1  LIG1        0.1694
     27 C           2.6800   10.4508    0.0200 C.ar    1  LIG1        0.2124
     28 O           1.5994    9.6312    0.0090 O.2     1  LIG1       -0.4444
     29 C           4.3527    7.1488    0.2698 C.3     1  LIG1       -0.0325
     30 H           5.3329    7.5093    0.5782 H       1  LIG1        0.0280
     31 H           4.4604    6.6458   -0.6935 H       1  LIG1        0.0280
     32 H           3.9880    6.4378    1.0119 H       1  LIG1        0.0280
     33 O           5.1026   10.1148    0.1475 O.3     1  LIG1       -0.5029
     34 H           5.1251   11.0811    0.1213 H       1  LIG1        0.2923
     35 C           2.5020   11.8837   -0.0464 C.ar    1  LIG1        0.1799
     36 C           1.4214   12.7025   -0.1367 C.ar    1  LIG1        0.0399
     37 C           1.9826   14.0347   -0.1618 C.ar    1  LIG1        0.1581
     38 C           3.3265   13.9215   -0.0845 C.ar    1  LIG1        0.1343
     39 O           3.6544   12.5977   -0.0113 O.2     1  LIG1       -0.4557
     40 H           4.1266   14.6367   -0.0689 H       1  LIG1        0.1068
     41 C          -0.0436   12.3517   -0.1956 C.3     1  LIG1       -0.0325
     42 H          -0.1784   11.2765   -0.0916 H       1  LIG1        0.0280
     43 H          -0.4742   12.6652   -1.1499 H       1  LIG1        0.0280
     44 H          -0.5826   12.8503    0.6136 H       1  LIG1        0.0280
     45 O           1.2878   15.1998   -0.2377 O.3     1  LIG1       -0.5034
     46 H           0.3572   15.0113   -0.3954 H       1  LIG1        0.2923
@<TRIPOS>BOND
     1     9     7    1
     2    43    41    1
     3    31    29    1
     4    20    18    1
     5    46    45    1
     6    12    11    1
     7    45    37    1
     8     7    10    1
     9     7     2    1
    10     7     8    1
    11    11     3    1
    12    41    36    1
    13    41    42    1
    14    41    44    1
    15    37    36   ar
    16    37    38   ar
    17    36    35   ar
    18     3     2   ar
    19     3     4   ar
    20     2     1   ar
    21    38    40    1
    22    38    39   ar
    23    35    39   ar
    24    35    27    1
    25    28    27   ar
    26    28    24   ar
    27    27    26   ar
    28     4    13    1
    29     4     5   ar
    30     1     6    1
    31     1     5   ar
    32    17    13   ar
    33    17    16   ar
    34    13    14   ar
    35    24    16    1
    36    24    25   ar
    37    19    18    1
    38    16    15   ar
    39    26    33    1
    40    26    25   ar
    41    34    33    1
    42    14    15   ar
    43    14    18    1
    44    15    22    1
    45    25    29    1
    46    18    21    1
    47    22    23    1
    48    29    30    1
    49    29    32    1
