@<TRIPOS>MOLECULE
mol_data/opt/m06hf/geoms/mol2/12ig12ig12ig-12ig-.out
 46 49 0 0 0
SMALL
GASTEIGER

@<TRIPOS>ATOM
      1 C           1.3536    2.3443    2.2821 C.ar    1  LIG1        0.0967
      2 C           2.0809    1.9640    1.2032 C.ar    1  LIG1        0.0012
      3 C           1.8959    3.0238    0.2413 C.ar    1  LIG1        0.0566
      4 C           1.0885    3.9454    0.8341 C.ar    1  LIG1        0.1833
      5 O           0.7497    3.5298    2.0762 O.2     1  LIG1       -0.4584
      6 H           1.1809    1.8765    3.2361 H       1  LIG1        0.1032
      7 C           2.8889    0.7080    1.0122 C.3     1  LIG1       -0.0357
      8 H           3.9307    0.9536    0.8003 H       1  LIG1        0.0279
      9 H           2.4928    0.1303    0.1758 H       1  LIG1        0.0279
     10 H           2.8500    0.0976    1.9135 H       1  LIG1        0.0279
     11 S           2.5740    3.0090   -1.3863 S.3     1  LIG1       -0.1386
     12 H           1.7599    3.9585   -1.8647 H       1  LIG1        0.1072
     13 C           0.5781    5.2258    0.3563 C.ar    1  LIG1        0.1758
     14 C           1.2263    6.2834   -0.2089 C.ar    1  LIG1        0.0123
     15 C           0.1887    7.2350   -0.5125 C.ar    1  LIG1        0.0573
     16 C          -0.9794    6.6832   -0.0810 C.ar    1  LIG1        0.1843
     17 O          -0.7499    5.4565    0.4375 O.2     1  LIG1       -0.4472
     18 C           2.7039    6.4609   -0.4319 C.3     1  LIG1       -0.0349
     19 H           3.0326    7.3980    0.0206 H       1  LIG1        0.0279
     20 H           2.9318    6.4940   -1.4993 H       1  LIG1        0.0279
     21 H           3.2503    5.6351    0.0220 H       1  LIG1        0.0279
     22 S           0.4755    8.7736   -1.3219 S.3     1  LIG1       -0.1386
     23 H          -0.8159    9.0154   -1.5812 H       1  LIG1        0.1072
     24 C          -2.3445    7.1973   -0.1044 C.ar    1  LIG1        0.1758
     25 C          -2.8508    8.3855    0.3304 C.ar    1  LIG1        0.0123
     26 C          -4.2467    8.3436   -0.0218 C.ar    1  LIG1        0.0573
     27 C          -4.4618    7.1331   -0.6082 C.ar    1  LIG1        0.1843
     28 O          -3.3058    6.4358   -0.6699 O.2     1  LIG1       -0.4472
     29 C          -2.1382    9.4963    1.0539 C.3     1  LIG1       -0.0349
     30 H          -2.6604    9.7215    1.9851 H       1  LIG1        0.0279
     31 H          -2.1177   10.4007    0.4425 H       1  LIG1        0.0279
     32 H          -1.1153    9.1981    1.2817 H       1  LIG1        0.0279
     33 S          -5.3689    9.6748    0.2521 S.3     1  LIG1       -0.1386
     34 H          -6.3381    9.1654   -0.5171 H       1  LIG1        0.1072
     35 C          -5.6759    6.5387   -1.1568 C.ar    1  LIG1        0.1748
     36 C          -6.9229    6.3960   -0.6297 C.ar    1  LIG1        0.0116
     37 C          -7.7042    5.7969   -1.6864 C.ar    1  LIG1        0.0462
     38 C          -6.8623    5.6298   -2.7376 C.ar    1  LIG1        0.1061
     39 O          -5.6361    6.0746   -2.4322 O.2     1  LIG1       -0.4584
     40 H          -7.0102    5.2241   -3.7237 H       1  LIG1        0.1041
     41 C          -7.3899    6.7287    0.7615 C.3     1  LIG1       -0.0350
     42 H          -7.8445    5.8468    1.2142 H       1  LIG1        0.0279
     43 H          -8.1402    7.5205    0.7336 H       1  LIG1        0.0279
     44 H          -6.5477    7.0519    1.3723 H       1  LIG1        0.0279
     45 S          -9.4345    5.4355   -1.6730 S.3     1  LIG1       -0.1393
     46 H          -9.3591    4.2653   -1.0256 H       1  LIG1        0.1072
@<TRIPOS>BOND
     1    40    38    1
     2    38    39   ar
     3    38    37   ar
     4    39    35   ar
     5    12    11    1
     6    37    45    1
     7    37    36   ar
     8    45    46    1
     9    23    22    1
    10    20    18    1
    11    11     3    1
    12    22    15    1
    13    35    36   ar
    14    35    27    1
    15    28    27   ar
    16    28    24   ar
    17    36    41    1
    18    27    26   ar
    19    34    33    1
    20    15    14   ar
    21    15    16   ar
    22    18    14    1
    23    18    19    1
    24    18    21    1
    25    14    13   ar
    26    24    16    1
    27    24    25   ar
    28    16    17   ar
    29    26    33    1
    30    26    25   ar
    31     9     7    1
    32     3     4   ar
    33     3     2   ar
    34    25    29    1
    35    13    17   ar
    36    13     4    1
    37    31    29    1
    38    43    41    1
    39    41    42    1
    40    41    44    1
    41     8     7    1
    42     4     5   ar
    43     7     2    1
    44     7    10    1
    45    29    32    1
    46    29    30    1
    47     2     1   ar
    48     5     1   ar
    49     1     6    1
