@<TRIPOS>MOLECULE
mol_data/opt/m06hf/geoms/mol2/12ig12ig-12ig-12ig.out
 46 49 0 0 0
SMALL
GASTEIGER

@<TRIPOS>ATOM
      1 C           1.0451    1.5719    0.1292 C.ar    1  LIG1        0.0967
      2 C           2.2392    1.9230   -0.4079 C.ar    1  LIG1        0.0012
      3 C           2.2257    3.3658   -0.4262 C.ar    1  LIG1        0.0566
      4 C           1.0345    3.7470    0.1122 C.ar    1  LIG1        0.1833
      5 O           0.3103    2.6546    0.4451 O.2     1  LIG1       -0.4584
      6 H           0.5998    0.6137    0.3343 H       1  LIG1        0.1032
      7 C           3.3425    1.0290   -0.9078 C.3     1  LIG1       -0.0357
      8 H           4.2629    1.2113   -0.3508 H       1  LIG1        0.0279
      9 H           3.5335    1.2233   -1.9641 H       1  LIG1        0.0279
     10 H           3.0617   -0.0164   -0.7861 H       1  LIG1        0.0279
     11 S           3.5171    4.3582   -1.1036 S.3     1  LIG1       -0.1386
     12 H           2.7742    5.4699   -1.1954 H       1  LIG1        0.1072
     13 C           0.4608    5.0661    0.3512 C.ar    1  LIG1        0.1758
     14 C           0.9770    6.1748    0.9500 C.ar    1  LIG1        0.0123
     15 C          -0.0633    7.1693    0.8517 C.ar    1  LIG1        0.0573
     16 C          -1.1109    6.5711    0.2136 C.ar    1  LIG1        0.1843
     17 O          -0.7980    5.2977   -0.0888 O.2     1  LIG1       -0.4472
     18 C           2.3042    6.3255    1.6416 C.3     1  LIG1       -0.0349
     19 H           2.1474    6.7652    2.6273 H       1  LIG1        0.0279
     20 H           2.9694    6.9803    1.0743 H       1  LIG1        0.0279
     21 H           2.7805    5.3515    1.7463 H       1  LIG1        0.0279
     22 S          -0.0725    8.7664    1.6065 S.3     1  LIG1       -0.1386
     23 H           0.9670    9.2579    0.9203 H       1  LIG1        0.1072
     24 C          -2.4366    7.0478   -0.1695 C.ar    1  LIG1        0.1758
     25 C          -2.8417    8.1983   -0.7740 C.ar    1  LIG1        0.0123
     26 C          -4.2714    8.0686   -0.8885 C.ar    1  LIG1        0.0573
     27 C          -4.5972    6.8602   -0.3480 C.ar    1  LIG1        0.1843
     28 O          -3.4824    6.2329    0.0841 O.2     1  LIG1       -0.4472
     29 C          -2.0009    9.3342   -1.2875 C.3     1  LIG1       -0.0349
     30 H          -2.3431    9.6176   -2.2837 H       1  LIG1        0.0279
     31 H          -0.9576    9.0245   -1.3390 H       1  LIG1        0.0279
     32 H          -2.0776   10.1974   -0.6249 H       1  LIG1        0.0279
     33 S          -5.3127    9.2625   -1.6646 S.3     1  LIG1       -0.1386
     34 H          -6.3160    8.4086   -1.9002 H       1  LIG1        0.1072
     35 C          -5.8806    6.1858   -0.1955 C.ar    1  LIG1        0.1748
     36 C          -7.0712    6.6184    0.3025 C.ar    1  LIG1        0.0116
     37 C          -7.9664    5.4960    0.1444 C.ar    1  LIG1        0.0462
     38 C          -7.2373    4.5002   -0.4203 C.ar    1  LIG1        0.1061
     39 O          -5.9782    4.9057   -0.6355 O.2     1  LIG1       -0.4584
     40 H          -7.4892    3.4948   -0.7109 H       1  LIG1        0.1041
     41 C          -7.3859    7.9473    0.9339 C.3     1  LIG1       -0.0350
     42 H          -7.8549    7.7899    1.9059 H       1  LIG1        0.0279
     43 H          -8.0790    8.5136    0.3094 H       1  LIG1        0.0279
     44 H          -6.4714    8.5240    1.0658 H       1  LIG1        0.0279
     45 S          -9.6924    5.4310    0.5208 S.3     1  LIG1       -0.1393
     46 H          -9.5662    5.3244    1.8506 H       1  LIG1        0.1072
@<TRIPOS>BOND
     1    30    29    1
     2     9     7    1
     3    34    33    1
     4    33    26    1
     5    31    29    1
     6    29    25    1
     7    29    32    1
     8    12    11    1
     9    11     3    1
    10     7    10    1
    11     7     2    1
    12     7     8    1
    13    26    25   ar
    14    26    27   ar
    15    25    24   ar
    16    40    38    1
    17    39    38   ar
    18    39    35   ar
    19     3     2   ar
    20     3     4   ar
    21    38    37   ar
    22     2     1   ar
    23    27    35    1
    24    27    28   ar
    25    35    36   ar
    26    24    28   ar
    27    24    16    1
    28    17    16   ar
    29    17    13   ar
    30     4    13    1
    31     4     5   ar
    32     1     6    1
    33     1     5   ar
    34    37    36   ar
    35    37    45    1
    36    16    15   ar
    37    36    41    1
    38    43    41    1
    39    13    14   ar
    40    45    46    1
    41    15    14   ar
    42    15    22    1
    43    23    22    1
    44    41    44    1
    45    41    42    1
    46    14    18    1
    47    20    18    1
    48    18    21    1
    49    18    19    1
