@<TRIPOS>MOLECULE
mol_data/opt/m06hf/geoms/mol2/12ig12ig12ig-12ig.out
 46 49 0 0 0
SMALL
GASTEIGER

@<TRIPOS>ATOM
      1 C           1.3262    2.3474    2.3278 C.ar    1  LIG1        0.0967
      2 C           2.0674    1.9668    1.2585 C.ar    1  LIG1        0.0012
      3 C           1.8939    3.0260    0.2937 C.ar    1  LIG1        0.0566
      4 C           1.0785    3.9474    0.8756 C.ar    1  LIG1        0.1833
      5 O           0.7243    3.5324    2.1136 O.2     1  LIG1       -0.4584
      6 H           1.1417    1.8800    3.2799 H       1  LIG1        0.1032
      7 C           2.8785    0.7112    1.0785 C.3     1  LIG1       -0.0357
      8 H           3.9226    0.9572    0.8790 H       1  LIG1        0.0279
      9 H           2.4928    0.1324    0.2380 H       1  LIG1        0.0279
     10 H           2.8291    0.1016    1.9799 H       1  LIG1        0.0279
     11 S           2.5923    3.0104   -1.3254 S.3     1  LIG1       -0.1386
     12 H           1.7837    3.9591   -1.8146 H       1  LIG1        0.1072
     13 C           0.5734    5.2272    0.3905 C.ar    1  LIG1        0.1758
     14 C           1.2279    6.2846   -0.1675 C.ar    1  LIG1        0.0123
     15 C           0.1936    7.2355   -0.4847 C.ar    1  LIG1        0.0573
     16 C          -0.9794    6.6833   -0.0672 C.ar    1  LIG1        0.1843
     17 O          -0.7557    5.4572    0.4551 O.2     1  LIG1       -0.4472
     18 C           2.7081    6.4629   -0.3722 C.3     1  LIG1       -0.0349
     19 H           3.0305    7.4007    0.0833 H       1  LIG1        0.0279
     20 H           2.9493    6.4950   -1.4367 H       1  LIG1        0.0279
     21 H           3.2493    5.6379    0.0893 H       1  LIG1        0.0279
     22 S           0.4897    8.7735   -1.2917 S.3     1  LIG1       -0.1386
     23 H          -0.7987    9.0147   -1.5669 H       1  LIG1        0.1072
     24 C          -2.3444    7.1967   -0.1079 C.ar    1  LIG1        0.1758
     25 C          -2.8565    8.3850    0.3198 C.ar    1  LIG1        0.0123
     26 C          -4.2480    8.3421   -0.0495 C.ar    1  LIG1        0.0573
     27 C          -4.4553    7.1311   -0.6375 C.ar    1  LIG1        0.1843
     28 O          -3.2983    6.4343   -0.6845 O.2     1  LIG1       -0.4472
     29 C          -2.1535    9.4966    1.0512 C.3     1  LIG1       -0.0349
     30 H          -2.6874    9.7225    1.9757 H       1  LIG1        0.0279
     31 H          -2.1256   10.4006    0.4394 H       1  LIG1        0.0279
     32 H          -1.1335    9.1990    1.2923 H       1  LIG1        0.0279
     33 S          -5.3741    9.6729    0.2098 S.3     1  LIG1       -0.1386
     34 H          -6.3337    9.1625   -0.5707 H       1  LIG1        0.1072
     35 C          -5.6624    6.5360   -1.2007 C.ar    1  LIG1        0.1748
     36 C          -6.9156    6.3931   -0.6887 C.ar    1  LIG1        0.0116
     37 C          -7.6839    5.7934   -1.7545 C.ar    1  LIG1        0.0462
     38 C          -6.8292    5.6262   -2.7954 C.ar    1  LIG1        0.1061
     39 O          -5.6069    6.0714   -2.4753 O.2     1  LIG1       -0.4584
     40 H          -6.9650    5.2199   -3.7830 H       1  LIG1        0.1041
     41 C          -7.3997    6.7264    0.6966 C.3     1  LIG1       -0.0350
     42 H          -7.8592    5.8445    1.1443 H       1  LIG1        0.0279
     43 H          -8.1500    7.5178    0.6591 H       1  LIG1        0.0279
     44 H          -6.5651    7.0503    1.3173 H       1  LIG1        0.0279
     45 S          -9.4142    5.4320   -1.7621 S.3     1  LIG1       -0.1393
     46 H          -9.3467    4.2613   -1.1146 H       1  LIG1        0.1072
@<TRIPOS>BOND
     1    40    38    1
     2    38    39   ar
     3    38    37   ar
     4    39    35   ar
     5    12    11    1
     6    45    37    1
     7    45    46    1
     8    37    36   ar
     9    23    22    1
    10    20    18    1
    11    11     3    1
    12    22    15    1
    13    35    36   ar
    14    35    27    1
    15    36    41    1
    16    28    27   ar
    17    28    24   ar
    18    27    26   ar
    19    34    33    1
    20    15    14   ar
    21    15    16   ar
    22    18    14    1
    23    18    19    1
    24    18    21    1
    25    14    13   ar
    26    24    16    1
    27    24    25   ar
    28    16    17   ar
    29    26    33    1
    30    26    25   ar
    31     9     7    1
    32     3     4   ar
    33     3     2   ar
    34    25    29    1
    35    13    17   ar
    36    13     4    1
    37    31    29    1
    38    43    41    1
    39    41    42    1
    40    41    44    1
    41     4     5   ar
    42     8     7    1
    43    29    32    1
    44    29    30    1
    45     7     2    1
    46     7    10    1
    47     2     1   ar
    48     5     1   ar
    49     1     6    1
