@<TRIPOS>MOLECULE
mol_data/opt/m06hf/geoms/mol2/12ig12ig12ig-.out
 35 37 0 0 0
SMALL
GASTEIGER

@<TRIPOS>ATOM
      1 C           0.7014    1.9534    1.3892 C.ar    1  LIG1        0.0967
      2 C           1.6865    1.8122    0.4685 C.ar    1  LIG1        0.0012
      3 C           1.7500    3.0887   -0.2018 C.ar    1  LIG1        0.0566
      4 C           0.8115    3.8808    0.3859 C.ar    1  LIG1        0.1833
      5 O           0.1637    3.1870    1.3497 O.2     1  LIG1       -0.4584
      6 H           0.2885    1.2724    2.1135 H       1  LIG1        0.1032
      7 C           2.5265    0.5990    0.1707 C.3     1  LIG1       -0.0357
      8 H           3.5832    0.8199    0.3278 H       1  LIG1        0.0279
      9 H           2.3878    0.2925   -0.8670 H       1  LIG1        0.0279
     10 H           2.2397   -0.2248    0.8233 H       1  LIG1        0.0279
     11 S           2.8216    3.4438   -1.5578 S.3     1  LIG1       -0.1386
     12 H           2.1188    4.4958   -1.9938 H       1  LIG1        0.1072
     13 C           0.4298    5.2668    0.1410 C.ar    1  LIG1        0.1758
     14 C           1.1906    6.3918    0.0313 C.ar    1  LIG1        0.0123
     15 C           0.2544    7.4457   -0.2637 C.ar    1  LIG1        0.0573
     16 C          -0.9822    6.8731   -0.2743 C.ar    1  LIG1        0.1843
     17 O          -0.8795    5.5461   -0.0398 O.2     1  LIG1       -0.4472
     18 C           2.6779    6.5328    0.2136 C.3     1  LIG1       -0.0349
     19 H           2.8866    7.3238    0.9358 H       1  LIG1        0.0279
     20 H           3.1589    6.7916   -0.7319 H       1  LIG1        0.0279
     21 H           3.0966    5.5963    0.5791 H       1  LIG1        0.0279
     22 S           0.7267    9.1164   -0.5695 S.3     1  LIG1       -0.1386
     23 H          -0.4405    9.4745   -1.1224 H       1  LIG1        0.1072
     24 C          -2.3037    7.4482   -0.4951 C.ar    1  LIG1        0.1748
     25 C          -2.9042    8.5404    0.0538 C.ar    1  LIG1        0.0116
     26 C          -4.1872    8.6253   -0.6008 C.ar    1  LIG1        0.0462
     27 C          -4.2461    7.5828   -1.4655 C.ar    1  LIG1        0.1061
     28 O          -3.1101    6.8619   -1.4080 O.2     1  LIG1       -0.4584
     29 H          -5.0034    7.2433   -2.1504 H       1  LIG1        0.1041
     30 C          -2.3906    9.4325    1.1519 C.3     1  LIG1       -0.0350
     31 H          -3.1491    9.5197    1.9312 H       1  LIG1        0.0279
     32 H          -2.1696   10.4321    0.7717 H       1  LIG1        0.0279
     33 H          -1.4815    9.0108    1.5789 H       1  LIG1        0.0279
     34 S          -5.3698    9.8946   -0.2604 S.3     1  LIG1       -0.1393
     35 H          -6.4241    9.2445   -0.7633 H       1  LIG1        0.1072
@<TRIPOS>BOND
     1    29    27    1
     2    12    11    1
     3    11     3    1
     4    27    28   ar
     5    27    26   ar
     6    28    24   ar
     7    23    22    1
     8     9     7    1
     9    35    34    1
    10    20    18    1
    11    26    34    1
    12    26    25   ar
    13    22    15    1
    14    24    16    1
    15    24    25   ar
    16    16    15   ar
    17    16    17   ar
    18    15    14   ar
    19     3     4   ar
    20     3     2   ar
    21    17    13   ar
    22    14    13   ar
    23    14    18    1
    24    25    30    1
    25    13     4    1
    26     7     8    1
    27     7     2    1
    28     7    10    1
    29    18    21    1
    30    18    19    1
    31     4     5   ar
    32     2     1   ar
    33    32    30    1
    34    30    33    1
    35    30    31    1
    36     5     1   ar
    37     1     6    1
