@<TRIPOS>MOLECULE
mol_data/opt/m06hf/geoms/mol2/12ig12ig-12ig12ig-.out
 46 49 0 0 0
SMALL
GASTEIGER

@<TRIPOS>ATOM
      1 C           1.3962    2.3585    2.2798 C.ar    1  LIG1        0.0967
      2 C           2.1035    1.9725    1.1897 C.ar    1  LIG1        0.0012
      3 C           1.9010    3.0275    0.2260 C.ar    1  LIG1        0.0566
      4 C           1.1050    3.9525    0.8289 C.ar    1  LIG1        0.1833
      5 O           0.7891    3.5433    2.0792 O.2     1  LIG1       -0.4584
      6 H           1.2410    1.8956    3.2392 H       1  LIG1        0.1032
      7 C           2.9073    0.7152    0.9900 C.3     1  LIG1       -0.0357
      8 H           3.9450    0.9592    0.7572 H       1  LIG1        0.0279
      9 H           2.4951    0.1334    0.1642 H       1  LIG1        0.0279
     10 H           2.8852    0.1094    1.8950 H       1  LIG1        0.0279
     11 S           2.5486    3.0040   -1.4139 S.3     1  LIG1       -0.1386
     12 H           1.7248    3.9500   -1.8825 H       1  LIG1        0.1072
     13 C           0.5856    5.2301    0.3535 C.ar    1  LIG1        0.1758
     14 C           1.2227    6.2840   -0.2307 C.ar    1  LIG1        0.0123
     15 C           0.1793    7.2335   -0.5211 C.ar    1  LIG1        0.0573
     16 C          -0.9803    6.6843   -0.0641 C.ar    1  LIG1        0.1843
     17 O          -0.7408    5.4611    0.4580 O.2     1  LIG1       -0.4472
     18 C           2.6958    6.4605   -0.4824 C.3     1  LIG1       -0.0349
     19 H           3.0327    7.4003   -0.0417 H       1  LIG1        0.0279
     20 H           2.9037    6.4874   -1.5541 H       1  LIG1        0.0279
     21 H           3.2509    5.6374   -0.0342 H       1  LIG1        0.0279
     22 S           0.4506    8.7664   -1.3465 S.3     1  LIG1       -0.1386
     23 H          -0.8456    9.0061   -1.5834 H       1  LIG1        0.1072
     24 C          -2.3459    7.1976   -0.0658 C.ar    1  LIG1        0.1758
     25 C          -2.8448    8.3892    0.3683 C.ar    1  LIG1        0.0123
     26 C          -4.2470    8.3435    0.0427 C.ar    1  LIG1        0.0573
     27 C          -4.4723    7.1278   -0.5288 C.ar    1  LIG1        0.1843
     28 O          -3.3172    6.4307   -0.6063 O.2     1  LIG1       -0.4472
     29 C          -2.1198    9.5063    1.0693 C.3     1  LIG1       -0.0349
     30 H          -2.6248    9.7389    2.0081 H       1  LIG1        0.0279
     31 H          -2.1112   10.4057    0.4503 H       1  LIG1        0.0279
     32 H          -1.0926    9.2107    1.2807 H       1  LIG1        0.0279
     33 S          -5.3646    9.6766    0.3265 S.3     1  LIG1       -0.1386
     34 H          -6.3479    9.1605   -0.4202 H       1  LIG1        0.1072
     35 C          -5.6961    6.5275   -1.0488 C.ar    1  LIG1        0.1748
     36 C          -6.9331    6.3898   -0.4974 C.ar    1  LIG1        0.0116
     37 C          -7.7331    5.7786   -1.5329 C.ar    1  LIG1        0.0462
     38 C          -6.9104    5.6003   -2.5974 C.ar    1  LIG1        0.1061
     39 O          -5.6792    6.0494   -2.3196 O.2     1  LIG1       -0.4584
     40 H          -7.0759    5.1833   -3.5760 H       1  LIG1        0.1041
     41 C          -7.3750    6.7369    0.8985 C.3     1  LIG1       -0.0350
     42 H          -7.8196    5.8593    1.3691 H       1  LIG1        0.0279
     43 H          -8.1270    7.5272    0.8758 H       1  LIG1        0.0279
     44 H          -6.5223    7.0679    1.4902 H       1  LIG1        0.0279
     45 S          -9.4627    5.4174   -1.4850 S.3     1  LIG1       -0.1393
     46 H          -9.3768    4.2617   -0.8138 H       1  LIG1        0.1072
@<TRIPOS>BOND
     1    40    38    1
     2    38    39   ar
     3    38    37   ar
     4    39    35   ar
     5    12    11    1
     6    23    22    1
     7    20    18    1
     8    37    45    1
     9    37    36   ar
    10    45    46    1
    11    11     3    1
    12    22    15    1
    13    35    27    1
    14    35    36   ar
    15    28    27   ar
    16    28    24   ar
    17    27    26   ar
    18    15    14   ar
    19    15    16   ar
    20    36    41    1
    21    18    14    1
    22    18    19    1
    23    18    21    1
    24    34    33    1
    25    14    13   ar
    26    24    16    1
    27    24    25   ar
    28    16    17   ar
    29    26    33    1
    30    26    25   ar
    31     9     7    1
    32     3     4   ar
    33     3     2   ar
    34    13    17   ar
    35    13     4    1
    36    25    29    1
    37    31    29    1
    38     8     7    1
    39     4     5   ar
    40    43    41    1
    41    41    42    1
    42    41    44    1
    43     7     2    1
    44     7    10    1
    45    29    32    1
    46    29    30    1
    47     2     1   ar
    48     5     1   ar
    49     1     6    1
