@<TRIPOS>MOLECULE
mol_data/opt/m06hf/geoms/mol2/12ig12ig-12ig-12ig-.out
 46 49 0 0 0
SMALL
GASTEIGER

@<TRIPOS>ATOM
      1 C           0.9909    1.5874    0.0021 C.ar    1  LIG1        0.0967
      2 C           2.2235    1.9185   -0.4545 C.ar    1  LIG1        0.0012
      3 C           2.2483    3.3617   -0.4388 C.ar    1  LIG1        0.0566
      4 C           1.0372    3.7625    0.0392 C.ar    1  LIG1        0.1833
      5 O           0.2666    2.6829    0.2991 O.2     1  LIG1       -0.4584
      6 H           0.5094    0.6375    0.1578 H       1  LIG1        0.1032
      7 C           3.3306    1.0066   -0.9113 C.3     1  LIG1       -0.0357
      8 H           4.2192    1.1451   -0.2935 H       1  LIG1        0.0279
      9 H           3.5929    1.2264   -1.9470 H       1  LIG1        0.0279
     10 H           3.0129   -0.0330   -0.8389 H       1  LIG1        0.0279
     11 S           3.6108    4.3271   -1.0062 S.3     1  LIG1       -0.1386
     12 H           2.8851    5.4119   -1.3063 H       1  LIG1        0.1072
     13 C           0.4731    5.0848    0.2821 C.ar    1  LIG1        0.1758
     14 C           0.9855    6.1873    0.8958 C.ar    1  LIG1        0.0123
     15 C          -0.0585    7.1791    0.8086 C.ar    1  LIG1        0.0573
     16 C          -1.1046    6.5850    0.1643 C.ar    1  LIG1        0.1843
     17 O          -0.7864    5.3172   -0.1551 O.2     1  LIG1       -0.4472
     18 C           2.3077    6.3344    1.5972 C.3     1  LIG1       -0.0349
     19 H           2.1481    6.8153    2.5630 H       1  LIG1        0.0279
     20 H           2.9958    6.9498    1.0134 H       1  LIG1        0.0279
     21 H           2.7601    5.3547    1.7460 H       1  LIG1        0.0279
     22 S          -0.0812    8.7630    1.5896 S.3     1  LIG1       -0.1386
     23 H           0.9484    9.2820    0.9092 H       1  LIG1        0.1072
     24 C          -2.4374    7.0577   -0.1988 C.ar    1  LIG1        0.1758
     25 C          -2.8580    8.2119   -0.7850 C.ar    1  LIG1        0.0123
     26 C          -4.2891    8.0773   -0.8749 C.ar    1  LIG1        0.0573
     27 C          -4.6003    6.8632   -0.3389 C.ar    1  LIG1        0.1843
     28 O          -3.4753    6.2364    0.0667 O.2     1  LIG1       -0.4472
     29 C          -2.0310    9.3576   -1.2991 C.3     1  LIG1       -0.0349
     30 H          -2.3834    9.6441   -2.2909 H       1  LIG1        0.0279
     31 H          -0.9855    9.0572   -1.3604 H       1  LIG1        0.0279
     32 H          -2.1100   10.2162   -0.6308 H       1  LIG1        0.0279
     33 S          -5.3488    9.2738   -1.6213 S.3     1  LIG1       -0.1386
     34 H          -6.3549    8.4194   -1.8426 H       1  LIG1        0.1072
     35 C          -5.8783    6.1841   -0.1634 C.ar    1  LIG1        0.1748
     36 C          -7.0569    6.6085    0.3691 C.ar    1  LIG1        0.0116
     37 C          -7.9527    5.4849    0.2238 C.ar    1  LIG1        0.0462
     38 C          -7.2357    4.4966   -0.3686 C.ar    1  LIG1        0.1061
     39 O          -5.9836    4.9076   -0.6120 O.2     1  LIG1       -0.4584
     40 H          -7.4923    3.4931   -0.6619 H       1  LIG1        0.1041
     41 C          -7.3584    7.9310    1.0202 C.3     1  LIG1       -0.0350
     42 H          -7.8042    7.7639    2.0013 H       1  LIG1        0.0279
     43 H          -8.0667    8.5023    0.4177 H       1  LIG1        0.0279
     44 H          -6.4416    8.5077    1.1358 H       1  LIG1        0.0279
     45 S          -9.6676    5.4105    0.6460 S.3     1  LIG1       -0.1393
     46 H          -9.5047    5.2704    1.9683 H       1  LIG1        0.1072
@<TRIPOS>BOND
     1    30    29    1
     2     9     7    1
     3    34    33    1
     4    33    26    1
     5    31    29    1
     6    12    11    1
     7    29    25    1
     8    29    32    1
     9    11     3    1
    10     7    10    1
    11     7     2    1
    12     7     8    1
    13    26    25   ar
    14    26    27   ar
    15    25    24   ar
    16    40    38    1
    17    39    38   ar
    18    39    35   ar
    19     2     3   ar
    20     2     1   ar
    21     3     4   ar
    22    38    37   ar
    23    27    35    1
    24    27    28   ar
    25    24    28   ar
    26    24    16    1
    27    35    36   ar
    28    17    16   ar
    29    17    13   ar
    30     1     6    1
    31     1     5   ar
    32     4    13    1
    33     4     5   ar
    34    16    15   ar
    35    37    36   ar
    36    37    45    1
    37    13    14   ar
    38    36    41    1
    39    43    41    1
    40    45    46    1
    41    15    14   ar
    42    15    22    1
    43    14    18    1
    44    23    22    1
    45    20    18    1
    46    41    44    1
    47    41    42    1
    48    18    21    1
    49    18    19    1
