@<TRIPOS>MOLECULE
mol_data/opt/m06hf/geoms/mol2/12ig12ig.out
 24 25 0 0 0
SMALL
GASTEIGER

@<TRIPOS>ATOM
      1 C           0.3304    1.8724    0.7670 C.ar    1  LIG1        0.0967
      2 C           1.5274    1.8228    0.1334 C.ar    1  LIG1        0.0012
      3 C           1.7641    3.1743   -0.3144 C.ar    1  LIG1        0.0566
      4 C           0.6985    3.9112    0.1015 C.ar    1  LIG1        0.1833
      5 O          -0.1811    3.1182    0.7561 O.2     1  LIG1       -0.4584
      6 H          -0.2593    1.1156    1.2551 H       1  LIG1        0.1032
      7 C           2.4222    0.6330   -0.0896 C.3     1  LIG1       -0.0357
      8 H           3.3939    0.7942    0.3800 H       1  LIG1        0.0279
      9 H           2.5766    0.4738   -1.1577 H       1  LIG1        0.0279
     10 H           1.9705   -0.2611    0.3385 H       1  LIG1        0.0279
     11 S           3.1591    3.6698   -1.2723 S.3     1  LIG1       -0.1386
     12 H           2.6299    4.8427   -1.6452 H       1  LIG1        0.1072
     13 C           0.3847    5.3265   -0.0591 C.ar    1  LIG1        0.1747
     14 C           1.1285    6.4411    0.1841 C.ar    1  LIG1        0.0116
     15 C           0.2888    7.5428   -0.2206 C.ar    1  LIG1        0.0462
     16 C          -0.8746    6.9990   -0.6539 C.ar    1  LIG1        0.1061
     17 O          -0.8267    5.6559   -0.5607 O.2     1  LIG1       -0.4584
     18 H          -1.7851    7.4276   -1.0343 H       1  LIG1        0.1041
     19 C           2.4965    6.5280    0.8057 C.3     1  LIG1       -0.0350
     20 H           2.4660    7.2079    1.6588 H       1  LIG1        0.0279
     21 H           3.2279    6.9065    0.0887 H       1  LIG1        0.0279
     22 H           2.8135    5.5419    1.1436 H       1  LIG1        0.0279
     23 S           0.7829    9.2376   -0.1164 S.3     1  LIG1       -0.1393
     24 H          -0.4298    9.7447   -0.3570 H       1  LIG1        0.1072
@<TRIPOS>BOND
     1    12    11    1
     2    11     3    1
     3     9     7    1
     4    18    16    1
     5    16    17   ar
     6    16    15   ar
     7    17    13   ar
     8    24    23    1
     9     3     4   ar
    10     3     2   ar
    11    15    23    1
    12    15    14   ar
    13     7     2    1
    14     7    10    1
    15     7     8    1
    16    13     4    1
    17    13    14   ar
    18    21    19    1
    19     4     5   ar
    20     2     1   ar
    21    14    19    1
    22     5     1   ar
    23     1     6    1
    24    19    22    1
    25    19    20    1
