@<TRIPOS>MOLECULE
mol_data/opt/m06hf/geoms/mol2/12ig12ig12ig12ig.out
 46 49 0 0 0
SMALL
GASTEIGER

@<TRIPOS>ATOM
      1 C           1.2214    2.2820    2.1755 C.ar    1  LIG1        0.0967
      2 C           1.9953    1.9414    1.1162 C.ar    1  LIG1        0.0012
      3 C           1.8729    3.0486    0.1985 C.ar    1  LIG1        0.0566
      4 C           1.0515    3.9553    0.7958 C.ar    1  LIG1        0.1833
      5 O           0.6465    3.4865    1.9983 O.2     1  LIG1       -0.4584
      6 H           0.9945    1.7732    3.0964 H       1  LIG1        0.1032
      7 C           2.7926    0.6822    0.9029 C.3     1  LIG1       -0.0357
      8 H           3.8549    0.9133    0.8110 H       1  LIG1        0.0279
      9 H           2.4667    0.1841   -0.0112 H       1  LIG1        0.0279
     10 H           2.6536    0.0042    1.7442 H       1  LIG1        0.0279
     11 S           2.6271    3.0961   -1.3951 S.3     1  LIG1       -0.1386
     12 H           1.8116    4.0364   -1.8884 H       1  LIG1        0.1072
     13 C           0.5701    5.2580    0.3502 C.ar    1  LIG1        0.1758
     14 C           1.2411    6.3241   -0.1694 C.ar    1  LIG1        0.0123
     15 C           0.2191    7.2924   -0.4757 C.ar    1  LIG1        0.0573
     16 C          -0.9638    6.7414   -0.0858 C.ar    1  LIG1        0.1843
     17 O          -0.7574    5.4996    0.4057 O.2     1  LIG1       -0.4472
     18 C           2.7253    6.4942   -0.3505 C.3     1  LIG1       -0.0349
     19 H           3.0501    7.4178    0.1316 H       1  LIG1        0.0279
     20 H           2.9815    6.5492   -1.4106 H       1  LIG1        0.0279
     21 H           3.2527    5.6530    0.0977 H       1  LIG1        0.0279
     22 S           0.5424    8.8430   -1.2494 S.3     1  LIG1       -0.1386
     23 H          -0.7375    9.0977   -1.5488 H       1  LIG1        0.1072
     24 C          -2.3280    7.2555   -0.1261 C.ar    1  LIG1        0.1758
     25 C          -2.8462    8.4483    0.2822 C.ar    1  LIG1        0.0123
     26 C          -4.2430    8.3817   -0.0642 C.ar    1  LIG1        0.0573
     27 C          -4.4473    7.1539   -0.6170 C.ar    1  LIG1        0.1843
     28 O          -3.2830    6.4694   -0.6674 O.2     1  LIG1       -0.4472
     29 C          -2.1501    9.5799    0.9894 C.3     1  LIG1       -0.0349
     30 H          -2.6877    9.8223    1.9075 H       1  LIG1        0.0279
     31 H          -2.1261   10.4713    0.3593 H       1  LIG1        0.0279
     32 H          -1.1293    9.2938    1.2404 H       1  LIG1        0.0279
     33 S          -5.3809    9.7040    0.1876 S.3     1  LIG1       -0.1386
     34 H          -6.3540    9.1569   -0.5503 H       1  LIG1        0.1072
     35 C          -5.6598    6.5133   -1.1145 C.ar    1  LIG1        0.1748
     36 C          -6.8852    6.3512   -0.5439 C.ar    1  LIG1        0.0116
     37 C          -7.6684    5.6601   -1.5412 C.ar    1  LIG1        0.0462
     38 C          -6.8495    5.4672   -2.6057 C.ar    1  LIG1        0.1061
     39 O          -5.6359    5.9818   -2.3633 O.2     1  LIG1       -0.4584
     40 H          -7.0052    4.9974   -3.5614 H       1  LIG1        0.1041
     41 C          -7.3272    6.7391    0.8410 C.3     1  LIG1       -0.0350
     42 H          -7.7411    5.8680    1.3500 H       1  LIG1        0.0279
     43 H          -8.1033    7.5048    0.7934 H       1  LIG1        0.0279
     44 H          -6.4809    7.1193    1.4122 H       1  LIG1        0.0279
     45 S          -9.3734    5.1991   -1.4421 S.3     1  LIG1       -0.1393
     46 H          -9.2006    4.1483   -0.6311 H       1  LIG1        0.1072
@<TRIPOS>BOND
     1    40    38    1
     2    38    39   ar
     3    38    37   ar
     4    39    35   ar
     5    12    11    1
     6    23    22    1
     7    37    45    1
     8    37    36   ar
     9    45    46    1
    10    20    18    1
    11    11     3    1
    12    22    15    1
    13    35    27    1
    14    35    36   ar
    15    28    27   ar
    16    28    24   ar
    17    27    26   ar
    18    34    33    1
    19    36    41    1
    20    15    14   ar
    21    15    16   ar
    22    18    14    1
    23    18    21    1
    24    18    19    1
    25    14    13   ar
    26    24    16    1
    27    24    25   ar
    28    16    17   ar
    29    26    33    1
    30    26    25   ar
    31     9     7    1
    32     3     4   ar
    33     3     2   ar
    34    25    29    1
    35    13    17   ar
    36    13     4    1
    37    31    29    1
    38    43    41    1
    39     4     5   ar
    40     8     7    1
    41    41    42    1
    42    41    44    1
    43     7     2    1
    44     7    10    1
    45    29    32    1
    46    29    30    1
    47     2     1   ar
    48     5     1   ar
    49     1     6    1
