@<TRIPOS>MOLECULE
mol_data/opt/m06hf/geoms/mol2/12ig12ig-12ig.out
 35 37 0 0 0
SMALL
GASTEIGER

@<TRIPOS>ATOM
      1 C           0.7206    1.9594    1.4031 C.ar    1  LIG1        0.0967
      2 C           1.6929    1.8143    0.4696 C.ar    1  LIG1        0.0012
      3 C           1.7470    3.0878   -0.2071 C.ar    1  LIG1        0.0566
      4 C           0.8167    3.8824    0.3901 C.ar    1  LIG1        0.1833
      5 O           0.1823    3.1928    1.3658 O.2     1  LIG1       -0.4584
      6 H           0.3178    1.2817    2.1361 H       1  LIG1        0.1032
      7 C           2.5286    0.5997    0.1653 C.3     1  LIG1       -0.0357
      8 H           3.5876    0.8217    0.3055 H       1  LIG1        0.0279
      9 H           2.3746    0.2880   -0.8687 H       1  LIG1        0.0279
     10 H           2.2519   -0.2208    0.8263 H       1  LIG1        0.0279
     11 S           2.7998    3.4370   -1.5793 S.3     1  LIG1       -0.1386
     12 H           2.0911    4.4872   -2.0101 H       1  LIG1        0.1072
     13 C           0.4316    5.2674    0.1443 C.ar    1  LIG1        0.1758
     14 C           1.1909    6.3918    0.0192 C.ar    1  LIG1        0.0123
     15 C           0.2508    7.4444   -0.2679 C.ar    1  LIG1        0.0573
     16 C          -0.9859    6.8718   -0.2593 C.ar    1  LIG1        0.1843
     17 O          -0.8800    5.5459   -0.0201 O.2     1  LIG1       -0.4472
     18 C           2.6805    6.5337    0.1808 C.3     1  LIG1       -0.0349
     19 H           2.8988    7.3274    0.8971 H       1  LIG1        0.0279
     20 H           3.1485    6.7890   -0.7721 H       1  LIG1        0.0279
     21 H           3.1043    5.5986    0.5440 H       1  LIG1        0.0279
     22 S           0.7190    9.1136   -0.5877 S.3     1  LIG1       -0.1386
     23 H          -0.4555    9.4694   -1.1263 H       1  LIG1        0.1072
     24 C          -2.3102    7.4460   -0.4647 C.ar    1  LIG1        0.1748
     25 C          -2.9031    8.5408    0.0873 C.ar    1  LIG1        0.0116
     26 C          -4.1950    8.6227   -0.5500 C.ar    1  LIG1        0.0462
     27 C          -4.2659    7.5762   -1.4088 C.ar    1  LIG1        0.1061
     28 O          -3.1292    6.8554   -1.3635 O.2     1  LIG1       -0.4584
     29 H          -5.0325    7.2334   -2.0815 H       1  LIG1        0.1041
     30 C          -2.3744    9.4381    1.1739 C.3     1  LIG1       -0.0350
     31 H          -3.1223    9.5295    1.9629 H       1  LIG1        0.0279
     32 H          -2.1581   10.4357    0.7859 H       1  LIG1        0.0279
     33 H          -1.4597    9.0181    1.5908 H       1  LIG1        0.0279
     34 S          -5.3727    9.8939   -0.1992 S.3     1  LIG1       -0.1393
     35 H          -6.4337    9.2417   -0.6848 H       1  LIG1        0.1072
@<TRIPOS>BOND
     1    29    27    1
     2    12    11    1
     3    11     3    1
     4    27    28   ar
     5    27    26   ar
     6    28    24   ar
     7    23    22    1
     8     9     7    1
     9    20    18    1
    10    35    34    1
    11    22    15    1
    12    26    34    1
    13    26    25   ar
    14    24    16    1
    15    24    25   ar
    16    15    16   ar
    17    15    14   ar
    18    16    17   ar
    19     3     4   ar
    20     3     2   ar
    21    17    13   ar
    22    14    13   ar
    23    14    18    1
    24    25    30    1
    25    13     4    1
    26     7     8    1
    27     7     2    1
    28     7    10    1
    29    18    21    1
    30    18    19    1
    31     4     5   ar
    32     2     1   ar
    33    32    30    1
    34    30    33    1
    35    30    31    1
    36     5     1   ar
    37     1     6    1
