@<TRIPOS>MOLECULE
mol_data/opt/m06hf/geoms/mol2/12ig12ig-12ig12ig.out
 46 49 0 0 0
SMALL
GASTEIGER

@<TRIPOS>ATOM
      1 C           1.3217    2.3517    2.3254 C.ar    1  LIG1        0.0967
      2 C           2.0675    1.9729    1.2588 C.ar    1  LIG1        0.0012
      3 C           1.9015    3.0354    0.2963 C.ar    1  LIG1        0.0566
      4 C           1.0860    3.9576    0.8772 C.ar    1  LIG1        0.1833
      5 O           0.7247    3.5395    2.1121 O.2     1  LIG1       -0.4584
      6 H           1.1305    1.8822    3.2749 H       1  LIG1        0.1032
      7 C           2.8767    0.7163    1.0778 C.3     1  LIG1       -0.0357
      8 H           3.9290    0.9590    0.9220 H       1  LIG1        0.0279
      9 H           2.5176    0.1618    0.2097 H       1  LIG1        0.0279
     10 H           2.7903    0.0849    1.9613 H       1  LIG1        0.0279
     11 S           2.6052    3.0190   -1.3202 S.3     1  LIG1       -0.1386
     12 H           1.7899    3.9579   -1.8170 H       1  LIG1        0.1072
     13 C           0.5800    5.2366    0.3918 C.ar    1  LIG1        0.1758
     14 C           1.2297    6.2901   -0.1789 C.ar    1  LIG1        0.0123
     15 C           0.1928    7.2396   -0.4924 C.ar    1  LIG1        0.0573
     16 C          -0.9762    6.6915   -0.0590 C.ar    1  LIG1        0.1843
     17 O          -0.7481    5.4684    0.4684 O.2     1  LIG1       -0.4472
     18 C           2.7080    6.4679   -0.3974 C.3     1  LIG1       -0.0349
     19 H           3.0329    7.4102    0.0469 H       1  LIG1        0.0279
     20 H           2.9410    6.4906   -1.4640 H       1  LIG1        0.0279
     21 H           3.2540    5.6479    0.0673 H       1  LIG1        0.0279
     22 S           0.4827    8.7708   -1.3148 S.3     1  LIG1       -0.1386
     23 H          -0.8080    9.0116   -1.5782 H       1  LIG1        0.1072
     24 C          -2.3414    7.2047   -0.0862 C.ar    1  LIG1        0.1758
     25 C          -2.8481    8.3986    0.3328 C.ar    1  LIG1        0.0123
     26 C          -4.2459    8.3476   -0.0107 C.ar    1  LIG1        0.0573
     27 C          -4.4615    7.1273   -0.5759 C.ar    1  LIG1        0.1843
     28 O          -3.3042    6.4320   -0.6334 O.2     1  LIG1       -0.4472
     29 C          -2.1357    9.5215    1.0373 C.3     1  LIG1       -0.0349
     30 H          -2.6573    9.7612    1.9653 H       1  LIG1        0.0279
     31 H          -2.1168   10.4162    0.4116 H       1  LIG1        0.0279
     32 H          -1.1123    9.2282    1.2692 H       1  LIG1        0.0279
     33 S          -5.3700    9.6798    0.2501 S.3     1  LIG1       -0.1386
     34 H          -6.3449    9.1533   -0.5001 H       1  LIG1        0.1072
     35 C          -5.6787    6.5197   -1.1029 C.ar    1  LIG1        0.1748
     36 C          -6.9190    6.3801   -0.5596 C.ar    1  LIG1        0.0116
     37 C          -7.7091    5.7594   -1.5970 C.ar    1  LIG1        0.0462
     38 C          -6.8781    5.5788   -2.6548 C.ar    1  LIG1        0.1061
     39 O          -5.6508    6.0347   -2.3708 O.2     1  LIG1       -0.4584
     40 H          -7.0348    5.1554   -3.6320 H       1  LIG1        0.1041
     41 C          -7.3723    6.7330    0.8312 C.3     1  LIG1       -0.0350
     42 H          -7.8139    5.8554    1.3045 H       1  LIG1        0.0279
     43 H          -8.1295    7.5180    0.7985 H       1  LIG1        0.0279
     44 H          -6.5258    7.0737    1.4262 H       1  LIG1        0.0279
     45 S          -9.4368    5.3871   -1.5561 S.3     1  LIG1       -0.1393
     46 H          -9.3448    4.2290   -0.8893 H       1  LIG1        0.1072
@<TRIPOS>BOND
     1    40    38    1
     2    38    39   ar
     3    38    37   ar
     4    39    35   ar
     5    12    11    1
     6    37    45    1
     7    37    36   ar
     8    23    22    1
     9    45    46    1
    10    20    18    1
    11    11     3    1
    12    22    15    1
    13    35    27    1
    14    35    36   ar
    15    28    27   ar
    16    28    24   ar
    17    27    26   ar
    18    36    41    1
    19    34    33    1
    20    15    14   ar
    21    15    16   ar
    22    18    14    1
    23    18    19    1
    24    18    21    1
    25    14    13   ar
    26    24    16    1
    27    24    25   ar
    28    16    17   ar
    29    26    33    1
    30    26    25   ar
    31     9     7    1
    32     3     4   ar
    33     3     2   ar
    34    25    29    1
    35    13    17   ar
    36    13     4    1
    37    31    29    1
    38    43    41    1
    39    41    42    1
    40    41    44    1
    41     4     5   ar
    42     8     7    1
    43    29    32    1
    44    29    30    1
    45     7     2    1
    46     7    10    1
    47     2     1   ar
    48     5     1   ar
    49     1     6    1
