@<TRIPOS>MOLECULE
mol_data/opt/m06hf/geoms/mol2/12ig12ig-.out
 24 25 0 0 0
SMALL
GASTEIGER

@<TRIPOS>ATOM
      1 C           0.3365    1.8752    0.7781 C.ar    1  LIG1        0.0967
      2 C           1.5282    1.8232    0.1346 C.ar    1  LIG1        0.0012
      3 C           1.7612    3.1732   -0.3197 C.ar    1  LIG1        0.0566
      4 C           0.6992    3.9116    0.1026 C.ar    1  LIG1        0.1833
      5 O          -0.1749    3.1209    0.7673 O.2     1  LIG1       -0.4584
      6 H          -0.2491    1.1200    1.2737 H       1  LIG1        0.1032
      7 C           2.4210    0.6326   -0.0919 C.3     1  LIG1       -0.0357
      8 H           3.3967    0.7953    0.3688 H       1  LIG1        0.0279
      9 H           2.5662    0.4696   -1.1607 H       1  LIG1        0.0279
     10 H           1.9728   -0.2600    0.3431 H       1  LIG1        0.0279
     11 S           3.1482    3.6652   -1.2910 S.3     1  LIG1       -0.1386
     12 H           2.6161    4.8371   -1.6633 H       1  LIG1        0.1072
     13 C           0.3843    5.3265   -0.0601 C.ar    1  LIG1        0.1747
     14 C           1.1302    6.4417    0.1732 C.ar    1  LIG1        0.0116
     15 C           0.2874    7.5422   -0.2280 C.ar    1  LIG1        0.0462
     16 C          -0.8797    6.9972   -0.6498 C.ar    1  LIG1        0.1061
     17 O          -0.8313    5.6544   -0.5527 O.2     1  LIG1       -0.4584
     18 H          -1.7933    7.4247   -1.0240 H       1  LIG1        0.1041
     19 C           2.5034    6.5304    0.7831 C.3     1  LIG1       -0.0350
     20 H           2.4802    7.2129    1.6342 H       1  LIG1        0.0279
     21 H           3.2288    6.9065    0.0588 H       1  LIG1        0.0279
     22 H           2.8231    5.5452    1.1214 H       1  LIG1        0.0279
     23 S           0.7826    9.2372   -0.1334 S.3     1  LIG1       -0.1393
     24 H          -0.4319    9.7438   -0.3654 H       1  LIG1        0.1072
@<TRIPOS>BOND
     1    12    11    1
     2    11     3    1
     3     9     7    1
     4    18    16    1
     5    16    17   ar
     6    16    15   ar
     7    17    13   ar
     8    24    23    1
     9     3     4   ar
    10     3     2   ar
    11    15    23    1
    12    15    14   ar
    13     7     2    1
    14     7    10    1
    15     7     8    1
    16    13     4    1
    17    13    14   ar
    18    21    19    1
    19     4     5   ar
    20     2     1   ar
    21    14    19    1
    22     5     1   ar
    23     1     6    1
    24    19    22    1
    25    19    20    1
