@<TRIPOS>MOLECULE
mol_data/opt/m06hf/geoms/mol2/12ig12ig12ig.out
 35 37 0 0 0
SMALL
GASTEIGER

@<TRIPOS>ATOM
      1 C           0.7044    1.9577    1.3960 C.ar    1  LIG1        0.0967
      2 C           1.6883    1.8142    0.4745 C.ar    1  LIG1        0.0012
      3 C           1.7505    3.0887   -0.1997 C.ar    1  LIG1        0.0566
      4 C           0.8125    3.8821    0.3870 C.ar    1  LIG1        0.1833
      5 O           0.1662    3.1910    1.3536 O.2     1  LIG1       -0.4584
      6 H           0.2927    1.2788    2.1230 H       1  LIG1        0.1032
      7 C           2.5282    0.6004    0.1789 C.3     1  LIG1       -0.0357
      8 H           3.5852    0.8226    0.3325 H       1  LIG1        0.0279
      9 H           2.3872    0.2900   -0.8573 H       1  LIG1        0.0279
     10 H           2.2437   -0.2212    0.8352 H       1  LIG1        0.0279
     11 S           2.8202    3.4401   -1.5582 S.3     1  LIG1       -0.1386
     12 H           2.1165    4.4905   -1.9965 H       1  LIG1        0.1072
     13 C           0.4300    5.2674    0.1383 C.ar    1  LIG1        0.1758
     14 C           1.1905    6.3922    0.0245 C.ar    1  LIG1        0.0123
     15 C           0.2537    7.4450   -0.2725 C.ar    1  LIG1        0.0573
     16 C          -0.9828    6.8720   -0.2803 C.ar    1  LIG1        0.1843
     17 O          -0.8795    5.5458   -0.0420 O.2     1  LIG1       -0.4472
     18 C           2.6779    6.5342    0.2049 C.3     1  LIG1       -0.0349
     19 H           2.8871    7.3271    0.9248 H       1  LIG1        0.0279
     20 H           3.1577    6.7908   -0.7418 H       1  LIG1        0.0279
     21 H           3.0973    5.5987    0.5723 H       1  LIG1        0.0279
     22 S           0.7252    9.1149   -0.5836 S.3     1  LIG1       -0.1386
     23 H          -0.4426    9.4711   -1.1364 H       1  LIG1        0.1072
     24 C          -2.3047    7.4462   -0.5014 C.ar    1  LIG1        0.1748
     25 C          -2.9048    8.5399    0.0449 C.ar    1  LIG1        0.0116
     26 C          -4.1884    8.6227   -0.6087 C.ar    1  LIG1        0.0462
     27 C          -4.2481    7.5777   -1.4702 C.ar    1  LIG1        0.1061
     28 O          -3.1120    6.8571   -1.4117 O.2     1  LIG1       -0.4584
     29 H          -5.0060    7.2360   -2.1533 H       1  LIG1        0.1041
     30 C          -2.3902    9.4352    1.1399 C.3     1  LIG1       -0.0350
     31 H          -3.1480    9.5246    1.9197 H       1  LIG1        0.0279
     32 H          -2.1697   10.4337    0.7567 H       1  LIG1        0.0279
     33 H          -1.4806    9.0149    1.5673 H       1  LIG1        0.0279
     34 S          -5.3707    9.8930   -0.2706 S.3     1  LIG1       -0.1393
     35 H          -6.4255    9.2414   -0.7706 H       1  LIG1        0.1072
@<TRIPOS>BOND
     1    29    27    1
     2    12    11    1
     3    11     3    1
     4    27    28   ar
     5    27    26   ar
     6    28    24   ar
     7    23    22    1
     8     9     7    1
     9    35    34    1
    10    20    18    1
    11    26    34    1
    12    26    25   ar
    13    22    15    1
    14    24    16    1
    15    24    25   ar
    16    16    15   ar
    17    16    17   ar
    18    15    14   ar
    19     3     4   ar
    20     3     2   ar
    21    17    13   ar
    22    14    13   ar
    23    14    18    1
    24    25    30    1
    25    13     4    1
    26     7     8    1
    27     7     2    1
    28     7    10    1
    29    18    21    1
    30    18    19    1
    31     4     5   ar
    32     2     1   ar
    33    32    30    1
    34    30    33    1
    35    30    31    1
    36     5     1   ar
    37     1     6    1
