@<TRIPOS>MOLECULE
mol_data/opt/m06hf/geoms/mol2/12ig.out
 13 13 0 0 0
SMALL
GASTEIGER

@<TRIPOS>ATOM
      1 C           0.0963    1.9121    0.0948 C.ar    1  LIG1        0.0957
      2 C           1.4484    1.8937    0.0156 C.ar    1  LIG1        0.0004
      3 C           1.8332    3.2858   -0.0548 C.ar    1  LIG1        0.0454
      4 C           0.6860    4.0036   -0.0136 C.ar    1  LIG1        0.1051
      5 O          -0.3755    3.1747    0.0802 O.2     1  LIG1       -0.4696
      6 H          -0.6332    1.1241    0.1654 H       1  LIG1        0.1032
      7 H           0.4800    5.0594   -0.0392 H       1  LIG1        0.1041
      8 C           2.3698    0.7025    0.0035 C.3     1  LIG1       -0.0357
      9 H           3.0631    0.7515    0.8446 H       1  LIG1        0.0279
     10 H           2.9480    0.6785   -0.9214 H       1  LIG1        0.0279
     11 H           1.7912   -0.2175    0.0787 H       1  LIG1        0.0279
     12 S           3.5137    3.8184   -0.1773 S.3     1  LIG1       -0.1393
     13 H           3.2587    5.1270   -0.0765 H       1  LIG1        0.1072
@<TRIPOS>BOND
     1    10     8    1
     2    12    13    1
     3    12     3    1
     4     3     4   ar
     5     3     2   ar
     6     7     4    1
     7     4     5   ar
     8     8     2    1
     9     8    11    1
    10     8     9    1
    11     2     1   ar
    12     5     1   ar
    13     1     6    1
