@<TRIPOS>MOLECULE
mol_data/opt/m06hf/geoms/mol2/12ig12ig-12ig-.out
 35 37 0 0 0
SMALL
GASTEIGER

@<TRIPOS>ATOM
      1 C           0.7193    1.9557    1.3969 C.ar    1  LIG1        0.0967
      2 C           1.6926    1.8131    0.4640 C.ar    1  LIG1        0.0012
      3 C           1.7475    3.0884   -0.2093 C.ar    1  LIG1        0.0566
      4 C           0.8165    3.8814    0.3891 C.ar    1  LIG1        0.1833
      5 O           0.1811    3.1893    1.3622 O.2     1  LIG1       -0.4584
      6 H           0.3157    1.2760    2.1277 H       1  LIG1        0.1032
      7 C           2.5288    0.5993    0.1576 C.3     1  LIG1       -0.0357
      8 H           3.5874    0.8206    0.3008 H       1  LIG1        0.0279
      9 H           2.3770    0.2911   -0.8778 H       1  LIG1        0.0279
     10 H           2.2504   -0.2233    0.8152 H       1  LIG1        0.0279
     11 S           2.8017    3.4412   -1.5795 S.3     1  LIG1       -0.1386
     12 H           2.0930    4.4922   -2.0086 H       1  LIG1        0.1072
     13 C           0.4316    5.2671    0.1466 C.ar    1  LIG1        0.1758
     14 C           1.1910    6.3919    0.0255 C.ar    1  LIG1        0.0123
     15 C           0.2511    7.4454   -0.2592 C.ar    1  LIG1        0.0573
     16 C          -0.9856    6.8726   -0.2534 C.ar    1  LIG1        0.1843
     17 O          -0.8798    5.5460   -0.0180 O.2     1  LIG1       -0.4472
     18 C           2.6804    6.5333    0.1887 C.3     1  LIG1       -0.0349
     19 H           2.8983    7.3255    0.9069 H       1  LIG1        0.0279
     20 H           3.1494    6.7905   -0.7632 H       1  LIG1        0.0279
     21 H           3.1038    5.5973    0.5504 H       1  LIG1        0.0279
     22 S           0.7192    9.1156   -0.5732 S.3     1  LIG1       -0.1386
     23 H          -0.4549    9.4729   -1.1118 H       1  LIG1        0.1072
     24 C          -2.3098    7.4473   -0.4584 C.ar    1  LIG1        0.1748
     25 C          -2.9035    8.5403    0.0964 C.ar    1  LIG1        0.0116
     26 C          -4.1946    8.6241   -0.5422 C.ar    1  LIG1        0.0462
     27 C          -4.2642    7.5806   -1.4047 C.ar    1  LIG1        0.1061
     28 O          -3.1275    6.8598   -1.3604 O.2     1  LIG1       -0.4584
     29 H          -5.0299    7.2401   -2.0797 H       1  LIG1        0.1041
     30 C          -2.3761    9.4341    1.1865 C.3     1  LIG1       -0.0350
     31 H          -3.1247    9.5224    1.9753 H       1  LIG1        0.0279
     32 H          -2.1601   10.4331    0.8021 H       1  LIG1        0.0279
     33 H          -1.4615    9.0132    1.6026 H       1  LIG1        0.0279
     34 S          -5.3731    9.8938   -0.1888 S.3     1  LIG1       -0.1393
     35 H          -6.4335    9.2427   -0.6772 H       1  LIG1        0.1072
@<TRIPOS>BOND
     1    29    27    1
     2    12    11    1
     3    11     3    1
     4    27    28   ar
     5    27    26   ar
     6    28    24   ar
     7    23    22    1
     8     9     7    1
     9    20    18    1
    10    35    34    1
    11    22    15    1
    12    26    34    1
    13    26    25   ar
    14    24    16    1
    15    24    25   ar
    16    15    16   ar
    17    15    14   ar
    18    16    17   ar
    19     3     4   ar
    20     3     2   ar
    21    17    13   ar
    22    14    13   ar
    23    14    18    1
    24    25    30    1
    25    13     4    1
    26     7     8    1
    27     7     2    1
    28     7    10    1
    29    18    21    1
    30    18    19    1
    31     4     5   ar
    32     2     1   ar
    33    32    30    1
    34    30    33    1
    35    30    31    1
    36     5     1   ar
    37     1     6    1
