@<TRIPOS>MOLECULE
mol_data/opt/m06hf/geoms/mol2/12ih6ia-12ia-4he.out
 50 53 0 0 0
SMALL
GASTEIGER

@<TRIPOS>ATOM
      1 C           0.9021    1.6734    0.7989 C.ar    1  LIG1        0.0973
      2 C           1.8889    1.7503   -0.1260 C.ar    1  LIG1        0.0086
      3 C           1.9017    3.1315   -0.5448 C.ar    1  LIG1        0.0739
      4 C           0.9272    3.7656    0.1690 C.ar    1  LIG1        0.1573
      5 O           0.3124    2.8661    0.9872 O.2     1  LIG1       -0.4607
      6 H           0.5248    0.8514    1.3830 H       1  LIG1        0.1033
      7 C           2.7956    0.6571   -0.6266 C.3     1  LIG1       -0.0350
      8 H           3.8403    0.9211   -0.4539 H       1  LIG1        0.0279
      9 H           2.6503    0.4906   -1.6964 H       1  LIG1        0.0279
     10 H           2.5819   -0.2753   -0.1053 H       1  LIG1        0.0279
     11 N           2.7888    3.6888   -1.4791 N.pl3   1  LIG1       -0.3548
     12 H           3.1526    2.9963   -2.1223 H       1  LIG1        0.1424
     13 H           2.3777    4.4603   -1.9934 H       1  LIG1        0.1424
     14 C          -0.8041    5.5961    0.3831 C.ar    1  LIG1        0.0497
     15 C           0.5311    5.1773    0.2007 C.ar    1  LIG1        0.0401
     16 C           1.5083    6.1562    0.0196 C.ar    1  LIG1       -0.0472
     17 C           1.1476    7.4968    0.0165 C.ar    1  LIG1       -0.0320
     18 C          -0.1921    7.8142    0.2379 C.ar    1  LIG1        0.1066
     19 N          -1.1340    6.8817    0.4088 N.ar    1  LIG1       -0.2481
     20 H           2.5419    5.8572   -0.1152 H       1  LIG1        0.0626
     21 C          -1.9393    4.6086    0.5564 C.3     1  LIG1       -0.0216
     22 H          -1.8805    4.1328    1.5356 H       1  LIG1        0.0293
     23 H          -1.8801    3.8260   -0.2013 H       1  LIG1        0.0293
     24 H          -2.8734    5.1571    0.4656 H       1  LIG1        0.0293
     25 H           1.8771    8.2732   -0.1633 H       1  LIG1        0.0640
     26 C          -0.6386    9.2179    0.2899 C.ar    1  LIG1        0.1567
     27 C          -0.0135   10.3780    0.6485 C.ar    1  LIG1       -0.0026
     28 C          -1.0058   11.4055    0.4972 C.ar    1  LIG1       -0.0122
     29 C          -2.1465   10.7878    0.0683 C.ar    1  LIG1        0.1378
     30 O          -1.9201    9.4658   -0.0571 O.2     1  LIG1       -0.4530
     31 C           1.3922   10.5721    1.1615 C.3     1  LIG1       -0.0360
     32 H           1.4175   11.4313    1.8314 H       1  LIG1        0.0279
     33 H           2.0902   10.7579    0.3421 H       1  LIG1        0.0279
     34 H           1.7236    9.6924    1.7133 H       1  LIG1        0.0279
     35 H          -0.9012   12.4485    0.7487 H       1  LIG1        0.0658
     36 C          -3.7819   12.5614   -0.6200 C.ar    1  LIG1        0.0354
     37 C          -5.1134   12.9537   -0.8120 C.ar    1  LIG1       -0.0392
     38 C          -3.5199   11.2446   -0.1966 C.ar    1  LIG1        0.0390
     39 C          -6.1541   12.0643   -0.6107 C.ar    1  LIG1       -0.0446
     40 H          -5.3220   13.9685   -1.1277 H       1  LIG1        0.0636
     41 C          -4.5728   10.3490   -0.0167 C.ar    1  LIG1       -0.0339
     42 C          -5.8931   10.7456   -0.2205 C.ar    1  LIG1        0.0255
     43 H          -4.3526    9.3358    0.2927 H       1  LIG1        0.0637
     44 H          -7.1774   12.3799   -0.7624 H       1  LIG1        0.0630
     45 N          -2.7434   13.4647   -0.8196 N.pl3   1  LIG1       -0.3574
     46 H          -1.8754   13.0385   -1.1214 H       1  LIG1        0.1423
     47 H          -2.9931   14.2752   -1.3690 H       1  LIG1        0.1423
     48 C          -6.9762    9.8129   -0.0174 C.1     1  LIG1       -0.0696
     49 C          -7.8787    9.0381    0.1565 C.1     1  LIG1       -0.1139
     50 H          -8.6736    8.3474    0.3157 H       1  LIG1        0.1232
@<TRIPOS>BOND
     1    12    11    1
     2    13    11    1
     3     9     7    1
     4    11     3    1
     5    47    45    1
     6    40    37    1
     7    46    45    1
     8    45    36    1
     9    37    36   ar
    10    37    39   ar
    11    44    39    1
    12     7     8    1
    13     7     2    1
    14     7    10    1
    15    36    38   ar
    16    39    42   ar
    17     3     2   ar
    18     3     4   ar
    19    42    48    1
    20    42    41   ar
    21    23    21    1
    22    38    41   ar
    23    38    29    1
    24    25    17    1
    25     2     1   ar
    26    20    16    1
    27    30    29   ar
    28    30    26   ar
    29    48    49    3
    30    41    43    1
    31    17    16   ar
    32    17    18   ar
    33    16    15   ar
    34    29    28   ar
    35    49    50    1
    36     4    15    1
    37     4     5   ar
    38    15    14   ar
    39    18    26    1
    40    18    19   ar
    41    26    27   ar
    42    33    31    1
    43    14    19   ar
    44    14    21    1
    45    24    21    1
    46    28    27   ar
    47    28    35    1
    48    21    22    1
    49    27    31    1
    50     1     5   ar
    51     1     6    1
    52    31    34    1
    53    31    32    1
