@<TRIPOS>MOLECULE
mol_data/opt/m06hf/geoms/mol2/12ih13la-12fa-13ha.out
 44 47 0 0 0
SMALL
GASTEIGER

@<TRIPOS>ATOM
      1 C           0.1041    1.4504   -0.6938 C.ar    1  LIG1        0.0974
      2 C           1.4068    1.3231   -0.3548 C.ar    1  LIG1        0.0086
      3 C           1.8672    2.6638   -0.0600 C.ar    1  LIG1        0.0755
      4 C           0.7969    3.4829   -0.2612 C.ar    1  LIG1        0.1752
      5 O          -0.2873    2.7422   -0.6405 O.2     1  LIG1       -0.4592
      6 H          -0.6429    0.7312   -0.9831 H       1  LIG1        0.1033
      7 C           2.2411    0.0747   -0.2565 C.3     1  LIG1       -0.0350
      8 H           2.7002    0.0152    0.7314 H       1  LIG1        0.0279
      9 H           3.0353    0.0788   -1.0063 H       1  LIG1        0.0279
     10 H           1.6233   -0.8087   -0.4158 H       1  LIG1        0.0279
     11 N           3.1407    2.9710    0.4304 N.pl3   1  LIG1       -0.3548
     12 H           3.8717    2.4806   -0.0713 H       1  LIG1        0.1424
     13 H           3.3146    3.9720    0.4333 H       1  LIG1        0.1424
     14 C           0.5666    4.9107   -0.1324 C.ar    1  LIG1        0.1266
     15 C           1.4189    5.9943   -0.0216 C.ar    1  LIG1        0.1490
     16 C           0.6365    7.1739    0.0766 C.ar    1  LIG1        0.0093
     17 C          -0.6838    6.7644    0.0110 C.ar    1  LIG1        0.0899
     18 N          -0.7067    5.4116   -0.1110 N.ar    1  LIG1       -0.3463
     19 H          -1.5357    4.8447   -0.1991 H       1  LIG1        0.1662
     20 O           2.7804    5.8740   -0.0260 O.3     1  LIG1       -0.4929
     21 C           3.4933    7.0885    0.1264 C.3     1  LIG1        0.0789
     22 H           4.5488    6.8292    0.1061 H       1  LIG1        0.0660
     23 H           3.2607    7.7675   -0.6970 H       1  LIG1        0.0660
     24 H           3.2420    7.5594    1.0795 H       1  LIG1        0.0660
     25 H           0.9608    8.1950    0.1758 H       1  LIG1        0.0677
     26 C          -1.9071    7.5377    0.0461 C.ar    1  LIG1        0.1930
     27 C          -2.1570    8.8738    0.0633 C.ar    1  LIG1        0.1648
     28 C          -3.5828    9.0416    0.0843 C.ar    1  LIG1        0.0280
     29 C          -4.0938    7.7795    0.0782 C.ar    1  LIG1        0.1573
     30 O          -3.0952    6.8652    0.0500 O.2     1  LIG1       -0.4480
     31 O          -1.1896    9.8299    0.0517 O.3     1  LIG1       -0.5031
     32 H          -1.5817   10.6925    0.2169 H       1  LIG1        0.2923
     33 H          -4.1584    9.9512    0.1318 H       1  LIG1        0.0693
     34 C          -5.4521    7.2784    0.1059 C.ar    1  LIG1        0.1031
     35 C          -6.6397    7.9463   -0.1168 C.ar    1  LIG1        0.0532
     36 C          -7.6894    7.0053    0.0720 C.ar    1  LIG1       -0.0230
     37 C          -7.1014    5.8040    0.4003 C.ar    1  LIG1        0.0041
     38 N          -5.7545    5.9765    0.4063 N.ar    1  LIG1       -0.3568
     39 H          -5.0640    5.2756    0.6221 H       1  LIG1        0.1655
     40 H          -7.5428    4.8480    0.6203 H       1  LIG1        0.0807
     41 N          -6.7276    9.3183   -0.4549 N.pl3   1  LIG1       -0.3562
     42 H          -6.2686    9.5094   -1.3413 H       1  LIG1        0.1424
     43 H          -7.6922    9.6231   -0.5108 H       1  LIG1        0.1424
     44 H          -8.7459    7.1929   -0.0258 H       1  LIG1        0.0651
@<TRIPOS>BOND
     1    42    41    1
     2     9     7    1
     3     6     1    1
     4    23    21    1
     5     1     5   ar
     6     1     2   ar
     7     5     4   ar
     8    43    41    1
     9    41    35    1
    10    10     7    1
    11     2     7    1
    12     2     3   ar
    13     4    14    1
    14     4     3   ar
    15     7     8    1
    16    19    18    1
    17    14    18   ar
    18    14    15   ar
    19    35    36   ar
    20    35    34   ar
    21    18    17   ar
    22    12    11    1
    23     3    11    1
    24    20    15    1
    25    20    21    1
    26    44    36    1
    27    15    16   ar
    28    17    26    1
    29    17    16   ar
    30    26    30   ar
    31    26    27   ar
    32    30    29   ar
    33    31    27    1
    34    31    32    1
    35    27    28   ar
    36    36    37   ar
    37    16    25    1
    38    29    28   ar
    39    29    34    1
    40    28    33    1
    41    34    38   ar
    42    22    21    1
    43    21    24    1
    44    37    38   ar
    45    37    40    1
    46    38    39    1
    47    11    13    1
