@<TRIPOS>MOLECULE
mol_data/opt/m06hf/geoms/mol2/12ih13ai-12hh-12ih-.out
 48 51 0 0 0
SMALL
GASTEIGER

@<TRIPOS>ATOM
      1 C           0.6303    1.5999   -0.1227 C.ar    1  LIG1        0.0974
      2 C           1.9725    1.7549   -0.2162 C.ar    1  LIG1        0.0086
      3 C           2.1983    3.1791   -0.1172 C.ar    1  LIG1        0.0753
      4 C           0.9737    3.7491    0.0418 C.ar    1  LIG1        0.1716
      5 O           0.0100    2.7870    0.0331 O.2     1  LIG1       -0.4593
      6 H           0.0003    0.7272   -0.1474 H       1  LIG1        0.1033
      7 C           3.0330    0.6994   -0.3829 C.3     1  LIG1       -0.0350
      8 H           3.7493    0.7524    0.4386 H       1  LIG1        0.0279
      9 H           3.5724    0.8361   -1.3228 H       1  LIG1        0.0279
     10 H           2.5812   -0.2920   -0.3902 H       1  LIG1        0.0279
     11 N           3.4444    3.8190   -0.1441 N.pl3   1  LIG1       -0.3548
     12 H           4.1244    3.3121   -0.6978 H       1  LIG1        0.1424
     13 H           3.3712    4.7773   -0.4695 H       1  LIG1        0.1424
     14 C           0.5672    5.1339    0.1982 C.ar    1  LIG1        0.0847
     15 C           1.2701    6.2342    0.6559 C.ar    1  LIG1       -0.0297
     16 C           0.3979    7.3562    0.5961 C.ar    1  LIG1       -0.0214
     17 C          -0.8053    6.8913    0.0961 C.ar    1  LIG1        0.0875
     18 N          -0.6835    5.5498   -0.1392 N.ar    1  LIG1       -0.3491
     19 H          -1.4227    4.9527   -0.4797 H       1  LIG1        0.1661
     20 H           2.2702    6.2148    1.0588 H       1  LIG1        0.0643
     21 C           0.6883    8.7573    1.0768 C.3     1  LIG1       -0.0376
     22 H          -0.2458    9.2656    1.3207 H       1  LIG1        0.0278
     23 H           1.2240    9.3432    0.3261 H       1  LIG1        0.0278
     24 H           1.3040    8.7166    1.9755 H       1  LIG1        0.0278
     25 C          -2.0537    7.5867   -0.1815 C.ar    1  LIG1        0.1745
     26 C          -2.3116    8.8097   -0.7248 C.ar    1  LIG1        0.0942
     27 C          -3.7450    8.9087   -0.8211 C.ar    1  LIG1        0.0958
     28 C          -4.2378    7.7380   -0.3309 C.ar    1  LIG1        0.1933
     29 O          -3.2099    6.9256    0.0511 O.2     1  LIG1       -0.4464
     30 N          -1.4375    9.7767   -1.2735 N.pl3   1  LIG1       -0.3535
     31 H          -1.2656   10.5462   -0.6327 H       1  LIG1        0.1425
     32 H          -0.5502    9.3571   -1.5330 H       1  LIG1        0.1425
     33 N          -4.4075   10.0205   -1.3420 N.pl3   1  LIG1       -0.3535
     34 H          -3.8083   10.5019   -2.0059 H       1  LIG1        0.1425
     35 H          -5.3033    9.7824   -1.7532 H       1  LIG1        0.1425
     36 C          -5.6057    7.2741   -0.1770 C.ar    1  LIG1        0.1763
     37 C          -6.7293    7.9412    0.2053 C.ar    1  LIG1        0.0191
     38 C          -7.7927    6.9674    0.1181 C.ar    1  LIG1        0.0665
     39 C          -7.2176    5.8092   -0.2903 C.ar    1  LIG1        0.1136
     40 O          -5.8843    5.9860   -0.4717 O.2     1  LIG1       -0.4576
     41 H          -7.6041    4.8214   -0.4667 H       1  LIG1        0.1049
     42 C          -6.8618    9.3518    0.7140 C.3     1  LIG1       -0.0342
     43 H          -7.4242    9.3417    1.6489 H       1  LIG1        0.0279
     44 H          -7.3949    9.9850   -0.0003 H       1  LIG1        0.0279
     45 H          -5.8760    9.7846    0.8817 H       1  LIG1        0.0279
     46 N          -9.1211    7.2244    0.5041 N.pl3   1  LIG1       -0.3553
     47 H          -9.4859    8.0693    0.0788 H       1  LIG1        0.1424
     48 H          -9.7433    6.4490    0.3120 H       1  LIG1        0.1424
@<TRIPOS>BOND
     1    34    33    1
     2    35    33    1
     3    32    30    1
     4    33    27    1
     5     9     7    1
     6    30    26    1
     7    30    31    1
     8    27    26   ar
     9    27    28   ar
    10    26    25   ar
    11    12    11    1
    12    19    18    1
    13    40    39   ar
    14    40    36   ar
    15    13    11    1
    16    41    39    1
    17    10     7    1
    18     7     2    1
    19     7     8    1
    20    28    36    1
    21    28    29   ar
    22    39    38   ar
    23     2     1   ar
    24     2     3   ar
    25    25    29   ar
    26    25    17    1
    27    36    37   ar
    28     6     1    1
    29    11     3    1
    30    18    17   ar
    31    18    14   ar
    32     1     5   ar
    33     3     4   ar
    34    44    42    1
    35     5     4   ar
    36     4    14    1
    37    47    46    1
    38    17    16   ar
    39    38    37   ar
    40    38    46    1
    41    14    15   ar
    42    37    42    1
    43    48    46    1
    44    23    21    1
    45    16    15   ar
    46    16    21    1
    47    15    20    1
    48    42    45    1
    49    42    43    1
    50    21    22    1
    51    21    24    1
