@<TRIPOS>MOLECULE
mol_data/opt/m06hf/geoms/mol2/12ii12ii-12ii-12ii-.out
 54 57 0 0 0
SMALL
GASTEIGER

@<TRIPOS>ATOM
      1 C          -0.1478    1.8313    0.9853 C.ar    1  LIG1        0.0959
      2 C           1.1998    1.7148    1.0135 C.ar    1  LIG1       -0.0091
      3 C           1.7185    3.0208    0.6667 C.ar    1  LIG1        0.0013
      4 C           0.6220    3.8031    0.4665 C.ar    1  LIG1        0.1731
      5 O          -0.5141    3.0906    0.6585 O.2     1  LIG1       -0.4593
      6 H          -0.9466    1.1341    1.1723 H       1  LIG1        0.1032
      7 C           2.0167    0.4892    1.3290 C.3     1  LIG1       -0.0365
      8 H           2.6751    0.6788    2.1781 H       1  LIG1        0.0279
      9 H           2.6342    0.2120    0.4729 H       1  LIG1        0.0279
     10 H           1.3653   -0.3494    1.5741 H       1  LIG1        0.0279
     11 C           3.1786    3.3795    0.5533 C.3     1  LIG1       -0.0358
     12 H           3.3009    4.3895    0.1701 H       1  LIG1        0.0279
     13 H           3.6792    2.6777   -0.1165 H       1  LIG1        0.0279
     14 H           3.6567    3.3147    1.5329 H       1  LIG1        0.0279
     15 C           0.4626    5.2046    0.0965 C.ar    1  LIG1        0.1741
     16 C          -0.5902    5.9350   -0.3706 C.ar    1  LIG1        0.0020
     17 C          -0.0768    7.2707   -0.5635 C.ar    1  LIG1        0.0020
     18 C           1.2292    7.2284   -0.1849 C.ar    1  LIG1        0.1741
     19 O           1.5629    5.9797    0.2182 O.2     1  LIG1       -0.4481
     20 C          -1.9951    5.4886   -0.6824 C.3     1  LIG1       -0.0357
     21 H          -2.1200    4.4335   -0.4546 H       1  LIG1        0.0279
     22 H          -2.2118    5.6549   -1.7397 H       1  LIG1        0.0279
     23 H          -2.7107    6.0662   -0.0938 H       1  LIG1        0.0279
     24 C          -0.8312    8.4398   -1.1393 C.3     1  LIG1       -0.0357
     25 H          -1.3615    8.1296   -2.0408 H       1  LIG1        0.0279
     26 H          -0.1364    9.2390   -1.3984 H       1  LIG1        0.0279
     27 H          -1.5645    8.8237   -0.4268 H       1  LIG1        0.0279
     28 C           2.2652    8.2541   -0.1358 C.ar    1  LIG1        0.1741
     29 C           2.2447    9.5343    0.3289 C.ar    1  LIG1        0.0020
     30 C           3.5620   10.0621    0.0680 C.ar    1  LIG1        0.0020
     31 C           4.2616    9.0416   -0.5010 C.ar    1  LIG1        0.1741
     32 O           3.4833    7.9440   -0.6343 O.2     1  LIG1       -0.4481
     33 C           1.1110   10.2489    1.0154 C.3     1  LIG1       -0.0357
     34 H           0.3295    9.5362    1.2796 H       1  LIG1        0.0279
     35 H           0.6836   11.0201    0.3708 H       1  LIG1        0.0279
     36 H           1.4725   10.7277    1.9269 H       1  LIG1        0.0279
     37 C           4.0361   11.4658    0.3357 C.3     1  LIG1       -0.0357
     38 H           3.3179   12.1829   -0.0652 H       1  LIG1        0.0279
     39 H           5.0012   11.6279   -0.1445 H       1  LIG1        0.0279
     40 H           4.1399   11.6482    1.4077 H       1  LIG1        0.0279
     41 C           5.6521    8.9595   -0.9403 C.ar    1  LIG1        0.1731
     42 C           6.8092    9.3272   -0.3253 C.ar    1  LIG1        0.0013
     43 C           7.8623    9.0330   -1.2712 C.ar    1  LIG1       -0.0091
     44 C           7.2398    8.5074   -2.3538 C.ar    1  LIG1        0.0959
     45 O           5.9055    8.4583   -2.1717 O.2     1  LIG1       -0.4593
     46 H           7.6091    8.1368   -3.2948 H       1  LIG1        0.1032
     47 C           6.9796    9.8696    1.0692 C.3     1  LIG1       -0.0358
     48 H           6.0416    9.7829    1.6178 H       1  LIG1        0.0279
     49 H           7.2819   10.9188    1.0477 H       1  LIG1        0.0279
     50 H           7.7492    9.3035    1.5965 H       1  LIG1        0.0279
     51 C           9.3390    9.2500   -1.0664 C.3     1  LIG1       -0.0365
     52 H           9.7058    8.6359   -0.2419 H       1  LIG1        0.0279
     53 H           9.5425   10.2959   -0.8313 H       1  LIG1        0.0279
     54 H           9.8890    8.9832   -1.9685 H       1  LIG1        0.0279
@<TRIPOS>BOND
     1    46    44    1
     2    44    45   ar
     3    44    43   ar
     4    45    41   ar
     5    25    24    1
     6    54    51    1
     7    22    20    1
     8    26    24    1
     9    43    51    1
    10    43    42   ar
    11    24    17    1
    12    24    27    1
    13    51    53    1
    14    51    52    1
    15    41    31    1
    16    41    42   ar
    17    20    21    1
    18    20    16    1
    19    20    23    1
    20    32    31   ar
    21    32    28   ar
    22    17    16   ar
    23    17    18   ar
    24    31    30   ar
    25    16    15   ar
    26    42    47    1
    27    18    28    1
    28    18    19   ar
    29    39    37    1
    30    28    29   ar
    31    13    11    1
    32    38    37    1
    33    30    29   ar
    34    30    37    1
    35    15    19   ar
    36    15     4    1
    37    12    11    1
    38    29    33    1
    39    37    40    1
    40    35    33    1
    41     4     5   ar
    42     4     3   ar
    43     9     7    1
    44    11     3    1
    45    11    14    1
    46     5     1   ar
    47     3     2   ar
    48     1     2   ar
    49     1     6    1
    50     2     7    1
    51    33    34    1
    52    33    36    1
    53    49    47    1
    54    47    50    1
    55    47    48    1
    56     7    10    1
    57     7     8    1
