@<TRIPOS>MOLECULE
mol_data/opt/m06hf/geoms/mol2/12ii12ii-.out
 28 29 0 0 0
SMALL
GASTEIGER

@<TRIPOS>ATOM
      1 C           0.1883    1.8222   -0.2705 C.ar    1  LIG1        0.0959
      2 C           1.5277    1.7901   -0.0883 C.ar    1  LIG1       -0.0091
      3 C           1.9480    3.1716    0.0076 C.ar    1  LIG1        0.0013
      4 C           0.8106    3.9075   -0.1321 C.ar    1  LIG1        0.1731
      5 O          -0.2615    3.0962   -0.3024 O.2     1  LIG1       -0.4593
      6 H          -0.5508    1.0493   -0.3921 H       1  LIG1        0.1032
      7 C           2.4183    0.5791    0.0080 C.3     1  LIG1       -0.0365
      8 H           2.9136    0.5450    0.9798 H       1  LIG1        0.0279
      9 H           3.1865    0.6074   -0.7666 H       1  LIG1        0.0279
     10 H           1.8327   -0.3318   -0.1157 H       1  LIG1        0.0279
     11 C           3.3635    3.6391    0.2277 C.3     1  LIG1       -0.0358
     12 H           3.3905    4.7131    0.3911 H       1  LIG1        0.0279
     13 H           3.9780    3.3996   -0.6425 H       1  LIG1        0.0279
     14 H           3.7896    3.1325    1.0958 H       1  LIG1        0.0279
     15 C           0.5477    5.3425   -0.1321 C.ar    1  LIG1        0.1731
     16 C          -0.5898    6.0785    0.0076 C.ar    1  LIG1        0.0013
     17 C          -0.1695    7.4600   -0.0884 C.ar    1  LIG1       -0.0091
     18 C           1.1700    7.4278   -0.2705 C.ar    1  LIG1        0.0959
     19 O           1.6198    6.1539   -0.3024 O.2     1  LIG1       -0.4593
     20 H           1.9091    8.2007   -0.3922 H       1  LIG1        0.1032
     21 C          -2.0053    5.6110    0.2277 C.3     1  LIG1       -0.0358
     22 H          -2.0322    4.5369    0.3911 H       1  LIG1        0.0279
     23 H          -2.6198    5.8504   -0.6425 H       1  LIG1        0.0279
     24 H          -2.4314    6.1176    1.0958 H       1  LIG1        0.0279
     25 C          -1.0600    8.6710    0.0077 C.3     1  LIG1       -0.0365
     26 H          -1.5554    8.7051    0.9795 H       1  LIG1        0.0279
     27 H          -1.8282    8.6426   -0.7669 H       1  LIG1        0.0279
     28 H          -0.4744    9.5818   -0.1160 H       1  LIG1        0.0279
@<TRIPOS>BOND
     1    27    25    1
     2     9     7    1
     3    23    21    1
     4    13    11    1
     5    20    18    1
     6     6     1    1
     7    19    18   ar
     8    19    15   ar
     9     5     1   ar
    10     5     4   ar
    11    18    17   ar
    12     1     2   ar
    13    15     4    1
    14    15    16   ar
    15     4     3   ar
    16    28    25    1
    17    10     7    1
    18    17    16   ar
    19    17    25    1
    20     2     3   ar
    21     2     7    1
    22    16    21    1
    23     3    11    1
    24    25    26    1
    25     7     8    1
    26    11    12    1
    27    11    14    1
    28    21    22    1
    29    21    24    1
