@<TRIPOS>MOLECULE
mol_data/opt/m06hf/geoms/mol2/12ii12ii.out
 28 29 0 0 0
SMALL
GASTEIGER

@<TRIPOS>ATOM
      1 C           0.3390    1.8419    0.7597 C.ar    1  LIG1        0.0959
      2 C           1.5746    1.8185    0.2042 C.ar    1  LIG1       -0.0091
      3 C           1.8255    3.1726   -0.2365 C.ar    1  LIG1        0.0013
      4 C           0.7177    3.8828    0.1113 C.ar    1  LIG1        0.1731
      5 O          -0.1906    3.0805    0.7144 O.2     1  LIG1       -0.4593
      6 H          -0.2696    1.0765    1.2098 H       1  LIG1        0.1032
      7 C           2.4987    0.6395    0.0468 C.3     1  LIG1       -0.0365
      8 H           3.4551    0.8358    0.5340 H       1  LIG1        0.0279
      9 H           2.6883    0.4398   -1.0093 H       1  LIG1        0.0279
     10 H           2.0574   -0.2511    0.4933 H       1  LIG1        0.0279
     11 C           3.0391    3.6658   -0.9791 C.3     1  LIG1       -0.0358
     12 H           3.9141    3.6965   -0.3260 H       1  LIG1        0.0279
     13 H           2.8542    4.6670   -1.3685 H       1  LIG1        0.0279
     14 H           3.2602    2.9989   -1.8143 H       1  LIG1        0.0279
     15 C           0.3929    5.2986   -0.0430 C.ar    1  LIG1        0.1731
     16 C           1.1131    6.4203    0.2323 C.ar    1  LIG1        0.0013
     17 C           0.2745    7.5290   -0.1652 C.ar    1  LIG1       -0.0091
     18 C          -0.8702    6.9699   -0.6263 C.ar    1  LIG1        0.0959
     19 O          -0.8139    5.6248   -0.5623 O.2     1  LIG1       -0.4593
     20 H          -1.7798    7.3935   -1.0163 H       1  LIG1        0.1032
     21 C           2.4730    6.5064    0.8729 C.3     1  LIG1       -0.0358
     22 H           3.2251    6.8419    0.1554 H       1  LIG1        0.0279
     23 H           2.7642    5.5291    1.2581 H       1  LIG1        0.0279
     24 H           2.4499    7.2178    1.7003 H       1  LIG1        0.0279
     25 C           0.6143    8.9926   -0.0578 C.3     1  LIG1       -0.0365
     26 H          -0.1979    9.6010   -0.4547 H       1  LIG1        0.0279
     27 H           1.5230    9.2162   -0.6190 H       1  LIG1        0.0279
     28 H           0.7791    9.2720    0.9842 H       1  LIG1        0.0279
@<TRIPOS>BOND
     1    14    11    1
     2    13    11    1
     3    20    18    1
     4     9     7    1
     5    11    12    1
     6    11     3    1
     7    18    19   ar
     8    18    17   ar
     9    27    25    1
    10    19    15   ar
    11    26    25    1
    12     3     4   ar
    13     3     2   ar
    14    17    25    1
    15    17    16   ar
    16    25    28    1
    17    15     4    1
    18    15    16   ar
    19     7     2    1
    20     7    10    1
    21     7     8    1
    22     4     5   ar
    23    22    21    1
    24     2     1   ar
    25    16    21    1
    26     5     1   ar
    27     1     6    1
    28    21    23    1
    29    21    24    1
