@<TRIPOS>MOLECULE
mol_data/opt/m06hf/geoms/mol2/12ii12ii-12ii.out
 41 43 0 0 0
SMALL
GASTEIGER

@<TRIPOS>ATOM
      1 C           0.2381    1.7952   -0.4627 C.ar    1  LIG1        0.0959
      2 C           1.5267    1.7649   -0.0506 C.ar    1  LIG1       -0.0091
      3 C           1.8898    3.1404    0.2132 C.ar    1  LIG1        0.0013
      4 C           0.7769    3.8704   -0.0754 C.ar    1  LIG1        0.1731
      5 O          -0.2294    3.0630   -0.4876 O.2     1  LIG1       -0.4593
      6 H          -0.4507    1.0249   -0.7636 H       1  LIG1        0.1032
      7 C           2.4171    0.5615    0.1152 C.3     1  LIG1       -0.0365
      8 H           2.7392    0.4647    1.1536 H       1  LIG1        0.0279
      9 H           3.3058    0.6568   -0.5108 H       1  LIG1        0.0279
     10 H           1.8856   -0.3461   -0.1699 H       1  LIG1        0.0279
     11 C           3.2281    3.6161    0.7176 C.3     1  LIG1       -0.0358
     12 H           3.1728    4.6596    1.0197 H       1  LIG1        0.0279
     13 H           3.9858    3.5157   -0.0629 H       1  LIG1        0.0279
     14 H           3.5365    3.0114    1.5720 H       1  LIG1        0.0279
     15 C           0.4973    5.2993   -0.0280 C.ar    1  LIG1        0.1741
     16 C          -0.6518    6.0280   -0.0025 C.ar    1  LIG1        0.0020
     17 C          -0.2397    7.4121    0.0373 C.ar    1  LIG1        0.0020
     18 C           1.1210    7.3940    0.0430 C.ar    1  LIG1        0.1741
     19 O           1.5768    6.1183    0.0015 O.2     1  LIG1       -0.4481
     20 C          -2.0770    5.5384   -0.0083 C.3     1  LIG1       -0.0357
     21 H          -2.1069    4.4586    0.1149 H       1  LIG1        0.0279
     22 H          -2.5610    5.7981   -0.9519 H       1  LIG1        0.0279
     23 H          -2.6331    6.0109    0.8031 H       1  LIG1        0.0279
     24 C          -1.1653    8.6010    0.0615 C.3     1  LIG1       -0.0357
     25 H          -1.6989    8.6440    1.0131 H       1  LIG1        0.0279
     26 H          -1.9009    8.5128   -0.7397 H       1  LIG1        0.0279
     27 H          -0.6018    9.5220   -0.0658 H       1  LIG1        0.0279
     28 C           2.1369    8.4375    0.0802 C.ar    1  LIG1        0.1731
     29 C           3.4635    8.4417   -0.2276 C.ar    1  LIG1        0.0013
     30 C           3.9151    9.7908    0.0355 C.ar    1  LIG1       -0.0091
     31 C           2.8257   10.4681    0.4664 C.ar    1  LIG1        0.0959
     32 O           1.7417    9.6619    0.5035 O.2     1  LIG1       -0.4593
     33 H           2.6744   11.4883    0.7739 H       1  LIG1        0.1032
     34 C           4.3167    7.3140   -0.7493 C.3     1  LIG1       -0.0358
     35 H           5.0173    6.9805    0.0197 H       1  LIG1        0.0279
     36 H           4.8931    7.6555   -1.6107 H       1  LIG1        0.0279
     37 H           3.6957    6.4717   -1.0461 H       1  LIG1        0.0279
     38 C           5.3161   10.3126   -0.1483 C.3     1  LIG1       -0.0365
     39 H           5.3713   11.3618    0.1405 H       1  LIG1        0.0279
     40 H           5.6237   10.2221   -1.1917 H       1  LIG1        0.0279
     41 H           6.0172    9.7443    0.4651 H       1  LIG1        0.0279
@<TRIPOS>BOND
     1    36    34    1
     2    40    38    1
     3    37    34    1
     4    22    20    1
     5     6     1    1
     6    34    29    1
     7    34    35    1
     8    26    24    1
     9     9     7    1
    10     5     1   ar
    11     5     4   ar
    12     1     2   ar
    13    29    30   ar
    14    29    28   ar
    15    10     7    1
    16    38    30    1
    17    38    39    1
    18    38    41    1
    19     4    15    1
    20     4     3   ar
    21    27    24    1
    22    13    11    1
    23     2     7    1
    24     2     3   ar
    25    15    16   ar
    26    15    19   ar
    27    20    16    1
    28    20    21    1
    29    20    23    1
    30    16    17   ar
    31    19    18   ar
    32    30    31   ar
    33    17    18   ar
    34    17    24    1
    35    18    28    1
    36    24    25    1
    37    28    32   ar
    38     7     8    1
    39     3    11    1
    40    31    32   ar
    41    31    33    1
    42    11    12    1
    43    11    14    1
