@<TRIPOS>MOLECULE
mol_data/opt/m06hf/geoms/mol2/12ii12ii12ii12ii-.out
 54 57 0 0 0
SMALL
GASTEIGER

@<TRIPOS>ATOM
      1 C           1.4439    2.3924   -2.3525 C.ar    1  LIG1        0.0959
      2 C           2.1851    2.0552   -1.2696 C.ar    1  LIG1       -0.0091
      3 C           1.9997    3.1330   -0.3239 C.ar    1  LIG1        0.0013
      4 C           1.1721    4.0210   -0.9393 C.ar    1  LIG1        0.1731
      5 O           0.8280    3.5771   -2.1707 O.2     1  LIG1       -0.4593
      6 H           1.2673    1.8999   -3.2934 H       1  LIG1        0.1032
      7 C           3.0135    0.8137   -1.0644 C.3     1  LIG1       -0.0365
      8 H           2.6155    0.2193   -0.2399 H       1  LIG1        0.0279
      9 H           4.0458    1.0777   -0.8291 H       1  LIG1        0.0279
     10 H           3.0083    0.2023   -1.9664 H       1  LIG1        0.0279
     11 C           2.5626    3.2114    1.0707 C.3     1  LIG1       -0.0358
     12 H           2.0824    4.0221    1.6190 H       1  LIG1        0.0279
     13 H           3.6402    3.3876    1.0495 H       1  LIG1        0.0279
     14 H           2.3804    2.2737    1.5981 H       1  LIG1        0.0279
     15 C           0.6508    5.3128   -0.5004 C.ar    1  LIG1        0.1741
     16 C           1.2732    6.3821    0.0686 C.ar    1  LIG1        0.0020
     17 C           0.2321    7.3465    0.3291 C.ar    1  LIG1        0.0020
     18 C          -0.9159    6.7797   -0.1359 C.ar    1  LIG1        0.1741
     19 O          -0.6744    5.5461   -0.6340 O.2     1  LIG1       -0.4481
     20 C           2.7446    6.5549    0.3368 C.3     1  LIG1       -0.0357
     21 H           3.0852    7.5109   -0.0643 H       1  LIG1        0.0279
     22 H           3.3045    5.7521   -0.1432 H       1  LIG1        0.0279
     23 H           2.9536    6.5393    1.4088 H       1  LIG1        0.0279
     24 C           0.3921    8.6772    1.0154 C.3     1  LIG1       -0.0357
     25 H          -0.5867    9.0782    1.2792 H       1  LIG1        0.0279
     26 H           0.9061    9.3935    0.3708 H       1  LIG1        0.0279
     27 H           0.9794    8.5557    1.9271 H       1  LIG1        0.0279
     28 C          -2.2865    7.2766   -0.1854 C.ar    1  LIG1        0.1741
     29 C          -2.8075    8.4748   -0.5644 C.ar    1  LIG1        0.0020
     30 C          -4.2344    8.3668   -0.3718 C.ar    1  LIG1        0.0020
     31 C          -4.4437    7.1028    0.0954 C.ar    1  LIG1        0.1741
     32 O          -3.2720    6.4404    0.2176 O.2     1  LIG1       -0.4481
     33 C          -2.0739    9.6571   -1.1402 C.3     1  LIG1       -0.0357
     34 H          -2.5811   10.0033   -2.0420 H       1  LIG1        0.0279
     35 H          -1.0541    9.3714   -1.3989 H       1  LIG1        0.0279
     36 H          -2.0412   10.4843   -0.4278 H       1  LIG1        0.0279
     37 C          -5.2393    9.4451   -0.6841 C.3     1  LIG1       -0.0357
     38 H          -6.2463    9.1062   -0.4566 H       1  LIG1        0.0279
     39 H          -5.1816    9.7120   -1.7414 H       1  LIG1        0.0279
     40 H          -5.0240   10.3392   -0.0956 H       1  LIG1        0.0279
     41 C          -5.6420    6.3585    0.4653 C.ar    1  LIG1        0.1731
     42 C          -5.8794    5.0327    0.6657 C.ar    1  LIG1        0.0013
     43 C          -7.2818    4.9422    1.0121 C.ar    1  LIG1       -0.0091
     44 C          -7.7536    6.2099    0.9835 C.ar    1  LIG1        0.0959
     45 O          -6.7725    7.0801    0.6568 O.2     1  LIG1       -0.4593
     46 H          -8.7259    6.6332    1.1701 H       1  LIG1        0.1032
     47 C          -4.9299    3.8669    0.5529 C.3     1  LIG1       -0.0358
     48 H          -3.9647    4.1888    0.1700 H       1  LIG1        0.0279
     49 H          -5.3495    3.1139   -0.1170 H       1  LIG1        0.0279
     50 H          -4.7841    3.4073    1.5326 H       1  LIG1        0.0279
     51 C          -8.0396    3.6793    1.3276 C.3     1  LIG1       -0.0365
     52 H          -7.5865    3.1657    2.1771 H       1  LIG1        0.0279
     53 H          -8.0254    3.0023    0.4718 H       1  LIG1        0.0279
     54 H          -9.0764    3.9088    1.5724 H       1  LIG1        0.0279
@<TRIPOS>BOND
     1     6     1    1
     2     1     5   ar
     3     1     2   ar
     4     5     4   ar
     5    34    33    1
     6    10     7    1
     7    39    37    1
     8    35    33    1
     9     2     7    1
    10     2     3   ar
    11    33    29    1
    12    33    36    1
    13     7     9    1
    14     7     8    1
    15     4    15    1
    16     4     3   ar
    17    37    38    1
    18    37    30    1
    19    37    40    1
    20    19    15   ar
    21    19    18   ar
    22    29    30   ar
    23    29    28   ar
    24    15    16   ar
    25    30    31   ar
    26     3    11    1
    27    28    18    1
    28    28    32   ar
    29    22    20    1
    30    18    17   ar
    31    49    47    1
    32    21    20    1
    33    16    17   ar
    34    16    20    1
    35    31    32   ar
    36    31    41    1
    37    48    47    1
    38    17    24    1
    39    20    23    1
    40    26    24    1
    41    41    45   ar
    42    41    42   ar
    43    53    51    1
    44    47    42    1
    45    47    50    1
    46    45    44   ar
    47    42    43   ar
    48    44    43   ar
    49    44    46    1
    50    43    51    1
    51    24    25    1
    52    24    27    1
    53    13    11    1
    54    11    14    1
    55    11    12    1
    56    51    54    1
    57    51    52    1
