@<TRIPOS>MOLECULE
mol_data/opt/m06hf/geoms/mol2/12ii.out
 15 15 0 0 0
SMALL
GASTEIGER

@<TRIPOS>ATOM
      1 C           0.0955    1.9040    0.0884 C.ar    1  LIG1        0.0948
      2 C           1.4464    1.8779    0.0124 C.ar    1  LIG1       -0.0099
      3 C           1.8612    3.2666    0.0125 C.ar    1  LIG1       -0.0099
      4 C           0.7173    3.9857    0.0879 C.ar    1  LIG1        0.0948
      5 O          -0.3609    3.1740    0.1346 O.2     1  LIG1       -0.4705
      6 H          -0.6466    1.1249    0.1169 H       1  LIG1        0.1032
      7 H           0.5240    5.0442    0.1161 H       1  LIG1        0.1032
      8 C           2.3459    0.6709   -0.0579 C.3     1  LIG1       -0.0365
      9 H           3.0338    0.6563    0.7894 H       1  LIG1        0.0279
     10 H           2.9348    0.6853   -0.9767 H       1  LIG1        0.0279
     11 H           1.7537   -0.2438   -0.0397 H       1  LIG1        0.0279
     12 C           3.2753    3.7826   -0.0577 C.3     1  LIG1       -0.0365
     13 H           3.2818    4.8723   -0.0396 H       1  LIG1        0.0279
     14 H           3.7599    3.4475   -0.9765 H       1  LIG1        0.0279
     15 H           3.8585    3.4176    0.7897 H       1  LIG1        0.0279
@<TRIPOS>BOND
     1    10     8    1
     2    14    12    1
     3     8    11    1
     4     8     2    1
     5     8     9    1
     6    12    13    1
     7    12     3    1
     8    12    15    1
     9     2     3   ar
    10     2     1   ar
    11     3     4   ar
    12     4     7    1
    13     4     5   ar
    14     1     6    1
    15     1     5   ar
