@<TRIPOS>MOLECULE
mol_data/opt/m06hf/geoms/mol2/12ii12ii-12ii12ii.out
 54 57 0 0 0
SMALL
GASTEIGER

@<TRIPOS>ATOM
      1 C           0.2896    1.7163   -0.4822 C.ar    1  LIG1        0.0959
      2 C           1.5190    1.7152    0.0828 C.ar    1  LIG1       -0.0091
      3 C           1.8508    3.1051    0.3105 C.ar    1  LIG1        0.0013
      4 C           0.7820    3.8123   -0.1492 C.ar    1  LIG1        0.1731
      5 O          -0.1697    2.9784   -0.6326 O.2     1  LIG1       -0.4593
      6 H          -0.3585    0.9263   -0.8197 H       1  LIG1        0.1032
      7 C           2.3787    0.5266    0.4248 C.3     1  LIG1       -0.0365
      8 H           2.5701    0.4905    1.4986 H       1  LIG1        0.0279
      9 H           3.3380    0.5884   -0.0913 H       1  LIG1        0.0279
     10 H           1.8826   -0.3975    0.1296 H       1  LIG1        0.0279
     11 C           3.1203    3.6163    0.9416 C.3     1  LIG1       -0.0358
     12 H           3.0140    4.6633    1.2168 H       1  LIG1        0.0279
     13 H           3.9569    3.5199    0.2454 H       1  LIG1        0.0279
     14 H           3.3507    3.0327    1.8343 H       1  LIG1        0.0279
     15 C           0.5033    5.2406   -0.2134 C.ar    1  LIG1        0.1741
     16 C          -0.6399    5.9670   -0.3506 C.ar    1  LIG1        0.0020
     17 C          -0.2307    7.3523   -0.3410 C.ar    1  LIG1        0.0020
     18 C           1.1223    7.3374   -0.1891 C.ar    1  LIG1        0.1741
     19 O           1.5765    6.0623   -0.1140 O.2     1  LIG1       -0.4481
     20 C          -2.0585    5.4761   -0.4782 C.3     1  LIG1       -0.0357
     21 H          -2.1017    4.3992   -0.3354 H       1  LIG1        0.0279
     22 H          -2.4526    5.7165   -1.4676 H       1  LIG1        0.0279
     23 H          -2.6871    5.9651    0.2681 H       1  LIG1        0.0279
     24 C          -1.1530    8.5363   -0.4750 C.3     1  LIG1       -0.0357
     25 H          -1.8026    8.6052    0.3999 H       1  LIG1        0.0279
     26 H          -1.7810    8.4160   -1.3595 H       1  LIG1        0.0279
     27 H          -0.5821    9.4575   -0.5594 H       1  LIG1        0.0279
     28 C           2.1286    8.3846   -0.0925 C.ar    1  LIG1        0.1741
     29 C           3.4843    8.3742   -0.2362 C.ar    1  LIG1        0.0020
     30 C           3.9078    9.7309    0.0166 C.ar    1  LIG1        0.0020
     31 C           2.7725   10.4376    0.2674 C.ar    1  LIG1        0.1741
     32 O           1.6884    9.6273    0.2082 O.2     1  LIG1       -0.4481
     33 C           4.3887    7.2181   -0.5783 C.3     1  LIG1       -0.0357
     34 H           4.9471    6.8974    0.3044 H       1  LIG1        0.0279
     35 H           5.1041    7.5236   -1.3435 H       1  LIG1        0.0279
     36 H           3.8062    6.3766   -0.9471 H       1  LIG1        0.0279
     37 C           5.3272   10.2329    0.0480 C.3     1  LIG1       -0.0357
     38 H           5.3547   11.2364    0.4724 H       1  LIG1        0.0279
     39 H           5.7560   10.2613   -0.9559 H       1  LIG1        0.0279
     40 H           5.9403    9.5723    0.6631 H       1  LIG1        0.0279
     41 C           2.5493   11.8492    0.5635 C.ar    1  LIG1        0.1731
     42 C           3.0216   12.9811   -0.0260 C.ar    1  LIG1        0.0013
     43 C           2.4665   14.0769    0.7366 C.ar    1  LIG1       -0.0091
     44 C           1.7065   13.5006    1.6985 C.ar    1  LIG1        0.0959
     45 O           1.7481   12.1563    1.6106 O.2     1  LIG1       -0.4593
     46 H           1.0990   13.9111    2.4867 H       1  LIG1        0.1032
     47 C           3.8910   13.0859   -1.2511 C.3     1  LIG1       -0.0358
     48 H           3.4616   13.8034   -1.9522 H       1  LIG1        0.0279
     49 H           3.9597   12.1142   -1.7404 H       1  LIG1        0.0279
     50 H           4.8969   13.4225   -0.9913 H       1  LIG1        0.0279
     51 C           2.6824   15.5461    0.4833 C.3     1  LIG1       -0.0365
     52 H           2.1537   16.1404    1.2281 H       1  LIG1        0.0279
     53 H           2.3138   15.8225   -0.5060 H       1  LIG1        0.0279
     54 H           3.7448   15.7902    0.5331 H       1  LIG1        0.0279
@<TRIPOS>BOND
     1    48    47    1
     2    49    47    1
     3    22    20    1
     4    26    24    1
     5    35    33    1
     6    47    50    1
     7    47    42    1
     8    39    37    1
     9    36    33    1
    10     6     1    1
    11     5     1   ar
    12     5     4   ar
    13    33    29    1
    14    33    34    1
    15    27    24    1
    16    53    51    1
    17     1     2   ar
    18    20    16    1
    19    20    21    1
    20    20    23    1
    21    24    17    1
    22    24    25    1
    23    16    17   ar
    24    16    15   ar
    25    17    18   ar
    26    29    28   ar
    27    29    30   ar
    28    15     4    1
    29    15    19   ar
    30    18    19   ar
    31    18    28    1
    32     4     3   ar
    33    28    32   ar
    34     9     7    1
    35    42    41   ar
    36    42    43   ar
    37    30    37    1
    38    30    31   ar
    39    37    38    1
    40    37    40    1
    41     2     3   ar
    42     2     7    1
    43    10     7    1
    44    32    31   ar
    45    13    11    1
    46    31    41    1
    47     3    11    1
    48     7     8    1
    49    51    54    1
    50    51    43    1
    51    51    52    1
    52    41    45   ar
    53    43    44   ar
    54    11    12    1
    55    11    14    1
    56    45    44   ar
    57    44    46    1
