@<TRIPOS>MOLECULE
mol_data/opt/m06hf/geoms/mol2/12ii12ii12ii-12ii-.out
 54 57 0 0 0
SMALL
GASTEIGER

@<TRIPOS>ATOM
      1 C           0.6603    1.6860    0.6599 C.ar    1  LIG1        0.0959
      2 C           1.6771    1.7647   -0.2314 C.ar    1  LIG1       -0.0091
      3 C           1.8136    3.1711   -0.5406 C.ar    1  LIG1        0.0013
      4 C           0.8714    3.8033    0.2097 C.ar    1  LIG1        0.1731
      5 O           0.1640    2.9085    0.9393 O.2     1  LIG1       -0.4593
      6 H           0.1962    0.8542    1.1613 H       1  LIG1        0.1032
      7 C           2.4929    0.6387   -0.8109 C.3     1  LIG1       -0.0365
      8 H           3.5536    0.7926   -0.6069 H       1  LIG1        0.0279
      9 H           2.3563    0.5846   -1.8925 H       1  LIG1        0.0279
     10 H           2.1888   -0.3132   -0.3761 H       1  LIG1        0.0279
     11 C           2.7613    3.7839   -1.5379 C.3     1  LIG1       -0.0358
     12 H           3.7890    3.7641   -1.1686 H       1  LIG1        0.0279
     13 H           2.4768    4.8179   -1.7334 H       1  LIG1        0.0279
     14 H           2.7249    3.2261   -2.4750 H       1  LIG1        0.0279
     15 C           0.5292    5.2141    0.3526 C.ar    1  LIG1        0.1741
     16 C           1.2945    6.3262    0.5227 C.ar    1  LIG1        0.0020
     17 C           0.3745    7.4378    0.5830 C.ar    1  LIG1        0.0020
     18 C          -0.8667    6.8877    0.4546 C.ar    1  LIG1        0.1741
     19 O          -0.7828    5.5463    0.3083 O.2     1  LIG1       -0.4481
     20 C           2.7894    6.3951    0.6869 C.3     1  LIG1       -0.0357
     21 H           3.0388    6.9886    1.5678 H       1  LIG1        0.0279
     22 H           3.2575    6.8610   -0.1830 H       1  LIG1        0.0279
     23 H           3.1944    5.3910    0.8128 H       1  LIG1        0.0279
     24 C           0.7609    8.8805    0.7861 C.3     1  LIG1       -0.0357
     25 H          -0.1227    9.5093    0.8589 H       1  LIG1        0.0279
     26 H           1.3729    9.2235   -0.0506 H       1  LIG1        0.0279
     27 H           1.3477    8.9801    1.7012 H       1  LIG1        0.0279
     28 C          -2.2090    7.4542    0.4545 C.ar    1  LIG1        0.1741
     29 C          -3.4502    6.9040    0.5824 C.ar    1  LIG1        0.0020
     30 C          -4.3703    8.0156    0.5221 C.ar    1  LIG1        0.0020
     31 C          -3.6049    9.1278    0.3526 C.ar    1  LIG1        0.1741
     32 O          -2.2929    8.7955    0.3084 O.2     1  LIG1       -0.4481
     33 C          -3.8367    5.4612    0.7850 C.3     1  LIG1       -0.0357
     34 H          -2.9531    4.8324    0.8579 H       1  LIG1        0.0279
     35 H          -4.4485    5.1185   -0.0520 H       1  LIG1        0.0279
     36 H          -4.4238    5.3614    1.7000 H       1  LIG1        0.0279
     37 C          -5.8652    7.9466    0.6858 C.3     1  LIG1       -0.0357
     38 H          -6.1148    7.3529    1.5665 H       1  LIG1        0.0279
     39 H          -6.3331    7.4810   -0.1843 H       1  LIG1        0.0279
     40 H          -6.2703    8.9507    0.8120 H       1  LIG1        0.0279
     41 C          -3.9470   10.5386    0.2100 C.ar    1  LIG1        0.1731
     42 C          -4.8890   11.1711   -0.5404 C.ar    1  LIG1        0.0013
     43 C          -4.7525   12.5774   -0.2307 C.ar    1  LIG1       -0.0091
     44 C          -3.7358   12.6558    0.6608 C.ar    1  LIG1        0.0959
     45 O          -3.2397   11.4332    0.9400 O.2     1  LIG1       -0.4593
     46 H          -3.2718   13.4875    1.1624 H       1  LIG1        0.1032
     47 C          -5.8365   10.5586   -1.5380 C.3     1  LIG1       -0.0358
     48 H          -6.8643   10.5785   -1.1691 H       1  LIG1        0.0279
     49 H          -5.5520    9.5246   -1.7338 H       1  LIG1        0.0279
     50 H          -5.7998   11.1166   -2.4750 H       1  LIG1        0.0279
     51 C          -5.5681   13.7036   -0.8101 C.3     1  LIG1       -0.0365
     52 H          -6.6288   13.5498   -0.6063 H       1  LIG1        0.0279
     53 H          -5.4313   13.7580   -1.8917 H       1  LIG1        0.0279
     54 H          -5.2640   14.6553   -0.3750 H       1  LIG1        0.0279
@<TRIPOS>BOND
     1    50    47    1
     2    14    11    1
     3     9     7    1
     4    53    51    1
     5    49    47    1
     6    13    11    1
     7    47    48    1
     8    47    42    1
     9    11    12    1
    10    11     3    1
    11     7     8    1
    12     7    10    1
    13     7     2    1
    14    51    52    1
    15    51    54    1
    16    51    43    1
    17     3     2   ar
    18     3     4   ar
    19    42    43   ar
    20    42    41   ar
    21     2     1   ar
    22    43    44   ar
    23    39    37    1
    24    22    20    1
    25    35    33    1
    26    26    24    1
    27     4    15    1
    28     4     5   ar
    29    41    31    1
    30    41    45   ar
    31    19    15   ar
    32    19    18   ar
    33    32    31   ar
    34    32    28   ar
    35    31    30   ar
    36    15    16   ar
    37    28    18    1
    38    28    29   ar
    39    18    17   ar
    40    30    29   ar
    41    30    37    1
    42    16    17   ar
    43    16    20    1
    44    29    33    1
    45    17    24    1
    46     1     5   ar
    47     1     6    1
    48    44    45   ar
    49    44    46    1
    50    37    40    1
    51    37    38    1
    52    20    23    1
    53    20    21    1
    54    33    34    1
    55    33    36    1
    56    24    25    1
    57    24    27    1
