@<TRIPOS>MOLECULE
mol_data/opt/m06hf/geoms/mol2/12ii12ii12ii.out
 41 43 0 0 0
SMALL
GASTEIGER

@<TRIPOS>ATOM
      1 C           0.6887    1.6853   -0.8558 C.ar    1  LIG1        0.0959
      2 C           1.7229    1.7918    0.0134 C.ar    1  LIG1       -0.0091
      3 C           1.8111    3.1981    0.3385 C.ar    1  LIG1        0.0013
      4 C           0.8250    3.8018   -0.3789 C.ar    1  LIG1        0.1731
      5 O           0.1386    2.8900   -1.1052 O.2     1  LIG1       -0.4593
      6 H           0.2462    0.8430   -1.3592 H       1  LIG1        0.1032
      7 C           2.5951    0.6905    0.5576 C.3     1  LIG1       -0.0365
      8 H           2.4824    0.6124    1.6406 H       1  LIG1        0.0279
      9 H           3.6445    0.8906    0.3360 H       1  LIG1        0.0279
     10 H           2.3207   -0.2652    0.1118 H       1  LIG1        0.0279
     11 C           2.7627    3.8366    1.3157 C.3     1  LIG1       -0.0358
     12 H           2.4457    4.8574    1.5295 H       1  LIG1        0.0279
     13 H           3.7791    3.8588    0.9162 H       1  LIG1        0.0279
     14 H           2.7747    3.2693    2.2478 H       1  LIG1        0.0279
     15 C           0.4299    5.2033   -0.4880 C.ar    1  LIG1        0.1741
     16 C           1.1671    6.3313   -0.6852 C.ar    1  LIG1        0.0020
     17 C           0.2196    7.4196   -0.6852 C.ar    1  LIG1        0.0020
     18 C          -0.9992    6.8447   -0.4880 C.ar    1  LIG1        0.1741
     19 O          -0.8821    5.5038   -0.3661 O.2     1  LIG1       -0.4481
     20 C           2.6487    6.4256   -0.9372 C.3     1  LIG1       -0.0357
     21 H           2.8378    7.0304   -1.8256 H       1  LIG1        0.0279
     22 H           3.0592    5.4291   -1.0993 H       1  LIG1        0.0279
     23 H           3.1630    6.8884   -0.0923 H       1  LIG1        0.0279
     24 C           0.5169    8.8742   -0.9372 C.3     1  LIG1       -0.0357
     25 H           1.0461    9.3199   -0.0923 H       1  LIG1        0.0279
     26 H          -0.4137    9.4179   -1.0993 H       1  LIG1        0.0279
     27 H           1.1419    8.9782   -1.8256 H       1  LIG1        0.0279
     28 C          -2.3330    7.4289   -0.3788 C.ar    1  LIG1        0.1731
     29 C          -2.7953    8.4887    0.3386 C.ar    1  LIG1        0.0013
     30 C          -4.2003    8.5949    0.0135 C.ar    1  LIG1       -0.0091
     31 C          -4.4481    7.5852   -0.8557 C.ar    1  LIG1        0.0959
     32 O          -3.3306    6.8745   -1.1052 O.2     1  LIG1       -0.4593
     33 H          -5.3433    7.2628   -1.3592 H       1  LIG1        0.1032
     34 C          -2.0319    9.3433    1.3158 C.3     1  LIG1       -0.0358
     35 H          -2.5921    9.4333    2.2479 H       1  LIG1        0.0279
     36 H          -1.8700   10.3470    0.9163 H       1  LIG1        0.0279
     37 H          -1.0644    8.8888    1.5296 H       1  LIG1        0.0279
     38 C          -5.1711    9.6102    0.5577 C.3     1  LIG1       -0.0365
     39 H          -6.1555    9.4701    0.1120 H       1  LIG1        0.0279
     40 H          -4.8285   10.6222    0.3362 H       1  LIG1        0.0279
     41 H          -5.2639    9.5094    1.6407 H       1  LIG1        0.0279
@<TRIPOS>BOND
     1    21    20    1
     2    27    24    1
     3     6     1    1
     4    33    31    1
     5     5     1   ar
     6     5     4   ar
     7    32    31   ar
     8    32    28   ar
     9    26    24    1
    10    22    20    1
    11    20    16    1
    12    20    23    1
    13    24    17    1
    14    24    25    1
    15     1     2   ar
    16    31    30   ar
    17    16    17   ar
    18    16    15   ar
    19    17    18   ar
    20    15     4    1
    21    15    19   ar
    22    18    28    1
    23    18    19   ar
    24     4     3   ar
    25    28    29   ar
    26     2     3   ar
    27     2     7    1
    28    30    29   ar
    29    30    38    1
    30    10     7    1
    31    39    38    1
    32     9     7    1
    33    40    38    1
    34     3    11    1
    35    29    34    1
    36     7     8    1
    37    38    41    1
    38    13    11    1
    39    36    34    1
    40    11    12    1
    41    11    14    1
    42    34    37    1
    43    34    35    1
