@<TRIPOS>MOLECULE
mol_data/opt/m06hf/geoms/mol2/12ii12ii12ii12ii.out
 54 57 0 0 0
SMALL
GASTEIGER

@<TRIPOS>ATOM
      1 C           0.9734    1.5429   -0.0738 C.ar    1  LIG1        0.0959
      2 C           2.1104    1.8411    0.6000 C.ar    1  LIG1       -0.0091
      3 C           2.1546    3.2846    0.6641 C.ar    1  LIG1        0.0013
      4 C           1.0415    3.7134    0.0081 C.ar    1  LIG1        0.1731
      5 O           0.3187    2.6620   -0.4405 O.2     1  LIG1       -0.4593
      6 H           0.5176    0.6086   -0.3536 H       1  LIG1        0.1032
      7 C           3.1176    0.8864    1.1860 C.3     1  LIG1       -0.0365
      8 H           3.1723    1.0043    2.2697 H       1  LIG1        0.0279
      9 H           4.1093    1.0749    0.7714 H       1  LIG1        0.0279
     10 H           2.8383   -0.1431    0.9635 H       1  LIG1        0.0279
     11 C           3.1896    4.1242    1.3654 C.3     1  LIG1       -0.0358
     12 H           2.8409    5.1543    1.4425 H       1  LIG1        0.0279
     13 H           4.1383    4.1125    0.8242 H       1  LIG1        0.0279
     14 H           3.3654    3.7366    2.3701 H       1  LIG1        0.0279
     15 C           0.5466    5.0572   -0.2787 C.ar    1  LIG1        0.1741
     16 C           1.1768    6.1628   -0.7639 C.ar    1  LIG1        0.0020
     17 C           0.1691    7.1948   -0.8116 C.ar    1  LIG1        0.0020
     18 C          -0.9731    6.6124   -0.3522 C.ar    1  LIG1        0.1741
     19 O          -0.7540    5.3201   -0.0253 O.2     1  LIG1       -0.4481
     20 C           2.6021    6.2749   -1.2364 C.3     1  LIG1       -0.0357
     21 H           2.6298    6.7172   -2.2336 H       1  LIG1        0.0279
     22 H           3.0558    5.2849   -1.2800 H       1  LIG1        0.0279
     23 H           3.1899    6.9057   -0.5661 H       1  LIG1        0.0279
     24 C           0.3393    8.5946   -1.3393 C.3     1  LIG1       -0.0357
     25 H           0.9458    9.1987   -0.6611 H       1  LIG1        0.0279
     26 H          -0.6358    9.0672   -1.4583 H       1  LIG1        0.0279
     27 H           0.8364    8.5686   -2.3102 H       1  LIG1        0.0279
     28 C          -2.3176    7.1504   -0.1615 C.ar    1  LIG1        0.1741
     29 C          -2.7484    8.2988    0.4306 C.ar    1  LIG1        0.0020
     30 C          -4.1818    8.3043    0.2692 C.ar    1  LIG1        0.0020
     31 C          -4.4823    7.1457   -0.3807 C.ar    1  LIG1        0.1741
     32 O          -3.3600    6.4432   -0.6503 O.2     1  LIG1       -0.4481
     33 C          -1.9207    9.3351    1.1436 C.3     1  LIG1       -0.0357
     34 H          -2.3592    9.5535    2.1186 H       1  LIG1        0.0279
     35 H          -1.8782   10.2649    0.5721 H       1  LIG1        0.0279
     36 H          -0.9061    8.9635    1.2890 H       1  LIG1        0.0279
     37 C          -5.1310    9.3914    0.6984 C.3     1  LIG1       -0.0357
     38 H          -5.2333    9.4175    1.7857 H       1  LIG1        0.0279
     39 H          -6.1124    9.2206    0.2560 H       1  LIG1        0.0279
     40 H          -4.7590   10.3620    0.3664 H       1  LIG1        0.0279
     41 C          -5.7637    6.5777   -0.7919 C.ar    1  LIG1        0.1731
     42 C          -6.9335    6.4141   -0.1160 C.ar    1  LIG1        0.0013
     43 C          -7.8513    5.8255   -1.0652 C.ar    1  LIG1       -0.0091
     44 C          -7.1430    5.6808   -2.2115 C.ar    1  LIG1        0.0959
     45 O          -5.8822    6.1325   -2.0641 O.2     1  LIG1       -0.4593
     46 H          -7.3998    5.2833   -3.1785 H       1  LIG1        0.1032
     47 C          -7.2097    6.7185    1.3328 C.3     1  LIG1       -0.0358
     48 H          -7.6730    5.8547    1.8120 H       1  LIG1        0.0279
     49 H          -7.8873    7.5692    1.4332 H       1  LIG1        0.0279
     50 H          -6.2764    6.9468    1.8478 H       1  LIG1        0.0279
     51 C          -9.2836    5.4374   -0.8059 C.3     1  LIG1       -0.0365
     52 H          -9.7423    5.0528   -1.7166 H       1  LIG1        0.0279
     53 H          -9.8579    6.3002   -0.4646 H       1  LIG1        0.0279
     54 H          -9.3375    4.6642   -0.0373 H       1  LIG1        0.0279
@<TRIPOS>BOND
     1    46    44    1
     2    27    24    1
     3    21    20    1
     4    44    45   ar
     5    44    43   ar
     6    45    41   ar
     7    52    51    1
     8    26    24    1
     9    24    17    1
    10    24    25    1
    11    22    20    1
    12    20    16    1
    13    20    23    1
    14    43    51    1
    15    43    42   ar
    16    17    16   ar
    17    17    18   ar
    18    51    53    1
    19    51    54    1
    20    41    31    1
    21    41    42   ar
    22    16    15   ar
    23    32    31   ar
    24    32    28   ar
    25     5     1   ar
    26     5     4   ar
    27    31    30   ar
    28     6     1    1
    29    18    28    1
    30    18    19   ar
    31    15    19   ar
    32    15     4    1
    33    28    29   ar
    34    42    47    1
    35     1     2   ar
    36     4     3   ar
    37    39    37    1
    38    30    29   ar
    39    30    37    1
    40    40    37    1
    41    29    33    1
    42    35    33    1
    43     2     3   ar
    44     2     7    1
    45     3    11    1
    46    37    38    1
    47     9     7    1
    48    13    11    1
    49    10     7    1
    50    33    36    1
    51    33    34    1
    52     7     8    1
    53    47    49    1
    54    47    48    1
    55    47    50    1
    56    11    12    1
    57    11    14    1
