@<TRIPOS>MOLECULE
mol_data/opt/m06hf/geoms/mol2/12ii12ii12ii-12ii.out
 54 57 0 0 0
SMALL
GASTEIGER

@<TRIPOS>ATOM
      1 C           0.8499    2.0599    1.6985 C.ar    1  LIG1        0.0959
      2 C           1.7802    1.8493    0.7367 C.ar    1  LIG1       -0.0091
      3 C           1.8326    3.0765   -0.0260 C.ar    1  LIG1        0.0013
      4 C           0.9346    3.9120    0.5635 C.ar    1  LIG1        0.1731
      5 O           0.3321    3.3012    1.6106 O.2     1  LIG1       -0.4593
      6 H           0.4664    1.4350    2.4868 H       1  LIG1        0.1032
      7 C           2.5840    0.6008    0.4833 C.3     1  LIG1       -0.0365
      8 H           3.6523    0.8177    0.5331 H       1  LIG1        0.0279
      9 H           2.3626    0.1967   -0.5060 H       1  LIG1        0.0279
     10 H           2.3483   -0.1589    1.2282 H       1  LIG1        0.0279
     11 C           2.6675    3.3405   -1.2511 C.3     1  LIG1       -0.0358
     12 H           3.7226    3.4498   -0.9914 H       1  LIG1        0.0279
     13 H           2.3284    4.2537   -1.7405 H       1  LIG1        0.0279
     14 H           2.5730    2.5096   -1.9522 H       1  LIG1        0.0279
     15 C           0.5544    5.2896    0.2674 C.ar    1  LIG1        0.1741
     16 C           1.2960    6.4024    0.0166 C.ar    1  LIG1        0.0020
     17 C           0.3495    7.4627   -0.2363 C.ar    1  LIG1        0.0020
     18 C          -0.8807    6.8928   -0.0925 C.ar    1  LIG1        0.1741
     19 O          -0.7678    5.5793    0.2082 O.2     1  LIG1       -0.4481
     20 C           2.7959    6.5321    0.0479 C.3     1  LIG1       -0.0357
     21 H           3.0811    7.3870    0.6630 H       1  LIG1        0.0279
     22 H           3.1980    6.6834   -0.9560 H       1  LIG1        0.0279
     23 H           3.2358    5.6296    0.4723 H       1  LIG1        0.0279
     24 C           0.6951    8.8893   -0.5784 C.3     1  LIG1       -0.0357
     25 H          -0.1832    9.4147   -0.9472 H       1  LIG1        0.0279
     26 H           1.4728    8.9068   -1.3436 H       1  LIG1        0.0279
     27 H           1.0710    9.4121    0.3043 H       1  LIG1        0.0279
     28 C          -2.2298    7.4304   -0.1891 C.ar    1  LIG1        0.1741
     29 C          -3.4556    6.8575   -0.3409 C.ar    1  LIG1        0.0020
     30 C          -4.4009    7.9497   -0.3506 C.ar    1  LIG1        0.0020
     31 C          -3.6603    9.0837   -0.2134 C.ar    1  LIG1        0.1741
     32 O          -2.3433    8.7792   -0.1141 O.2     1  LIG1       -0.4481
     33 C          -3.8060    5.3982   -0.4749 C.3     1  LIG1       -0.0357
     34 H          -2.9054    4.7953   -0.5594 H       1  LIG1        0.0279
     35 H          -4.4277    5.2481   -1.3593 H       1  LIG1        0.0279
     36 H          -4.3689    5.0669    0.4001 H       1  LIG1        0.0279
     37 C          -5.8956    7.8103   -0.4781 C.3     1  LIG1       -0.0357
     38 H          -6.2658    7.1052    0.2682 H       1  LIG1        0.0279
     39 H          -6.1550    7.4286   -1.4675 H       1  LIG1        0.0279
     40 H          -6.3800    8.7730   -0.3353 H       1  LIG1        0.0279
     41 C          -3.9969   10.4995   -0.1492 C.ar    1  LIG1        0.1731
     42 C          -3.3161   11.5853    0.3104 C.ar    1  LIG1        0.0013
     43 C          -4.1927   12.7138    0.0827 C.ar    1  LIG1       -0.0091
     44 C          -5.3116   12.2045   -0.4822 C.ar    1  LIG1        0.0959
     45 O          -5.2082   10.8654   -0.6327 O.2     1  LIG1       -0.4593
     46 H          -6.2284   12.6559   -0.8197 H       1  LIG1        0.1032
     47 C          -1.9487   11.6447    0.9414 C.3     1  LIG1       -0.0358
     48 H          -1.9802   12.2713    1.8342 H       1  LIG1        0.0279
     49 H          -1.2268   12.0782    0.2452 H       1  LIG1        0.0279
     50 H          -1.6127   10.6473    1.2167 H       1  LIG1        0.0279
     51 C          -3.9012   14.1514    0.4246 C.3     1  LIG1       -0.0365
     52 H          -4.7350   14.7878    0.1295 H       1  LIG1        0.0279
     53 H          -3.0021   14.4917   -0.0915 H       1  LIG1        0.0279
     54 H          -3.7418   14.2634    1.4985 H       1  LIG1        0.0279
@<TRIPOS>BOND
     1    14    11    1
     2    13    11    1
     3    39    37    1
     4    35    33    1
     5    26    24    1
     6    11    12    1
     7    11     3    1
     8    22    20    1
     9    25    24    1
    10    46    44    1
    11    45    44   ar
    12    45    41   ar
    13    24    17    1
    14    24    27    1
    15    34    33    1
    16     9     7    1
    17    44    43   ar
    18    37    30    1
    19    37    40    1
    20    37    38    1
    21    33    29    1
    22    33    36    1
    23    30    29   ar
    24    30    31   ar
    25    29    28   ar
    26    17    18   ar
    27    17    16   ar
    28    31    41    1
    29    31    32   ar
    30    28    32   ar
    31    28    18    1
    32    41    42   ar
    33    18    19   ar
    34    53    51    1
    35     3     4   ar
    36     3     2   ar
    37    16    20    1
    38    16    15   ar
    39    20    23    1
    40    20    21    1
    41    43    42   ar
    42    43    51    1
    43    52    51    1
    44    19    15   ar
    45    49    47    1
    46    15     4    1
    47    42    47    1
    48    51    54    1
    49     7     8    1
    50     7     2    1
    51     7    10    1
    52     4     5   ar
    53     2     1   ar
    54    47    50    1
    55    47    48    1
    56     5     1   ar
    57     1     6    1
