@<TRIPOS>MOLECULE
mol_data/opt/m06hf/geoms/mol2/12ii12ii-12ii12ii-.out
 54 57 0 0 0
SMALL
GASTEIGER

@<TRIPOS>ATOM
      1 C           0.2468    1.7232    0.1483 C.ar    1  LIG1        0.0959
      2 C           1.4891    1.7649   -0.3855 C.ar    1  LIG1       -0.0091
      3 C           1.8417    3.1662   -0.4589 C.ar    1  LIG1        0.0013
      4 C           0.7705    3.8359    0.0496 C.ar    1  LIG1        0.1731
      5 O          -0.2016    2.9687    0.4208 O.2     1  LIG1       -0.4593
      6 H          -0.4173    0.9108    0.3881 H       1  LIG1        0.1032
      7 C           2.3444    0.6067   -0.8281 C.3     1  LIG1       -0.0365
      8 H           3.2942    0.6080   -0.2911 H       1  LIG1        0.0279
      9 H           2.5558    0.6743   -1.8967 H       1  LIG1        0.0279
     10 H           1.8352   -0.3367   -0.6337 H       1  LIG1        0.0279
     11 C           3.1324    3.7218   -1.0041 C.3     1  LIG1       -0.0358
     12 H           3.0484    4.7941   -1.1655 H       1  LIG1        0.0279
     13 H           3.3733    3.2348   -1.9504 H       1  LIG1        0.0279
     14 H           3.9520    3.5353   -0.3062 H       1  LIG1        0.0279
     15 C           0.5037    5.2529    0.2575 C.ar    1  LIG1        0.1741
     16 C          -0.6331    5.9717    0.4700 C.ar    1  LIG1        0.0020
     17 C          -0.2111    7.3466    0.6006 C.ar    1  LIG1        0.0020
     18 C           1.1414    7.3355    0.4447 C.ar    1  LIG1        0.1741
     19 O           1.5841    6.0715    0.2396 O.2     1  LIG1       -0.4481
     20 C          -2.0560    5.4832    0.5510 C.3     1  LIG1       -0.0357
     21 H          -2.1102    4.4278    0.2962 H       1  LIG1        0.0279
     22 H          -2.6826    6.0538   -0.1369 H       1  LIG1        0.0279
     23 H          -2.4446    5.6213    1.5620 H       1  LIG1        0.0279
     24 C          -1.1157    8.5237    0.8598 C.3     1  LIG1       -0.0357
     25 H          -1.8066    8.2866    1.6703 H       1  LIG1        0.0279
     26 H          -1.7014    8.7555   -0.0329 H       1  LIG1        0.0279
     27 H          -0.5306    9.3999    1.1310 H       1  LIG1        0.0279
     28 C           2.1491    8.3838    0.4447 C.ar    1  LIG1        0.1741
     29 C           3.5016    8.3728    0.6005 C.ar    1  LIG1        0.0020
     30 C           3.9236    9.7477    0.4698 C.ar    1  LIG1        0.0020
     31 C           2.7868   10.4664    0.2574 C.ar    1  LIG1        0.1741
     32 O           1.7064    9.6479    0.2395 O.2     1  LIG1       -0.4481
     33 C           4.4062    7.1957    0.8598 C.3     1  LIG1       -0.0357
     34 H           5.0972    7.4328    1.6702 H       1  LIG1        0.0279
     35 H           4.9920    6.9638   -0.0329 H       1  LIG1        0.0279
     36 H           3.8212    6.3195    1.1310 H       1  LIG1        0.0279
     37 C           5.3466   10.2361    0.5507 C.3     1  LIG1       -0.0357
     38 H           5.4007   11.2916    0.2959 H       1  LIG1        0.0279
     39 H           5.9731    9.6656   -0.1372 H       1  LIG1        0.0279
     40 H           5.7352   10.0981    1.5617 H       1  LIG1        0.0279
     41 C           2.5200   11.8834    0.0494 C.ar    1  LIG1        0.1731
     42 C           1.4488   12.5530   -0.4590 C.ar    1  LIG1        0.0013
     43 C           1.8013   13.9544   -0.3858 C.ar    1  LIG1       -0.0091
     44 C           3.0436   13.9961    0.1480 C.ar    1  LIG1        0.0959
     45 O           3.4921   12.7506    0.4205 O.2     1  LIG1       -0.4593
     46 H           3.7078   14.8085    0.3877 H       1  LIG1        0.1032
     47 C           0.1580   11.9975   -1.0041 C.3     1  LIG1       -0.0358
     48 H           0.2420   10.9251   -1.1655 H       1  LIG1        0.0279
     49 H          -0.0829   12.4844   -1.9505 H       1  LIG1        0.0279
     50 H          -0.6616   12.1840   -0.3062 H       1  LIG1        0.0279
     51 C           0.9460   15.1125   -0.8284 C.3     1  LIG1       -0.0365
     52 H          -0.0038   15.1112   -0.2913 H       1  LIG1        0.0279
     53 H           0.7345   15.0449   -1.8970 H       1  LIG1        0.0279
     54 H           1.4553   16.0560   -0.6341 H       1  LIG1        0.0279
@<TRIPOS>BOND
     1    49    47    1
     2    13    11    1
     3    53    51    1
     4     9     7    1
     5    48    47    1
     6    12    11    1
     7    47    42    1
     8    47    50    1
     9    11     3    1
    10    11    14    1
    11    51    54    1
    12    51    43    1
    13    51    52    1
    14     7    10    1
    15     7     2    1
    16     7     8    1
    17    42    43   ar
    18    42    41   ar
    19     3     2   ar
    20     3     4   ar
    21    43    44   ar
    22     2     1   ar
    23    39    37    1
    24    22    20    1
    25    35    33    1
    26    26    24    1
    27    41    31    1
    28    41    45   ar
    29     4    15    1
    30     4     5   ar
    31    44    46    1
    32    44    45   ar
    33     1     6    1
    34     1     5   ar
    35    32    31   ar
    36    32    28   ar
    37    19    15   ar
    38    19    18   ar
    39    31    30   ar
    40    15    16   ar
    41    38    37    1
    42    21    20    1
    43    28    18    1
    44    28    29   ar
    45    18    17   ar
    46    30    37    1
    47    30    29   ar
    48    16    20    1
    49    16    17   ar
    50    37    40    1
    51    20    23    1
    52    29    33    1
    53    17    24    1
    54    33    36    1
    55    33    34    1
    56    24    27    1
    57    24    25    1
