@<TRIPOS>MOLECULE
mol_data/opt/m06hf/geoms/mol2/12ii12ii-12ii-12ii.out
 54 57 0 0 0
SMALL
GASTEIGER

@<TRIPOS>ATOM
      1 C          -0.1142    1.7228    0.1205 C.ar    1  LIG1        0.0959
      2 C           1.1225    1.6636    0.6646 C.ar    1  LIG1       -0.0091
      3 C           1.6110    3.0262    0.6918 C.ar    1  LIG1        0.0013
      4 C           0.6114    3.7792    0.1536 C.ar    1  LIG1        0.1731
      5 O          -0.4381    2.9963   -0.1952 O.2     1  LIG1       -0.4593
      6 H          -0.8541    0.9718   -0.0977 H       1  LIG1        0.1032
      7 C           1.8626    0.4452    1.1508 C.3     1  LIG1       -0.0365
      8 H           2.0955    0.5378    2.2129 H       1  LIG1        0.0279
      9 H           2.8001    0.3266    0.6050 H       1  LIG1        0.0279
     10 H           1.2586   -0.4496    1.0037 H       1  LIG1        0.0279
     11 C           2.9604    3.4501    1.2140 C.3     1  LIG1       -0.0358
     12 H           3.0438    4.5330    1.2382 H       1  LIG1        0.0279
     13 H           3.7499    3.0485    0.5746 H       1  LIG1        0.0279
     14 H           3.1061    3.0558    2.2214 H       1  LIG1        0.0279
     15 C           0.4731    5.2065   -0.1109 C.ar    1  LIG1        0.1741
     16 C          -0.5365    5.9738   -0.6125 C.ar    1  LIG1        0.0020
     17 C          -0.0196    7.3224   -0.6407 C.ar    1  LIG1        0.0020
     18 C           1.2415    7.2514   -0.1369 C.ar    1  LIG1        0.1741
     19 O           1.5495    5.9711    0.1824 O.2     1  LIG1       -0.4481
     20 C          -1.9093    5.5651   -1.0817 C.3     1  LIG1       -0.0357
     21 H          -2.0811    4.5094   -0.8914 H       1  LIG1        0.0279
     22 H          -2.0093    5.7534   -2.1528 H       1  LIG1        0.0279
     23 H          -2.6681    6.1520   -0.5609 H       1  LIG1        0.0279
     24 C          -0.7264    8.5340   -1.1881 C.3     1  LIG1       -0.0357
     25 H          -1.1692    8.2968   -2.1566 H       1  LIG1        0.0279
     26 H          -0.0166    9.3514   -1.3170 H       1  LIG1        0.0279
     27 H          -1.5252    8.8604   -0.5186 H       1  LIG1        0.0279
     28 C           2.2639    8.2615    0.1023 C.ar    1  LIG1        0.1741
     29 C           2.2155    9.5111    0.6373 C.ar    1  LIG1        0.0020
     30 C           3.5676   10.0176    0.5879 C.ar    1  LIG1        0.0020
     31 C           4.3127    9.0161    0.0399 C.ar    1  LIG1        0.1741
     32 O           3.5315    7.9545   -0.2621 O.2     1  LIG1       -0.4481
     33 C           1.0238   10.2135    1.2315 C.3     1  LIG1       -0.0357
     34 H           0.2019    9.5086    1.3583 H       1  LIG1        0.0279
     35 H           0.6916   11.0341    0.5919 H       1  LIG1        0.0279
     36 H           1.2862   10.6265    2.2066 H       1  LIG1        0.0279
     37 C           4.0053   11.3694    1.0903 C.3     1  LIG1       -0.0357
     38 H           3.7837   11.4602    2.1556 H       1  LIG1        0.0279
     39 H           3.4635   12.1560    0.5619 H       1  LIG1        0.0279
     40 H           5.0717   11.5080    0.9355 H       1  LIG1        0.0279
     41 C           5.7309    8.8682   -0.2646 C.ar    1  LIG1        0.1731
     42 C           6.4874    7.8019   -0.6487 C.ar    1  LIG1        0.0013
     43 C           7.8330    8.3171   -0.7890 C.ar    1  LIG1       -0.0091
     44 C           7.7621    9.6315   -0.4764 C.ar    1  LIG1        0.0959
     45 O           6.4958    9.9811   -0.1584 O.2     1  LIG1       -0.4593
     46 H           8.4991   10.4153   -0.4377 H       1  LIG1        0.1032
     47 C           6.0786    6.3700   -0.8857 C.3     1  LIG1       -0.0358
     48 H           6.6661    5.7078   -0.2462 H       1  LIG1        0.0279
     49 H           6.2706    6.0960   -1.9253 H       1  LIG1        0.0279
     50 H           5.0221    6.2277   -0.6738 H       1  LIG1        0.0279
     51 C           9.0484    7.5279   -1.1995 C.3     1  LIG1       -0.0365
     52 H           9.9281    8.1704   -1.2239 H       1  LIG1        0.0279
     53 H           8.9051    7.0950   -2.1908 H       1  LIG1        0.0279
     54 H           9.2310    6.7147   -0.4949 H       1  LIG1        0.0279
@<TRIPOS>BOND
     1    53    51    1
     2    25    24    1
     3    22    20    1
     4    49    47    1
     5    26    24    1
     6    52    51    1
     7    51    43    1
     8    51    54    1
     9    24    17    1
    10    24    27    1
    11    20    21    1
    12    20    16    1
    13    20    23    1
    14    47    50    1
    15    47    42    1
    16    47    48    1
    17    43    42   ar
    18    43    44   ar
    19    42    41   ar
    20    17    16   ar
    21    17    18   ar
    22    16    15   ar
    23    44    46    1
    24    44    45   ar
    25    41    45   ar
    26    41    31    1
    27    32    31   ar
    28    32    28   ar
    29     5     1   ar
    30     5     4   ar
    31    18    28    1
    32    18    19   ar
    33    15     4    1
    34    15    19   ar
    35     6     1    1
    36    31    30   ar
    37    28    29   ar
    38     1     2   ar
    39     4     3   ar
    40    39    37    1
    41    13    11    1
    42    30    29   ar
    43    30    37    1
    44    35    33    1
    45     9     7    1
    46    29    33    1
    47     2     3   ar
    48     2     7    1
    49     3    11    1
    50    40    37    1
    51    10     7    1
    52    37    38    1
    53     7     8    1
    54    11    12    1
    55    11    14    1
    56    33    34    1
    57    33    36    1
