@<TRIPOS>MOLECULE
mol_data/opt/m06hf/geoms/mol2/12il12il-12il-12il-.out
 58 61 0 0 0
SMALL
GASTEIGER

@<TRIPOS>ATOM
      1 C          -0.0385    1.6851   -0.2527 C.ar    1  LIG1        0.0993
      2 C           1.2494    1.4573    0.0854 C.ar    1  LIG1        0.0297
      3 C           1.8045    2.7603    0.3625 C.ar    1  LIG1        0.1716
      4 C           0.8025    3.6710    0.1536 C.ar    1  LIG1        0.2116
      5 O          -0.3270    3.0012   -0.2149 O.2     1  LIG1       -0.4557
      6 H          -0.8427    1.0266   -0.5327 H       1  LIG1        0.1033
      7 C           2.0106    0.1643    0.1869 C.3     1  LIG1       -0.0332
      8 H           2.4297    0.0597    1.1879 H       1  LIG1        0.0280
      9 H           2.8339    0.1586   -0.5277 H       1  LIG1        0.0280
     10 H           1.3534   -0.6800   -0.0178 H       1  LIG1        0.0280
     11 O           3.0905    2.8613    0.7488 O.3     1  LIG1       -0.4909
     12 C           3.5076    3.9909    1.5122 C.3     1  LIG1        0.0790
     13 H           4.4021    3.6705    2.0410 H       1  LIG1        0.0660
     14 H           3.7296    4.8341    0.8615 H       1  LIG1        0.0660
     15 H           2.7272    4.2670    2.2250 H       1  LIG1        0.0660
     16 C           0.6543    5.1161    0.1914 C.ar    1  LIG1        0.1809
     17 C          -0.4627    5.9000    0.1812 C.ar    1  LIG1        0.0410
     18 C           0.0425    7.2439    0.1922 C.ar    1  LIG1        0.1723
     19 C           1.4051    7.1768    0.2163 C.ar    1  LIG1        0.2127
     20 O           1.7713    5.8740    0.2033 O.2     1  LIG1       -0.4444
     21 C          -1.9198    5.5181    0.1687 C.3     1  LIG1       -0.0325
     22 H          -2.2071    5.1285   -0.8081 H       1  LIG1        0.0280
     23 H          -2.5099    6.4066    0.3922 H       1  LIG1        0.0280
     24 H          -2.1197    4.7510    0.9154 H       1  LIG1        0.0280
     25 O          -0.7360    8.3619    0.1789 O.3     1  LIG1       -0.4909
     26 C          -0.8572    8.9457   -1.1197 C.3     1  LIG1        0.0790
     27 H          -1.4876    9.8241   -1.0015 H       1  LIG1        0.0660
     28 H           0.1280    9.2336   -1.4920 H       1  LIG1        0.0660
     29 H          -1.3204    8.2336   -1.8059 H       1  LIG1        0.0660
     30 C           2.4751    8.1612    0.2478 C.ar    1  LIG1        0.1809
     31 C           2.5281    9.4821    0.5867 C.ar    1  LIG1        0.0410
     32 C           3.9005    9.8502    0.3764 C.ar    1  LIG1        0.1723
     33 C           4.5685    8.7382   -0.0453 C.ar    1  LIG1        0.2126
     34 O           3.6942    7.7102   -0.1330 O.2     1  LIG1       -0.4444
     35 C           1.4648   10.4126    1.1066 C.3     1  LIG1       -0.0325
     36 H           0.5439    9.8683    1.3049 H       1  LIG1        0.0280
     37 H           1.2658   11.1975    0.3734 H       1  LIG1        0.0280
     38 H           1.8218   10.8884    2.0199 H       1  LIG1        0.0280
     39 O           4.3913   11.1011    0.5958 O.3     1  LIG1       -0.4909
     40 C           4.8042   11.7751   -0.5939 C.3     1  LIG1        0.0790
     41 H           5.1660   12.7508   -0.2788 H       1  LIG1        0.0660
     42 H           5.6032   11.2178   -1.0862 H       1  LIG1        0.0660
     43 H           3.9544   11.8856   -1.2706 H       1  LIG1        0.0660
     44 C           5.9616    8.4854   -0.3865 C.ar    1  LIG1        0.1799
     45 C           7.1220    9.0561    0.0416 C.ar    1  LIG1        0.0402
     46 C           8.1500    8.3727   -0.6997 C.ar    1  LIG1        0.1612
     47 C           7.5402    7.4512   -1.4907 C.ar    1  LIG1        0.1345
     48 O           6.1992    7.5238   -1.3047 O.2     1  LIG1       -0.4557
     49 H           7.8928    6.7162   -2.1904 H       1  LIG1        0.1068
     50 C           7.3660   10.1221    1.0755 C.3     1  LIG1       -0.0325
     51 H           6.4253   10.4540    1.5108 H       1  LIG1        0.0280
     52 H           7.8683   10.9745    0.6140 H       1  LIG1        0.0280
     53 H           8.0191    9.7288    1.8554 H       1  LIG1        0.0280
     54 O           9.4593    8.6692   -0.5448 O.3     1  LIG1       -0.4917
     55 C          10.3398    7.8918   -1.3350 C.3     1  LIG1        0.0789
     56 H          11.3450    8.2392   -1.1136 H       1  LIG1        0.0660
     57 H          10.2437    6.8335   -1.0763 H       1  LIG1        0.0660
     58 H          10.1187    8.0348   -2.3964 H       1  LIG1        0.0660
@<TRIPOS>BOND
     1    58    55    1
     2    49    47    1
     3    29    26    1
     4    28    26    1
     5    47    48   ar
     6    47    46   ar
     7    55    56    1
     8    55    57    1
     9    55    54    1
    10    48    44   ar
    11    43    40    1
    12    26    27    1
    13    26    25    1
    14    42    40    1
    15    22    21    1
    16    46    54    1
    17    46    45   ar
    18    40    41    1
    19    40    39    1
    20     6     1    1
    21     9     7    1
    22    44    33    1
    23    44    45   ar
    24     1     5   ar
    25     1     2   ar
    26     5     4   ar
    27    34    33   ar
    28    34    30   ar
    29    33    32   ar
    30    10     7    1
    31    45    50    1
    32     2     7    1
    33     2     3   ar
    34     4    16    1
    35     4     3   ar
    36    21    17    1
    37    21    23    1
    38    21    24    1
    39    25    18    1
    40    17    16   ar
    41    17    18   ar
    42     7     8    1
    43    16    20   ar
    44    18    19   ar
    45    20    19   ar
    46    19    30    1
    47    30    31   ar
    48     3    11    1
    49    37    35    1
    50    32    31   ar
    51    32    39    1
    52    31    35    1
    53    52    50    1
    54    11    12    1
    55    14    12    1
    56    50    51    1
    57    50    53    1
    58    35    36    1
    59    35    38    1
    60    12    13    1
    61    12    15    1
