@<TRIPOS>MOLECULE
mol_data/opt/m06hf/geoms/mol2/12il12il12il12il.out
 58 61 0 0 0
SMALL
GASTEIGER

@<TRIPOS>ATOM
      1 C           0.8066    1.6496    1.9632 C.ar    1  LIG1        0.0993
      2 C           1.9490    1.5615    1.2380 C.ar    1  LIG1        0.0297
      3 C           2.1036    2.8667    0.6514 C.ar    1  LIG1        0.1716
      4 C           1.0528    3.6253    1.0734 C.ar    1  LIG1        0.2116
      5 O           0.2586    2.8797    1.8728 O.2     1  LIG1       -0.4557
      6 H           0.2783    0.9368    2.5726 H       1  LIG1        0.1033
      7 C           2.8812    0.3953    1.0476 C.3     1  LIG1       -0.0332
      8 H           3.8834    0.6598    1.3847 H       1  LIG1        0.0280
      9 H           2.9369    0.1246   -0.0077 H       1  LIG1        0.0280
     10 H           2.5307   -0.4668    1.6136 H       1  LIG1        0.0280
     11 O           3.1153    3.2288   -0.1856 O.3     1  LIG1       -0.4909
     12 C           2.6931    3.4273   -1.5352 C.3     1  LIG1        0.0790
     13 H           3.5946    3.6315   -2.1088 H       1  LIG1        0.0660
     14 H           2.2023    2.5268   -1.9096 H       1  LIG1        0.0660
     15 H           2.0066    4.2747   -1.5945 H       1  LIG1        0.0660
     16 C           0.7147    5.0159    0.8213 C.ar    1  LIG1        0.1809
     17 C           1.5172    6.1015    0.6298 C.ar    1  LIG1        0.0410
     18 C           0.5995    7.1821    0.3926 C.ar    1  LIG1        0.1723
     19 C          -0.6623    6.6726    0.4732 C.ar    1  LIG1        0.2127
     20 O          -0.5931    5.3486    0.7302 O.2     1  LIG1       -0.4444
     21 C           3.0173    6.2029    0.6982 C.3     1  LIG1       -0.0325
     22 H           3.2846    7.2095    1.0196 H       1  LIG1        0.0280
     23 H           3.4724    6.0103   -0.2755 H       1  LIG1        0.0280
     24 H           3.4094    5.4707    1.4029 H       1  LIG1        0.0280
     25 O           0.9438    8.4751    0.1415 O.3     1  LIG1       -0.4909
     26 C           1.0896    8.7531   -1.2509 C.3     1  LIG1        0.0790
     27 H           1.3947    9.7943   -1.3264 H       1  LIG1        0.0660
     28 H           1.8536    8.1049   -1.6854 H       1  LIG1        0.0660
     29 H           0.1376    8.5985   -1.7625 H       1  LIG1        0.0660
     30 C          -1.9612    7.3108    0.3441 C.ar    1  LIG1        0.1809
     31 C          -2.3720    8.5725    0.6562 C.ar    1  LIG1        0.0410
     32 C          -3.7519    8.6036    0.2591 C.ar    1  LIG1        0.1723
     33 C          -4.0647    7.3737   -0.2409 C.ar    1  LIG1        0.2126
     34 O          -2.9677    6.5863   -0.1969 O.2     1  LIG1       -0.4444
     35 C          -1.6140    9.7020    1.2993 C.3     1  LIG1       -0.0325
     36 H          -2.3092   10.3023    1.8851 H       1  LIG1        0.0280
     37 H          -1.1494   10.3364    0.5423 H       1  LIG1        0.0280
     38 H          -0.8259    9.3095    1.9396 H       1  LIG1        0.0280
     39 O          -4.5698    9.6848    0.3916 O.3     1  LIG1       -0.4909
     40 C          -4.8412   10.3546   -0.8409 C.3     1  LIG1        0.0790
     41 H          -5.4627   11.2108   -0.5905 H       1  LIG1        0.0660
     42 H          -3.9059   10.6861   -1.2965 H       1  LIG1        0.0660
     43 H          -5.3741    9.6879   -1.5207 H       1  LIG1        0.0660
     44 C          -5.3040    6.8212   -0.7719 C.ar    1  LIG1        0.1799
     45 C          -6.6079    7.0270   -0.4342 C.ar    1  LIG1        0.0402
     46 C          -7.3491    6.2220   -1.3739 C.ar    1  LIG1        0.1612
     47 C          -6.4487    5.5995   -2.1737 C.ar    1  LIG1        0.1345
     48 O          -5.2011    5.9660   -1.8172 O.2     1  LIG1       -0.4557
     49 H          -6.5514    4.9180   -2.9988 H       1  LIG1        0.1068
     50 C          -7.1993    7.8630    0.6715 C.3     1  LIG1       -0.0325
     51 H          -7.2889    7.2727    1.5858 H       1  LIG1        0.0280
     52 H          -8.1945    8.1912    0.3691 H       1  LIG1        0.0280
     53 H          -6.5700    8.7280    0.8772 H       1  LIG1        0.0280
     54 O          -8.7070    6.1198   -1.4352 O.3     1  LIG1       -0.4917
     55 C          -9.2422    5.2067   -0.4810 C.3     1  LIG1        0.0789
     56 H         -10.3208    5.2131   -0.6186 H       1  LIG1        0.0660
     57 H          -8.8442    4.2055   -0.6584 H       1  LIG1        0.0660
     58 H          -8.9933    5.5235    0.5342 H       1  LIG1        0.0660
@<TRIPOS>BOND
     1    49    47    1
     2    47    48   ar
     3    47    46   ar
     4    13    12    1
     5    14    12    1
     6    48    44   ar
     7    29    26    1
     8    28    26    1
     9    15    12    1
    10    12    11    1
    11    43    40    1
    12    54    46    1
    13    54    55    1
    14    46    45   ar
    15    27    26    1
    16    42    40    1
    17    26    25    1
    18    40    41    1
    19    40    39    1
    20    44    45   ar
    21    44    33    1
    22    57    55    1
    23    56    55    1
    24    55    58    1
    25    45    50    1
    26    23    21    1
    27    33    34   ar
    28    33    32   ar
    29    34    30   ar
    30    11     3    1
    31     9     7    1
    32    25    18    1
    33    32    39    1
    34    32    31   ar
    35    30    19    1
    36    30    31   ar
    37    52    50    1
    38    18    19   ar
    39    18    17   ar
    40    19    20   ar
    41    37    35    1
    42    17    21    1
    43    17    16   ar
    44     3     4   ar
    45     3     2   ar
    46    31    35    1
    47    50    53    1
    48    50    51    1
    49    21    22    1
    50    21    24    1
    51    20    16   ar
    52    16     4    1
    53     7     2    1
    54     7     8    1
    55     7    10    1
    56     4     5   ar
    57     2     1   ar
    58    35    36    1
    59    35    38    1
    60     5     1   ar
    61     1     6    1
