@<TRIPOS>MOLECULE
mol_data/opt/m06hf/geoms/mol2/12il12il-12il12il.out
 58 61 0 0 0
SMALL
GASTEIGER

@<TRIPOS>ATOM
      1 C           0.0059    1.6528    0.3070 C.ar    1  LIG1        0.0993
      2 C           1.3575    1.5685    0.3136 C.ar    1  LIG1        0.0297
      3 C           1.8115    2.9269    0.1498 C.ar    1  LIG1        0.1716
      4 C           0.6986    3.7097    0.0670 C.ar    1  LIG1        0.2116
      5 O          -0.4049    2.9349    0.1631 O.2     1  LIG1       -0.4557
      6 H          -0.7685    0.9103    0.3904 H       1  LIG1        0.1033
      7 C           2.2403    0.3549    0.4317 C.3     1  LIG1       -0.0332
      8 H           2.8450    0.4095    1.3376 H       1  LIG1        0.0280
      9 H           2.9117    0.3028   -0.4252 H       1  LIG1        0.0280
     10 H           1.6355   -0.5503    0.4672 H       1  LIG1        0.0280
     11 O           3.1143    3.3127    0.0787 O.3     1  LIG1       -0.4909
     12 C           3.6268    3.8267    1.3091 C.3     1  LIG1        0.0790
     13 H           4.6894    3.9938    1.1493 H       1  LIG1        0.0660
     14 H           3.1306    4.7670    1.5542 H       1  LIG1        0.0660
     15 H           3.4763    3.1003    2.1112 H       1  LIG1        0.0660
     16 C           0.5227    5.1349   -0.1158 C.ar    1  LIG1        0.1809
     17 C          -0.5758    5.9251   -0.2666 C.ar    1  LIG1        0.0410
     18 C          -0.0457    7.2532   -0.4328 C.ar    1  LIG1        0.1723
     19 C           1.3139    7.1615   -0.3570 C.ar    1  LIG1        0.2127
     20 O           1.6599    5.8685   -0.1593 O.2     1  LIG1       -0.4444
     21 C          -2.0367    5.5593   -0.2900 C.3     1  LIG1       -0.0325
     22 H          -2.3652    5.2208    0.6931 H       1  LIG1        0.0280
     23 H          -2.2208    4.7615   -1.0083 H       1  LIG1        0.0280
     24 H          -2.6056    6.4432   -0.5776 H       1  LIG1        0.0280
     25 O          -0.7964    8.3597   -0.6609 O.3     1  LIG1       -0.4909
     26 C          -1.0311    9.1543    0.5032 C.3     1  LIG1        0.0790
     27 H          -1.7022    9.9511    0.1930 H       1  LIG1        0.0660
     28 H          -1.5000    8.5467    1.2808 H       1  LIG1        0.0660
     29 H          -0.0904    9.5717    0.8617 H       1  LIG1        0.0660
     30 C           2.3869    8.1295   -0.4613 C.ar    1  LIG1        0.1809
     31 C           3.7316    7.9920   -0.6374 C.ar    1  LIG1        0.0410
     32 C           4.2252    9.3414   -0.6618 C.ar    1  LIG1        0.1723
     33 C           3.1604   10.1762   -0.4934 C.ar    1  LIG1        0.2126
     34 O           2.0346    9.4327   -0.3742 O.2     1  LIG1       -0.4444
     35 C           4.5765    6.7561   -0.8055 C.3     1  LIG1       -0.0325
     36 H           5.2270    6.6358    0.0628 H       1  LIG1        0.0280
     37 H           5.2098    6.8693   -1.6863 H       1  LIG1        0.0280
     38 H           3.9526    5.8707   -0.9145 H       1  LIG1        0.0280
     39 O           5.5334    9.6701   -0.8471 O.3     1  LIG1       -0.4909
     40 C           5.7907   10.3391   -2.0849 C.3     1  LIG1        0.0790
     41 H           6.8666   10.4888   -2.1297 H       1  LIG1        0.0660
     42 H           5.4580    9.7162   -2.9173 H       1  LIG1        0.0660
     43 H           5.2749   11.3009   -2.1088 H       1  LIG1        0.0660
     44 C           3.0404   11.6248   -0.4174 C.ar    1  LIG1        0.1799
     45 C           3.8796   12.5822    0.0688 C.ar    1  LIG1        0.0402
     46 C           3.1955   13.8238   -0.1996 C.ar    1  LIG1        0.1612
     47 C           2.0168   13.5166   -0.7953 C.ar    1  LIG1        0.1345
     48 O           1.9185   12.1787   -0.9351 O.2     1  LIG1       -0.4557
     49 H           1.2064   14.1173   -1.1674 H       1  LIG1        0.1068
     50 C           5.2090   12.4371    0.7639 C.3     1  LIG1       -0.0325
     51 H           5.0680   12.4125    1.8466 H       1  LIG1        0.0280
     52 H           5.8342   13.2955    0.5150 H       1  LIG1        0.0280
     53 H           5.7059   11.5163    0.4592 H       1  LIG1        0.0280
     54 O           3.6693   15.0693    0.0867 O.3     1  LIG1       -0.4917
     55 C           3.4457   15.4609    1.4384 C.3     1  LIG1        0.0789
     56 H           3.8806   16.4512    1.5486 H       1  LIG1        0.0660
     57 H           2.3746   15.4924    1.6468 H       1  LIG1        0.0660
     58 H           3.9299   14.7630    2.1250 H       1  LIG1        0.0660
@<TRIPOS>BOND
     1    42    40    1
     2    41    40    1
     3    43    40    1
     4    40    39    1
     5    37    35    1
     6    49    47    1
     7    23    21    1
     8    48    47   ar
     9    48    44   ar
    10    38    35    1
    11    39    32    1
    12    35    31    1
    13    35    36    1
    14    47    46   ar
    15    32    31   ar
    16    32    33   ar
    17    25    18    1
    18    25    26    1
    19    31    30   ar
    20    24    21    1
    21    33    44    1
    22    33    34   ar
    23    30    34   ar
    24    30    19    1
    25    18    19   ar
    26    18    17   ar
    27     9     7    1
    28    44    45   ar
    29    19    20   ar
    30    21    17    1
    31    21    22    1
    32    17    16   ar
    33    46    45   ar
    34    46    54    1
    35    20    16   ar
    36    16     4    1
    37     4     3   ar
    38     4     5   ar
    39    45    50    1
    40    11     3    1
    41    11    12    1
    42    54    55    1
    43     3     2   ar
    44     5     1   ar
    45    27    26    1
    46     1     2   ar
    47     1     6    1
    48     2     7    1
    49     7    10    1
    50     7     8    1
    51    53    50    1
    52    26    29    1
    53    26    28    1
    54    52    50    1
    55    50    51    1
    56    13    12    1
    57    12    14    1
    58    12    15    1
    59    55    56    1
    60    55    57    1
    61    55    58    1
