@<TRIPOS>MOLECULE
mol_data/opt/m06hf/geoms/mol2/12il12il.out
 30 31 0 0 0
SMALL
GASTEIGER

@<TRIPOS>ATOM
      1 C           0.0925    1.6025    0.3465 C.ar    1  LIG1        0.0993
      2 C           1.4449    1.5332    0.4021 C.ar    1  LIG1        0.0297
      3 C           1.8823    2.8949    0.2402 C.ar    1  LIG1        0.1716
      4 C           0.7654    3.6643    0.1058 C.ar    1  LIG1        0.2116
      5 O          -0.3289    2.8726    0.1682 O.2     1  LIG1       -0.4557
      6 H          -0.6749    0.8508    0.4137 H       1  LIG1        0.1033
      7 C           2.3388    0.3359    0.5832 C.3     1  LIG1       -0.0332
      8 H           2.9704    0.4713    1.4610 H       1  LIG1        0.0280
      9 H           2.9852    0.2121   -0.2867 H       1  LIG1        0.0280
     10 H           1.7417   -0.5665    0.7097 H       1  LIG1        0.0280
     11 O           3.1848    3.2946    0.2138 O.3     1  LIG1       -0.4909
     12 C           3.6151    3.7503   -1.0687 C.3     1  LIG1        0.0790
     13 H           4.6729    3.9831   -0.9688 H       1  LIG1        0.0660
     14 H           3.4695    2.9638   -1.8122 H       1  LIG1        0.0660
     15 H           3.0577    4.6433   -1.3587 H       1  LIG1        0.0660
     16 C           0.6023    5.1007   -0.0527 C.ar    1  LIG1        0.1799
     17 C           1.3347    6.1348    0.4453 C.ar    1  LIG1        0.0402
     18 C           0.6854    7.3132   -0.0756 C.ar    1  LIG1        0.1612
     19 C          -0.3663    6.8976   -0.8235 C.ar    1  LIG1        0.1345
     20 O          -0.4202    5.5488   -0.8169 O.2     1  LIG1       -0.4557
     21 H          -1.1298    7.4237   -1.3673 H       1  LIG1        0.1068
     22 C           2.5002    6.0959    1.3968 C.3     1  LIG1       -0.0325
     23 H           2.4855    6.9993    2.0072 H       1  LIG1        0.0280
     24 H           3.4514    6.0461    0.8621 H       1  LIG1        0.0280
     25 H           2.4287    5.2160    2.0351 H       1  LIG1        0.0280
     26 O           1.0464    8.6005    0.1873 O.3     1  LIG1       -0.4917
     27 C           2.1493    9.0484   -0.5949 C.3     1  LIG1        0.0789
     28 H           2.3700   10.0605   -0.2652 H       1  LIG1        0.0660
     29 H           3.0187    8.4063   -0.4349 H       1  LIG1        0.0660
     30 H           1.8832    9.0450   -1.6539 H       1  LIG1        0.0660
@<TRIPOS>BOND
     1    14    12    1
     2    30    27    1
     3    21    19    1
     4    15    12    1
     5    12    13    1
     6    12    11    1
     7    19    20   ar
     8    19    18   ar
     9    20    16   ar
    10    27    29    1
    11    27    28    1
    12    27    26    1
    13     9     7    1
    14    18    26    1
    15    18    17   ar
    16    16     4    1
    17    16    17   ar
    18     4     5   ar
    19     4     3   ar
    20     5     1   ar
    21    11     3    1
    22     3     2   ar
    23     1     2   ar
    24     1     6    1
    25     2     7    1
    26    17    22    1
    27     7    10    1
    28     7     8    1
    29    24    22    1
    30    22    23    1
    31    22    25    1
