@<TRIPOS>MOLECULE
mol_data/opt/m06hf/geoms/mol2/12il12il12il12il-.out
 58 61 0 0 0
SMALL
GASTEIGER

@<TRIPOS>ATOM
      1 C           1.1350    1.6898    2.0372 C.ar    1  LIG1        0.0993
      2 C           2.2358    1.6309    1.2480 C.ar    1  LIG1        0.0297
      3 C           2.3124    2.9327    0.6397 C.ar    1  LIG1        0.1716
      4 C           1.2634    3.6622    1.1151 C.ar    1  LIG1        0.2116
      5 O           0.5413    2.8999    1.9660 O.2     1  LIG1       -0.4557
      6 H           0.6679    0.9675    2.6840 H       1  LIG1        0.1033
      7 C           3.1947    0.4940    1.0170 C.3     1  LIG1       -0.0332
      8 H           4.2066    0.7991    1.2839 H       1  LIG1        0.0280
      9 H           3.1918    0.2049   -0.0348 H       1  LIG1        0.0280
     10 H           2.9119   -0.3685    1.6195 H       1  LIG1        0.0280
     11 O           3.2641    3.3169   -0.2554 O.3     1  LIG1       -0.4909
     12 C           2.7665    3.4767   -1.5843 C.3     1  LIG1        0.0790
     13 H           3.6265    3.7225   -2.2033 H       1  LIG1        0.0660
     14 H           2.3080    2.5465   -1.9260 H       1  LIG1        0.0660
     15 H           2.0327    4.2849   -1.6175 H       1  LIG1        0.0660
     16 C           0.8577    5.0353    0.8660 C.ar    1  LIG1        0.1809
     17 C           1.5972    6.1463    0.5869 C.ar    1  LIG1        0.0410
     18 C           0.6223    7.1841    0.3959 C.ar    1  LIG1        0.1723
     19 C          -0.6089    6.6294    0.5887 C.ar    1  LIG1        0.2127
     20 O          -0.4669    5.3153    0.8687 O.2     1  LIG1       -0.4444
     21 C           3.0918    6.3121    0.5248 C.3     1  LIG1       -0.0325
     22 H           3.3472    7.3146    0.8670 H       1  LIG1        0.0280
     23 H           3.4579    6.1877   -0.4968 H       1  LIG1        0.0280
     24 H           3.5786    5.5669    1.1519 H       1  LIG1        0.0280
     25 O           0.9022    8.4784    0.0768 O.3     1  LIG1       -0.4909
     26 C           0.7524    8.7525   -1.3161 C.3     1  LIG1        0.0790
     27 H           1.0273    9.7957   -1.4551 H       1  LIG1        0.0660
     28 H           1.4148    8.1078   -1.8979 H       1  LIG1        0.0660
     29 H          -0.2839    8.5906   -1.6185 H       1  LIG1        0.0660
     30 C          -1.9409    7.2041    0.5413 C.ar    1  LIG1        0.1809
     31 C          -2.3945    8.4621    0.8015 C.ar    1  LIG1        0.0410
     32 C          -3.8097    8.3948    0.5535 C.ar    1  LIG1        0.1723
     33 C          -4.0941    7.1175    0.1663 C.ar    1  LIG1        0.2126
     34 O          -2.9546    6.3924    0.1528 O.2     1  LIG1       -0.4444
     35 C          -1.6529    9.6696    1.3084 C.3     1  LIG1       -0.0325
     36 H          -2.3434   10.2785    1.8916 H       1  LIG1        0.0280
     37 H          -1.2683   10.2679    0.4800 H       1  LIG1        0.0280
     38 H          -0.8097    9.3635    1.9251 H       1  LIG1        0.0280
     39 O          -4.6770    9.4244    0.7335 O.3     1  LIG1       -0.4909
     40 C          -4.9860   10.1310   -0.4670 C.3     1  LIG1        0.0790
     41 H          -5.6512   10.9417   -0.1794 H       1  LIG1        0.0660
     42 H          -4.0723   10.5348   -0.9103 H       1  LIG1        0.0660
     43 H          -5.4854    9.4649   -1.1709 H       1  LIG1        0.0660
     44 C          -5.3326    6.4541   -0.1987 C.ar    1  LIG1        0.1799
     45 C          -5.6482    5.1481   -0.4135 C.ar    1  LIG1        0.0402
     46 C          -7.0512    5.1720   -0.7408 C.ar    1  LIG1        0.1612
     47 C          -7.4641    6.4652   -0.6949 C.ar    1  LIG1        0.1345
     48 O          -6.4087    7.2549   -0.3664 O.2     1  LIG1       -0.4557
     49 H          -8.4048    6.9582   -0.8555 H       1  LIG1        0.1068
     50 C          -4.8024    3.9045   -0.3391 C.3     1  LIG1       -0.0325
     51 H          -3.8368    4.1235    0.1101 H       1  LIG1        0.0280
     52 H          -4.6494    3.5000   -1.3408 H       1  LIG1        0.0280
     53 H          -5.3236    3.1524    0.2539 H       1  LIG1        0.0280
     54 O          -7.7390    4.0429   -1.0189 O.3     1  LIG1       -0.4917
     55 C          -9.1142    4.2406   -1.2887 C.3     1  LIG1        0.0789
     56 H          -9.5385    3.2592   -1.4810 H       1  LIG1        0.0660
     57 H          -9.6042    4.6994   -0.4255 H       1  LIG1        0.0660
     58 H          -9.2374    4.8800   -2.1674 H       1  LIG1        0.0660
@<TRIPOS>BOND
     1    13    12    1
     2    58    55    1
     3    14    12    1
     4    28    26    1
     5    29    26    1
     6    15    12    1
     7    12    11    1
     8    56    55    1
     9    27    26    1
    10    52    50    1
    11    26    25    1
    12    55    54    1
    13    55    57    1
    14    43    40    1
    15    54    46    1
    16    42    40    1
    17    49    47    1
    18    46    47   ar
    19    46    45   ar
    20    47    48   ar
    21    23    21    1
    22    40    41    1
    23    40    39    1
    24    45    50    1
    25    45    44   ar
    26    48    44   ar
    27    50    51    1
    28    50    53    1
    29    11     3    1
    30    44    33    1
    31     9     7    1
    32    25    18    1
    33    34    33   ar
    34    34    30   ar
    35    33    32   ar
    36    18    17   ar
    37    18    19   ar
    38    37    35    1
    39    21    17    1
    40    21    22    1
    41    21    24    1
    42    30    19    1
    43    30    31   ar
    44    32    39    1
    45    32    31   ar
    46    17    16   ar
    47    19    20   ar
    48     3     4   ar
    49     3     2   ar
    50    31    35    1
    51    16    20   ar
    52    16     4    1
    53     7     2    1
    54     7     8    1
    55     7    10    1
    56     4     5   ar
    57     2     1   ar
    58    35    36    1
    59    35    38    1
    60     5     1   ar
    61     1     6    1
