@<TRIPOS>MOLECULE
mol_data/opt/m06hf/geoms/mol2/12il13dd-4dd-12fi-.out
 49 52 0 0 0
SMALL
GASTEIGER

@<TRIPOS>ATOM
      1 C           0.2272    1.6506   -0.5601 C.ar    1  LIG1        0.0992
      2 C           1.5664    1.6371   -0.7603 C.ar    1  LIG1        0.0297
      3 C           1.9881    2.9989   -0.5179 C.ar    1  LIG1        0.1700
      4 C           0.8735    3.7017   -0.1792 C.ar    1  LIG1        0.1938
      5 O          -0.2087    2.8833   -0.2106 O.2     1  LIG1       -0.4574
      6 H          -0.5248    0.8839   -0.6350 H       1  LIG1        0.1033
      7 C           2.4403    0.4920   -1.2028 C.3     1  LIG1       -0.0332
      8 H           2.9856    0.0681   -0.3586 H       1  LIG1        0.0280
      9 H           3.1589    0.8498   -1.9405 H       1  LIG1        0.0280
     10 H           1.8319   -0.2914   -1.6527 H       1  LIG1        0.0280
     11 O           3.2252    3.5142   -0.6786 O.3     1  LIG1       -0.4910
     12 C           4.1951    3.0806    0.2822 C.3     1  LIG1        0.0790
     13 H           5.0804    3.6827    0.1020 H       1  LIG1        0.0660
     14 H           3.8253    3.2635    1.2909 H       1  LIG1        0.0660
     15 H           4.4170    2.0213    0.1411 H       1  LIG1        0.0660
     16 C           0.6148    5.1004    0.1086 C.ar    1  LIG1        0.1051
     17 C           1.4295    6.1460    0.5043 C.ar    1  LIG1        0.0980
     18 C           0.6014    7.3058    0.6029 C.ar    1  LIG1        0.0950
     19 C          -0.6827    6.9277    0.2719 C.ar    1  LIG1        0.0671
     20 N          -0.6460    5.5961   -0.0149 N.ar    1  LIG1       -0.3496
     21 H          -1.4302    5.0467   -0.3400 H       1  LIG1        0.1661
     22 N           3.9277    6.0579    1.1372 N.1     1  LIG1       -0.1908
     23 C           2.8206    6.0826    0.8353 C.1     1  LIG1        0.1027
     24 N           1.3029    9.6519    1.4160 N.1     1  LIG1       -0.1908
     25 C           0.9988    8.6089    1.0478 C.1     1  LIG1        0.1026
     26 C          -2.0674    8.9002   -0.4568 C.ar    1  LIG1        0.0616
     27 C          -3.2500    9.6263   -0.4426 C.ar    1  LIG1       -0.0317
     28 C          -1.9404    7.6978    0.2569 C.ar    1  LIG1        0.0182
     29 C          -4.3650    9.1691    0.2751 C.ar    1  LIG1        0.0395
     30 H          -3.3154   10.5500   -1.0005 H       1  LIG1        0.0638
     31 C          -3.0447    7.2385    0.9634 C.ar    1  LIG1       -0.0333
     32 C          -4.2445    7.9534    0.9701 C.ar    1  LIG1        0.0632
     33 H          -2.9768    6.3261    1.5421 H       1  LIG1        0.0637
     34 N          -0.1368    9.7843   -1.9510 N.1     1  LIG1       -0.1908
     35 C          -0.9736    9.3882   -1.2743 C.1     1  LIG1        0.0998
     36 N          -6.1138    6.8139    2.3625 N.1     1  LIG1       -0.1908
     37 C          -5.3242    7.3630    1.7377 C.1     1  LIG1        0.0999
     38 C          -5.5815    9.9700    0.2651 C.ar    1  LIG1        0.1775
     39 C          -5.8919   11.1562   -0.3396 C.ar    1  LIG1        0.1656
     40 C          -7.2441   11.4832    0.0169 C.ar    1  LIG1        0.0294
     41 C          -7.6392   10.4586    0.8146 C.ar    1  LIG1        0.0991
     42 O          -6.6632    9.5538    0.9685 O.2     1  LIG1       -0.4588
     43 H          -8.5663   10.2552    1.3227 H       1  LIG1        0.1033
     44 O          -5.0641   11.8712   -1.1377 O.3     1  LIG1       -0.5030
     45 H          -5.4681   12.7103   -1.3825 H       1  LIG1        0.2923
     46 C          -8.0156   12.7024   -0.4183 C.3     1  LIG1       -0.0332
     47 H          -9.0265   12.6639   -0.0154 H       1  LIG1        0.0280
     48 H          -8.0841   12.7477   -1.5072 H       1  LIG1        0.0280
     49 H          -7.5388   13.6146   -0.0540 H       1  LIG1        0.0280
@<TRIPOS>BOND
     1    34    35    3
     2     9     7    1
     3    10     7    1
     4    48    46    1
     5    45    44    1
     6    35    26    1
     7     7     2    1
     8     7     8    1
     9    44    39    1
    10    30    27    1
    11     2     1   ar
    12     2     3   ar
    13    11     3    1
    14    11    12    1
    15     6     1    1
    16     1     5   ar
    17     3     4   ar
    18    26    27   ar
    19    26    28   ar
    20    27    29   ar
    21    46    49    1
    22    46    47    1
    23    46    40    1
    24    21    20    1
    25    39    40   ar
    26    39    38   ar
    27     5     4   ar
    28     4    16    1
    29    20    16   ar
    30    20    19   ar
    31    40    41   ar
    32    13    12    1
    33    16    17   ar
    34    15    12    1
    35    28    19    1
    36    28    31   ar
    37    38    29    1
    38    38    42   ar
    39    19    18   ar
    40    29    32   ar
    41    12    14    1
    42    17    18   ar
    43    17    23    1
    44    18    25    1
    45    41    42   ar
    46    41    43    1
    47    23    22    3
    48    31    32   ar
    49    31    33    1
    50    32    37    1
    51    25    24    3
    52    37    36    3
