@<TRIPOS>MOLECULE
mol_data/opt/m06hf/geoms/mol2/12il12il-12il-12il.out
 58 61 0 0 0
SMALL
GASTEIGER

@<TRIPOS>ATOM
      1 C          -0.1030    1.7434   -0.1545 C.ar    1  LIG1        0.0993
      2 C           1.2369    1.6202   -0.3051 C.ar    1  LIG1        0.0297
      3 C           1.7321    2.9734   -0.3416 C.ar    1  LIG1        0.1716
      4 C           0.6489    3.7936   -0.2183 C.ar    1  LIG1        0.2116
      5 O          -0.4720    3.0450   -0.1058 O.2     1  LIG1       -0.4557
      6 H          -0.8951    1.0197   -0.0696 H       1  LIG1        0.1033
      7 C           2.0822    0.3791   -0.4041 C.3     1  LIG1       -0.0332
      8 H           2.8442    0.3871    0.3751 H       1  LIG1        0.0280
      9 H           2.5845    0.3396   -1.3714 H       1  LIG1        0.0280
     10 H           1.4645   -0.5108   -0.2913 H       1  LIG1        0.0280
     11 O           3.0436    3.3086   -0.4617 O.3     1  LIG1       -0.4909
     12 C           3.4160    3.7552   -1.7685 C.3     1  LIG1        0.0790
     13 H           4.5018    3.8167   -1.7703 H       1  LIG1        0.0660
     14 H           3.0782    3.0368   -2.5187 H       1  LIG1        0.0660
     15 H           2.9853    4.7379   -1.9617 H       1  LIG1        0.0660
     16 C           0.5046    5.2340   -0.1788 C.ar    1  LIG1        0.1809
     17 C          -0.5748    6.0513   -0.0198 C.ar    1  LIG1        0.0410
     18 C          -0.0271    7.3787   -0.0761 C.ar    1  LIG1        0.1723
     19 C           1.3195    7.2631   -0.2668 C.ar    1  LIG1        0.2127
     20 O           1.6401    5.9497   -0.3253 O.2     1  LIG1       -0.4444
     21 C          -2.0270    5.7042    0.1806 C.3     1  LIG1       -0.0325
     22 H          -2.1532    5.0797    1.0645 H       1  LIG1        0.0280
     23 H          -2.4125    5.1613   -0.6821 H       1  LIG1        0.0280
     24 H          -2.5896    6.6292    0.3023 H       1  LIG1        0.0280
     25 O          -0.7537    8.5232    0.0567 O.3     1  LIG1       -0.4909
     26 C          -0.5900    9.1477    1.3316 C.3     1  LIG1        0.0790
     27 H          -1.2136   10.0387    1.3177 H       1  LIG1        0.0660
     28 H          -0.9153    8.4679    2.1215 H       1  LIG1        0.0660
     29 H           0.4559    9.4209    1.4835 H       1  LIG1        0.0660
     30 C           2.4211    8.2018   -0.3923 C.ar    1  LIG1        0.1809
     31 C           2.5251    9.5100   -0.7617 C.ar    1  LIG1        0.0410
     32 C           3.9342    9.7967   -0.6945 C.ar    1  LIG1        0.1723
     33 C           4.5628    8.6531   -0.2936 C.ar    1  LIG1        0.2126
     34 O           3.6401    7.6873   -0.1016 O.2     1  LIG1       -0.4444
     35 C           1.4683   10.4794   -1.2187 C.3     1  LIG1       -0.0325
     36 H           1.4230   11.3304   -0.5356 H       1  LIG1        0.0280
     37 H           0.4945    9.9933   -1.2497 H       1  LIG1        0.0280
     38 H           1.7282   10.8558   -2.2081 H       1  LIG1        0.0280
     39 O           4.4856   10.9926   -1.0258 O.3     1  LIG1       -0.4909
     40 C           4.9257   11.7614    0.0935 C.3     1  LIG1        0.0790
     41 H           5.2815   12.7067   -0.3090 H       1  LIG1        0.0660
     42 H           4.0929   11.9341    0.7793 H       1  LIG1        0.0660
     43 H           5.7358   11.2431    0.6069 H       1  LIG1        0.0660
     44 C           5.9470    8.2794   -0.0734 C.ar    1  LIG1        0.1799
     45 C           6.5184    7.1026    0.3063 C.ar    1  LIG1        0.0402
     46 C           7.9345    7.3844    0.3004 C.ar    1  LIG1        0.1612
     47 C           8.0943    8.6798   -0.0645 C.ar    1  LIG1        0.1345
     48 O           6.8820    9.2325   -0.2956 O.2     1  LIG1       -0.4557
     49 H           8.9608    9.2974   -0.2150 H       1  LIG1        0.1068
     50 C           5.8881    5.7736    0.6416 C.3     1  LIG1       -0.0325
     51 H           5.7357    5.6834    1.7193 H       1  LIG1        0.0280
     52 H           6.5606    4.9772    0.3203 H       1  LIG1        0.0280
     53 H           4.9201    5.6608    0.1570 H       1  LIG1        0.0280
     54 O           8.9218    6.4902    0.5869 O.3     1  LIG1       -0.4917
     55 C           9.1197    6.3025    1.9855 C.3     1  LIG1        0.0789
     56 H           9.9118    5.5649    2.0888 H       1  LIG1        0.0660
     57 H           9.4176    7.2446    2.4500 H       1  LIG1        0.0660
     58 H           8.2050    5.9358    2.4557 H       1  LIG1        0.0660
@<TRIPOS>BOND
     1    14    12    1
     2    38    35    1
     3    15    12    1
     4    13    12    1
     5    12    11    1
     6     9     7    1
     7    37    35    1
     8    35    31    1
     9    35    36    1
    10    39    32    1
    11    39    40    1
    12    31    32   ar
    13    31    30   ar
    14    32    33   ar
    15    23    21    1
    16    11     3    1
    17     7     2    1
    18     7    10    1
    19     7     8    1
    20    30    19    1
    21    30    34   ar
    22     3     2   ar
    23     3     4   ar
    24    20    19   ar
    25    20    16   ar
    26    41    40    1
    27     2     1   ar
    28    48    44   ar
    29    48    47   ar
    30    33    34   ar
    31    33    44    1
    32    19    18   ar
    33     4    16    1
    34     4     5   ar
    35    49    47    1
    36    16    17   ar
    37     1     5   ar
    38     1     6    1
    39    18    17   ar
    40    18    25    1
    41    44    45   ar
    42    47    46   ar
    43    17    21    1
    44    25    26    1
    45    40    43    1
    46    40    42    1
    47    53    50    1
    48    21    24    1
    49    21    22    1
    50    46    45   ar
    51    46    54    1
    52    45    50    1
    53    52    50    1
    54    54    55    1
    55    50    51    1
    56    27    26    1
    57    26    29    1
    58    26    28    1
    59    55    56    1
    60    55    57    1
    61    55    58    1
