@<TRIPOS>MOLECULE
mol_data/opt/m06hf/geoms/mol2/12il12il-.out
 30 31 0 0 0
SMALL
GASTEIGER

@<TRIPOS>ATOM
      1 C           0.0689    1.6214    0.1158 C.ar    1  LIG1        0.0993
      2 C           1.3718    1.5082   -0.2319 C.ar    1  LIG1        0.0297
      3 C           1.8370    2.8665   -0.3654 C.ar    1  LIG1        0.1716
      4 C           0.7809    3.6805   -0.0807 C.ar    1  LIG1        0.2116
      5 O          -0.2981    2.9202    0.2164 O.2     1  LIG1       -0.4557
      6 H          -0.6970    0.8932    0.3190 H       1  LIG1        0.1033
      7 C           2.1956    0.2716   -0.4719 C.3     1  LIG1       -0.0332
      8 H           3.0202    0.2178    0.2399 H       1  LIG1        0.0280
      9 H           2.6145    0.2966   -1.4776 H       1  LIG1        0.0280
     10 H           1.5794   -0.6203   -0.3633 H       1  LIG1        0.0280
     11 O           3.0972    3.2173   -0.7349 O.3     1  LIG1       -0.4909
     12 C           3.9319    3.6006    0.3580 C.3     1  LIG1        0.0790
     13 H           4.9167    3.7859   -0.0639 H       1  LIG1        0.0660
     14 H           3.5423    4.5061    0.8226 H       1  LIG1        0.0660
     15 H           3.9841    2.7932    1.0923 H       1  LIG1        0.0660
     16 C           0.6306    5.1267   -0.0581 C.ar    1  LIG1        0.1799
     17 C          -0.4508    5.9417    0.0674 C.ar    1  LIG1        0.0402
     18 C           0.0964    7.2732    0.0065 C.ar    1  LIG1        0.1612
     19 C           1.4405    7.1603   -0.1491 C.ar    1  LIG1        0.1345
     20 O           1.7705    5.8426   -0.1863 O.2     1  LIG1       -0.4557
     21 H           2.2454    7.8644   -0.2471 H       1  LIG1        0.1068
     22 C          -1.9138    5.6266    0.2280 C.3     1  LIG1       -0.0325
     23 H          -2.0846    4.5581    0.1278 H       1  LIG1        0.0280
     24 H          -2.4847    6.1640   -0.5297 H       1  LIG1        0.0280
     25 H          -2.2570    5.9577    1.2092 H       1  LIG1        0.0280
     26 O          -0.6882    8.3696    0.0946 O.3     1  LIG1       -0.4917
     27 C           0.0058    9.6009    0.0269 C.3     1  LIG1        0.0789
     28 H          -0.7415   10.3842    0.1163 H       1  LIG1        0.0660
     29 H           0.7251    9.6731    0.8479 H       1  LIG1        0.0660
     30 H           0.5271    9.6876   -0.9307 H       1  LIG1        0.0660
@<TRIPOS>BOND
     1     9     7    1
     2    30    27    1
     3    11     3    1
     4    11    12    1
     5    24    22    1
     6     7    10    1
     7     7     2    1
     8     7     8    1
     9     3     2   ar
    10     3     4   ar
    11    21    19    1
    12     2     1   ar
    13    20    19   ar
    14    20    16   ar
    15    19    18   ar
    16     4    16    1
    17     4     5   ar
    18    13    12    1
    19    16    17   ar
    20    18    17   ar
    21    18    26    1
    22    27    26    1
    23    27    28    1
    24    27    29    1
    25    17    22    1
    26     1     5   ar
    27     1     6    1
    28    23    22    1
    29    22    25    1
    30    12    14    1
    31    12    15    1
