@<TRIPOS>MOLECULE
mol_data/opt/m06hf/geoms/mol2/12il12il-12il12il-.out
 58 61 0 0 0
SMALL
GASTEIGER

@<TRIPOS>ATOM
      1 C          -0.0409    1.6018   -0.2000 C.ar    1  LIG1        0.0993
      2 C           1.3011    1.4935   -0.0550 C.ar    1  LIG1        0.0297
      3 C           1.7822    2.8517   -0.0522 C.ar    1  LIG1        0.1716
      4 C           0.6922    3.6593   -0.1874 C.ar    1  LIG1        0.2116
      5 O          -0.4222    2.8990   -0.2753 O.2     1  LIG1       -0.4557
      6 H          -0.8278    0.8706   -0.2639 H       1  LIG1        0.1033
      7 C           2.1584    0.2615    0.0579 C.3     1  LIG1       -0.0332
      8 H           2.6654    0.2387    1.0233 H       1  LIG1        0.0280
      9 H           2.9158    0.2661   -0.7257 H       1  LIG1        0.0280
     10 H           1.5481   -0.6354   -0.0397 H       1  LIG1        0.0280
     11 O           3.0890    3.2153    0.0500 O.3     1  LIG1       -0.4909
     12 C           3.4659    3.6450    1.3595 C.3     1  LIG1        0.0790
     13 H           4.5418    3.8004    1.3286 H       1  LIG1        0.0660
     14 H           2.9587    4.5786    1.6051 H       1  LIG1        0.0660
     15 H           3.2178    2.8750    2.0932 H       1  LIG1        0.0660
     16 C           0.5482    5.0982   -0.2627 C.ar    1  LIG1        0.1809
     17 C          -0.5245    5.9164   -0.4518 C.ar    1  LIG1        0.0410
     18 C           0.0294    7.2446   -0.4406 C.ar    1  LIG1        0.1723
     19 C           1.3727    7.1237   -0.2369 C.ar    1  LIG1        0.2127
     20 O           1.6895    5.8144   -0.1262 O.2     1  LIG1       -0.4444
     21 C          -1.9771    5.5727   -0.6549 C.3     1  LIG1       -0.0325
     22 H          -2.4278    5.2383    0.2803 H       1  LIG1        0.0280
     23 H          -2.0810    4.7768   -1.3908 H       1  LIG1        0.0280
     24 H          -2.4963    6.4642   -1.0053 H       1  LIG1        0.0280
     25 O          -0.6817    8.3869   -0.6307 O.3     1  LIG1       -0.4909
     26 C          -1.0458    9.0450    0.5853 C.3     1  LIG1        0.0790
     27 H          -1.7046    9.8623    0.3009 H       1  LIG1        0.0660
     28 H          -1.5710    8.3488    1.2426 H       1  LIG1        0.0660
     29 H          -0.1520    9.4332    1.0758 H       1  LIG1        0.0660
     30 C           2.4414    8.0960   -0.1497 C.ar    1  LIG1        0.1809
     31 C           3.7976    7.9934   -0.1830 C.ar    1  LIG1        0.0410
     32 C           4.2672    9.3512   -0.0825 C.ar    1  LIG1        0.1723
     33 C           3.1691   10.1594    0.0136 C.ar    1  LIG1        0.2126
     34 O           2.0526    9.3841   -0.0303 O.2     1  LIG1       -0.4444
     35 C           4.6802    6.7820   -0.3258 C.3     1  LIG1       -0.0325
     36 H           5.1835    6.5774    0.6211 H       1  LIG1        0.0280
     37 H           5.4446    6.9836   -1.0763 H       1  LIG1        0.0280
     38 H           4.0954    5.9111   -0.6178 H       1  LIG1        0.0280
     39 O           5.5850    9.6480   -0.1190 O.3     1  LIG1       -0.4909
     40 C           5.9551   10.7770   -0.9079 C.3     1  LIG1        0.0790
     41 H           7.0352   10.7214   -1.0196 H       1  LIG1        0.0660
     42 H           5.4714   10.7180   -1.8849 H       1  LIG1        0.0660
     43 H           5.6751   11.7023   -0.4065 H       1  LIG1        0.0660
     44 C           2.9370   11.5875    0.1729 C.ar    1  LIG1        0.1799
     45 C           1.8887   12.3692   -0.2040 C.ar    1  LIG1        0.0402
     46 C           2.2242   13.6807    0.2895 C.ar    1  LIG1        0.1612
     47 C           3.4294   13.5913    0.9090 C.ar    1  LIG1        0.1345
     48 O           3.8654   12.3055    0.8468 O.2     1  LIG1       -0.4557
     49 H           4.0663   14.2943    1.4132 H       1  LIG1        0.1068
     50 C           0.6418   12.0243   -0.9743 C.3     1  LIG1       -0.0325
     51 H           0.6146   10.9610   -1.2070 H       1  LIG1        0.0280
     52 H           0.6090   12.6042   -1.8975 H       1  LIG1        0.0280
     53 H          -0.2364   12.2866   -0.3817 H       1  LIG1        0.0280
     54 O           1.4109   14.7440    0.1086 O.3     1  LIG1       -0.4917
     55 C           1.8874   15.9534    0.6681 C.3     1  LIG1        0.0789
     56 H           1.1384   16.7108    0.4546 H       1  LIG1        0.0660
     57 H           2.0136   15.8437    1.7489 H       1  LIG1        0.0660
     58 H           2.8415   16.2302    0.2109 H       1  LIG1        0.0660
@<TRIPOS>BOND
     1    52    50    1
     2    42    40    1
     3    23    21    1
     4    51    50    1
     5    37    35    1
     6    41    40    1
     7    24    21    1
     8    50    53    1
     9    50    45    1
    10    40    43    1
    11    40    39    1
    12     9     7    1
    13    21    17    1
    14    21    22    1
    15    25    18    1
    16    25    26    1
    17    38    35    1
    18    17    18   ar
    19    17    16   ar
    20    18    19   ar
    21    35    31    1
    22    35    36    1
    23     5     1   ar
    24     5     4   ar
    25     6     1    1
    26    16     4    1
    27    16    20   ar
    28    19    30    1
    29    19    20   ar
    30    45    44   ar
    31    45    46   ar
    32     1     2   ar
    33     4     3   ar
    34    31    30   ar
    35    31    32   ar
    36    30    34   ar
    37    39    32    1
    38    32    33   ar
    39     2     3   ar
    40     2     7    1
    41     3    11    1
    42    10     7    1
    43    34    33   ar
    44    33    44    1
    45    11    12    1
    46     7     8    1
    47    54    46    1
    48    54    55    1
    49    44    48   ar
    50    58    55    1
    51    46    47   ar
    52    27    26    1
    53    56    55    1
    54    26    29    1
    55    26    28    1
    56    55    57    1
    57    48    47   ar
    58    47    49    1
    59    13    12    1
    60    12    14    1
    61    12    15    1
