@<TRIPOS>MOLECULE
mol_data/opt/m06hf/geoms/mol2/12il13il-6fh13el.out
 57 60 0 0 0
SMALL
GASTEIGER

@<TRIPOS>ATOM
      1 C           0.2446    1.6304   -1.3131 C.ar    1  LIG1        0.0992
      2 C           1.5270    1.4336   -0.9280 C.ar    1  LIG1        0.0297
      3 C           1.9955    2.7383   -0.5304 C.ar    1  LIG1        0.1699
      4 C           0.9676    3.6119   -0.7160 C.ar    1  LIG1        0.1928
      5 O          -0.1067    2.9331   -1.1887 O.2     1  LIG1       -0.4574
      6 H          -0.5135    0.9662   -1.6898 H       1  LIG1        0.1033
      7 C           2.3387    0.1662   -0.9053 C.3     1  LIG1       -0.0332
      8 H           2.6562   -0.0644    0.1125 H       1  LIG1        0.0280
      9 H           3.2300    0.2858   -1.5210 H       1  LIG1        0.0280
     10 H           1.7505   -0.6671   -1.2872 H       1  LIG1        0.0280
     11 O           3.2387    3.0027   -0.0386 O.3     1  LIG1       -0.4910
     12 C           3.2571    3.1546    1.3804 C.3     1  LIG1        0.0790
     13 H           4.2927    3.3403    1.6557 H       1  LIG1        0.0660
     14 H           2.6309    3.9996    1.6743 H       1  LIG1        0.0660
     15 H           2.8963    2.2429    1.8610 H       1  LIG1        0.0660
     16 C           0.8043    5.0416   -0.4990 C.ar    1  LIG1        0.0927
     17 C           1.7297    6.0700   -0.4615 C.ar    1  LIG1        0.0202
     18 C           0.9706    7.2514   -0.2554 C.ar    1  LIG1        0.1490
     19 C          -0.3705    6.9251   -0.1703 C.ar    1  LIG1        0.0947
     20 N          -0.4443    5.5629   -0.3105 N.ar    1  LIG1       -0.3484
     21 H          -1.3042    5.0408   -0.4153 H       1  LIG1        0.1661
     22 C           3.2212    6.0130   -0.6721 C.3     1  LIG1       -0.0341
     23 H           3.7537    5.8462    0.2671 H       1  LIG1        0.0279
     24 H           3.5476    6.9653   -1.0902 H       1  LIG1        0.0279
     25 H           3.4772    5.2015   -1.3515 H       1  LIG1        0.0279
     26 O           1.4855    8.5170   -0.1832 O.3     1  LIG1       -0.4927
     27 C           1.7794    8.9250    1.1515 C.3     1  LIG1        0.0789
     28 H           2.2033    9.9243    1.0846 H       1  LIG1        0.0660
     29 H           0.8642    8.9437    1.7470 H       1  LIG1        0.0660
     30 H           2.5008    8.2397    1.6018 H       1  LIG1        0.0660
     31 C          -2.7385    7.3366    0.5682 C.ar    1  LIG1        0.2225
     32 C          -1.5420    7.7956   -0.0170 C.ar    1  LIG1        0.0650
     33 C          -1.5114    9.1191   -0.4278 C.ar    1  LIG1       -0.0246
     34 C          -2.6398    9.9450   -0.3075 C.ar    1  LIG1        0.0533
     35 C          -3.8046    9.3432    0.1980 C.ar    1  LIG1        0.1128
     36 N          -3.8077    8.0797    0.6513 N.ar    1  LIG1       -0.2091
     37 H          -0.5905    9.5126   -0.8434 H       1  LIG1        0.0645
     38 O          -2.8428    6.0604    1.0568 O.3     1  LIG1       -0.4919
     39 H          -2.0215    5.8284    1.5107 H       1  LIG1        0.2937
     40 N          -2.5400   11.2924   -0.6043 N.pl3   1  LIG1       -0.3563
     41 H          -1.7402   11.5389   -1.1690 H       1  LIG1        0.1424
     42 H          -3.3821   11.7682   -0.8963 H       1  LIG1        0.1424
     43 C          -5.1021   10.0283    0.3941 C.ar    1  LIG1        0.0861
     44 C          -5.7962   11.0630   -0.2301 C.ar    1  LIG1        0.0930
     45 C          -7.0476   11.1849    0.4546 C.ar    1  LIG1        0.1533
     46 C          -7.0787   10.2379    1.4450 C.ar    1  LIG1        0.0457
     47 N          -5.9004    9.5536    1.3818 N.ar    1  LIG1       -0.3554
     48 H          -5.6290    8.7327    1.9060 H       1  LIG1        0.1655
     49 H          -7.8502   10.0074    2.1574 H       1  LIG1        0.0845
     50 C          -5.4630   11.7916   -1.4140 C.1     1  LIG1       -0.0638
     51 C          -5.2022   12.4197   -2.4088 C.1     1  LIG1       -0.1137
     52 H          -4.9983   12.9494   -3.3103 H       1  LIG1        0.1232
     53 O          -8.0466   12.0575    0.1522 O.3     1  LIG1       -0.4924
     54 C          -7.7218   13.4180    0.4266 C.3     1  LIG1        0.0789
     55 H          -8.5976   14.0014    0.1526 H       1  LIG1        0.0660
     56 H          -7.5027   13.5415    1.4894 H       1  LIG1        0.0660
     57 H          -6.8624   13.7328   -0.1677 H       1  LIG1        0.0660
@<TRIPOS>BOND
     1    52    51    1
     2    51    50    3
     3     6     1    1
     4     9     7    1
     5    50    44    1
     6    25    22    1
     7     1     5   ar
     8     1     2   ar
     9    10     7    1
    10     5     4   ar
    11    41    40    1
    12    24    22    1
    13     2     7    1
    14     2     3   ar
    15     7     8    1
    16    42    40    1
    17    37    33    1
    18     4     3   ar
    19     4    16    1
    20    22    17    1
    21    22    23    1
    22    40    34    1
    23     3    11    1
    24    16    17   ar
    25    16    20   ar
    26    17    18   ar
    27    33    34   ar
    28    33    32   ar
    29    21    20    1
    30    20    19   ar
    31    34    35   ar
    32    18    26    1
    33    18    19   ar
    34    44    43   ar
    35    44    45   ar
    36    26    27    1
    37    19    32    1
    38    57    54    1
    39    11    12    1
    40    32    31   ar
    41    53    54    1
    42    53    45    1
    43    55    54    1
    44    35    43    1
    45    35    36   ar
    46    43    47   ar
    47    54    56    1
    48    45    46   ar
    49    31    36   ar
    50    31    38    1
    51    38    39    1
    52    28    27    1
    53    27    30    1
    54    27    29    1
    55    12    13    1
    56    12    14    1
    57    12    15    1
    58    47    46   ar
    59    47    48    1
    60    46    49    1
