@<TRIPOS>MOLECULE
mol_data/opt/m06hf/geoms/mol2/12il12il12il-12il.out
 58 61 0 0 0
SMALL
GASTEIGER

@<TRIPOS>ATOM
      1 C           0.2921    1.3936    0.9233 C.ar    1  LIG1        0.0993
      2 C           1.5915    1.3626    0.5389 C.ar    1  LIG1        0.0297
      3 C           1.9309    2.7413    0.3017 C.ar    1  LIG1        0.1716
      4 C           0.8175    3.4820    0.5663 C.ar    1  LIG1        0.2116
      5 O          -0.1849    2.6573    0.9431 O.2     1  LIG1       -0.4557
      6 H          -0.4001    0.6191    1.2043 H       1  LIG1        0.1033
      7 C           2.5195    0.1885    0.3781 C.3     1  LIG1       -0.0332
      8 H           3.3785    0.2985    1.0399 H       1  LIG1        0.0280
      9 H           2.8853    0.1335   -0.6480 H       1  LIG1        0.0280
     10 H           2.0011   -0.7390    0.6172 H       1  LIG1        0.0280
     11 O           3.1449    3.1848   -0.1295 O.3     1  LIG1       -0.4909
     12 C           3.1498    3.5589   -1.5075 C.3     1  LIG1        0.0790
     13 H           4.1698    3.8570   -1.7389 H       1  LIG1        0.0660
     14 H           2.8552    2.7093   -2.1270 H       1  LIG1        0.0660
     15 H           2.4649    4.3928   -1.6735 H       1  LIG1        0.0660
     16 C           0.5748    4.9134    0.5195 C.ar    1  LIG1        0.1809
     17 C           1.4056    5.9759    0.7157 C.ar    1  LIG1        0.0410
     18 C           0.5692    7.1300    0.5204 C.ar    1  LIG1        0.1723
     19 C          -0.6835    6.6761    0.2273 C.ar    1  LIG1        0.2127
     20 O          -0.6820    5.3257    0.2202 O.2     1  LIG1       -0.4444
     21 C           2.8565    5.9977    1.1157 C.3     1  LIG1       -0.0325
     22 H           3.0421    6.8986    1.7001 H       1  LIG1        0.0280
     23 H           3.5046    6.0091    0.2370 H       1  LIG1        0.0280
     24 H           3.0986    5.1131    1.7023 H       1  LIG1        0.0280
     25 O           0.9743    8.4224    0.6428 O.3     1  LIG1       -0.4909
     26 C           1.3579    9.0107   -0.6004 C.3     1  LIG1        0.0790
     27 H           1.7412   10.0008   -0.3649 H       1  LIG1        0.0660
     28 H           2.1369    8.4088   -1.0740 H       1  LIG1        0.0660
     29 H           0.4896    9.0887   -1.2568 H       1  LIG1        0.0660
     30 C          -1.9301    7.3590   -0.0403 C.ar    1  LIG1        0.1809
     31 C          -3.1886    6.9149   -0.3125 C.ar    1  LIG1        0.0410
     32 C          -3.9663    8.1145   -0.4751 C.ar    1  LIG1        0.1723
     33 C          -3.1270    9.1745   -0.2823 C.ar    1  LIG1        0.2126
     34 O          -1.8834    8.7112   -0.0219 O.2     1  LIG1       -0.4444
     35 C          -3.7054    5.5060   -0.4424 C.3     1  LIG1       -0.0325
     36 H          -3.3419    4.8868    0.3764 H       1  LIG1        0.0280
     37 H          -3.3717    5.0646   -1.3821 H       1  LIG1        0.0280
     38 H          -4.7945    5.5328   -0.4354 H       1  LIG1        0.0280
     39 O          -5.2930    8.1333   -0.7634 O.3     1  LIG1       -0.4909
     40 C          -6.1208    8.4726    0.3497 C.3     1  LIG1        0.0790
     41 H          -7.1470    8.3783    0.0028 H       1  LIG1        0.0660
     42 H          -5.9371    7.7817    1.1753 H       1  LIG1        0.0660
     43 H          -5.9226    9.4976    0.6631 H       1  LIG1        0.0660
     44 C          -3.3107   10.6138   -0.2927 C.ar    1  LIG1        0.1799
     45 C          -2.4722   11.6419    0.0115 C.ar    1  LIG1        0.0402
     46 C          -3.2702   12.8232   -0.2010 C.ar    1  LIG1        0.1612
     47 C          -4.5050   12.4223   -0.5990 C.ar    1  LIG1        0.1345
     48 O          -4.5317   11.0644   -0.6571 O.2     1  LIG1       -0.4557
     49 H          -5.4095   12.9360   -0.8656 H       1  LIG1        0.1068
     50 C          -1.0400   11.6444    0.4778 C.3     1  LIG1       -0.0325
     51 H          -0.9409   12.3331    1.3172 H       1  LIG1        0.0280
     52 H          -0.3899   11.9970   -0.3258 H       1  LIG1        0.0280
     53 H          -0.7302   10.6466    0.7831 H       1  LIG1        0.0280
     54 O          -2.7725   14.0630   -0.0006 O.3     1  LIG1       -0.4917
     55 C          -3.6936   15.1141   -0.2250 C.3     1  LIG1        0.0789
     56 H          -3.1614   16.0403   -0.0282 H       1  LIG1        0.0660
     57 H          -4.0420   15.0949   -1.2614 H       1  LIG1        0.0660
     58 H          -4.5461   15.0188    0.4534 H       1  LIG1        0.0660
@<TRIPOS>BOND
     1    14    12    1
     2    13    12    1
     3    15    12    1
     4    12    11    1
     5    37    35    1
     6    57    55    1
     7    29    26    1
     8    28    26    1
     9    49    47    1
    10    39    32    1
    11    39    40    1
    12    48    47   ar
    13    48    44   ar
    14     9     7    1
    15    26    27    1
    16    26    25    1
    17    47    46   ar
    18    32    31   ar
    19    32    33   ar
    20    35    38    1
    21    35    31    1
    22    35    36    1
    23    52    50    1
    24    31    30   ar
    25    44    33    1
    26    44    45   ar
    27    33    34   ar
    28    55    56    1
    29    55    54    1
    30    55    58    1
    31    46    54    1
    32    46    45   ar
    33    11     3    1
    34    30    34   ar
    35    30    19    1
    36    41    40    1
    37    45    50    1
    38    20    19   ar
    39    20    16   ar
    40    19    18   ar
    41    23    21    1
    42     3     2   ar
    43     3     4   ar
    44    40    43    1
    45    40    42    1
    46     7     2    1
    47     7    10    1
    48     7     8    1
    49    50    53    1
    50    50    51    1
    51    16     4    1
    52    16    17   ar
    53    18    25    1
    54    18    17   ar
    55     2     1   ar
    56     4     5   ar
    57    17    21    1
    58     1     5   ar
    59     1     6    1
    60    21    22    1
    61    21    24    1
