@<TRIPOS>MOLECULE
mol_data/opt/m06hf/geoms/mol2/12il.out
 16 16 0 0 0
SMALL
GASTEIGER

@<TRIPOS>ATOM
      1 C           0.1282    1.9182    0.3629 C.ar    1  LIG1        0.0982
      2 C           1.3736    1.6583   -0.1016 C.ar    1  LIG1        0.0290
      3 C           1.9611    2.9636   -0.3023 C.ar    1  LIG1        0.1605
      4 C           1.0326    3.8809    0.0614 C.ar    1  LIG1        0.1334
      5 O          -0.0888    3.2474    0.4661 O.2     1  LIG1       -0.4670
      6 H          -0.6901    1.2783    0.6442 H       1  LIG1        0.1033
      7 H           1.0290    4.9560    0.0610 H       1  LIG1        0.1067
      8 C           2.0268    0.3325   -0.3957 C.3     1  LIG1       -0.0332
      9 H           2.6809    0.0268    0.4225 H       1  LIG1        0.0280
     10 H           2.6247    0.4185   -1.3033 H       1  LIG1        0.0280
     11 H           1.2713   -0.4388   -0.5413 H       1  LIG1        0.0280
     12 O           3.2077    3.2120   -0.7967 O.3     1  LIG1       -0.4917
     13 C           4.2358    3.0747    0.1788 C.3     1  LIG1        0.0789
     14 H           5.1720    3.3005   -0.3260 H       1  LIG1        0.0660
     15 H           4.0696    3.7757    0.9991 H       1  LIG1        0.0660
     16 H           4.2605    2.0554    0.5705 H       1  LIG1        0.0660
@<TRIPOS>BOND
     1    10     8    1
     2    12     3    1
     3    12    13    1
     4    11     8    1
     5     8     2    1
     6     8     9    1
     7    14    13    1
     8     3     2   ar
     9     3     4   ar
    10     2     1   ar
    11     7     4    1
    12     4     5   ar
    13    13    16    1
    14    13    15    1
    15     1     5   ar
    16     1     6    1
