@<TRIPOS>MOLECULE
mol_data/opt/m06hf/geoms/mol2/12il12il12il-12il-.out
 58 61 0 0 0
SMALL
GASTEIGER

@<TRIPOS>ATOM
      1 C           0.2367    1.4751    0.5648 C.ar    1  LIG1        0.0993
      2 C           1.5766    1.5412    0.3730 C.ar    1  LIG1        0.0297
      3 C           1.8647    2.9497    0.3100 C.ar    1  LIG1        0.1716
      4 C           0.6840    3.6123    0.4764 C.ar    1  LIG1        0.2116
      5 O          -0.3106    2.7075    0.6261 O.2     1  LIG1       -0.4557
      6 H          -0.4419    0.6467    0.6705 H       1  LIG1        0.1033
      7 C           2.5879    0.4348    0.2384 C.3     1  LIG1       -0.0332
      8 H           3.3294    0.5065    1.0340 H       1  LIG1        0.0280
      9 H           3.1064    0.5148   -0.7176 H       1  LIG1        0.0280
     10 H           2.0966   -0.5356    0.2943 H       1  LIG1        0.0280
     11 O           3.1105    3.4637    0.1139 O.3     1  LIG1       -0.4909
     12 C           3.2643    4.1618   -1.1243 C.3     1  LIG1        0.0790
     13 H           4.3037    4.4774   -1.1657 H       1  LIG1        0.0660
     14 H           3.0361    3.4930   -1.9562 H       1  LIG1        0.0660
     15 H           2.6044    5.0310   -1.1539 H       1  LIG1        0.0660
     16 C           0.3366    5.0255    0.5161 C.ar    1  LIG1        0.1809
     17 C           1.0291    6.1333    0.9064 C.ar    1  LIG1        0.0410
     18 C           0.1366    7.2317    0.6494 C.ar    1  LIG1        0.1723
     19 C          -1.0192    6.7032    0.1523 C.ar    1  LIG1        0.2127
     20 O          -0.8988    5.3609    0.0664 O.2     1  LIG1       -0.4444
     21 C           2.4056    6.2551    1.5052 C.3     1  LIG1       -0.0325
     22 H           2.3308    6.5906    2.5407 H       1  LIG1        0.0280
     23 H           2.9776    6.9990    0.9488 H       1  LIG1        0.0280
     24 H           2.9227    5.2969    1.4722 H       1  LIG1        0.0280
     25 O           0.4349    8.5399    0.8679 O.3     1  LIG1       -0.4909
     26 C          -0.1257    9.0692    2.0721 C.3     1  LIG1        0.0790
     27 H           0.2911   10.0672    2.1855 H       1  LIG1        0.0660
     28 H          -1.2116    9.1214    1.9841 H       1  LIG1        0.0660
     29 H           0.1560    8.4441    2.9221 H       1  LIG1        0.0660
     30 C          -2.2624    7.3051   -0.2772 C.ar    1  LIG1        0.1809
     31 C          -3.4054    6.7941   -0.8138 C.ar    1  LIG1        0.0410
     32 C          -4.2484    7.9423   -1.0227 C.ar    1  LIG1        0.1723
     33 C          -3.5618    9.0389   -0.5900 C.ar    1  LIG1        0.2126
     34 O          -2.3507    8.6481   -0.1321 O.2     1  LIG1       -0.4444
     35 C          -3.7565    5.3701   -1.1572 C.3     1  LIG1       -0.0325
     36 H          -3.9562    4.7942   -0.2527 H       1  LIG1        0.0280
     37 H          -2.9360    4.8934   -1.6912 H       1  LIG1        0.0280
     38 H          -4.6471    5.3764   -1.7852 H       1  LIG1        0.0280
     39 O          -5.4859    7.9069   -1.5803 O.3     1  LIG1       -0.4909
     40 C          -6.5424    7.8463   -0.6222 C.3     1  LIG1        0.0790
     41 H          -7.4651    7.7702   -1.1922 H       1  LIG1        0.0660
     42 H          -6.4211    6.9673    0.0153 H       1  LIG1        0.0660
     43 H          -6.5441    8.7533   -0.0171 H       1  LIG1        0.0660
     44 C          -3.8620   10.4583   -0.5520 C.ar    1  LIG1        0.1799
     45 C          -3.0660   11.5497   -0.3878 C.ar    1  LIG1        0.0402
     46 C          -3.9773   12.6641   -0.4497 C.ar    1  LIG1        0.1612
     47 C          -5.2263   12.1664   -0.6453 C.ar    1  LIG1        0.1345
     48 O          -5.1576   10.8106   -0.7039 O.2     1  LIG1       -0.4557
     49 H          -6.1985   12.6084   -0.7583 H       1  LIG1        0.1068
     50 C          -1.5756   11.6655   -0.2046 C.3     1  LIG1       -0.0325
     51 H          -1.0957   10.6932   -0.3006 H       1  LIG1        0.0280
     52 H          -1.3583   12.0808    0.7815 H       1  LIG1        0.0280
     53 H          -1.1738   12.3495   -0.9528 H       1  LIG1        0.0280
     54 O          -3.5498   13.9403   -0.3338 O.3     1  LIG1       -0.4917
     55 C          -4.5701   14.9172   -0.4230 C.3     1  LIG1        0.0789
     56 H          -4.0844   15.8833   -0.3200 H       1  LIG1        0.0660
     57 H          -5.0715   14.8513   -1.3927 H       1  LIG1        0.0660
     58 H          -5.2985   14.7759    0.3803 H       1  LIG1        0.0660
@<TRIPOS>BOND
     1    14    12    1
     2    38    35    1
     3    37    35    1
     4    39    32    1
     5    39    40    1
     6    57    55    1
     7    41    40    1
     8    13    12    1
     9    35    31    1
    10    35    36    1
    11    15    12    1
    12    12    11    1
    13    32    31   ar
    14    32    33   ar
    15    53    50    1
    16    31    30   ar
    17    49    47    1
    18     9     7    1
    19    48    47   ar
    20    48    44   ar
    21    47    46   ar
    22    40    43    1
    23    40    42    1
    24    33    44    1
    25    33    34   ar
    26    44    45   ar
    27    46    45   ar
    28    46    54    1
    29    55    54    1
    30    55    56    1
    31    55    58    1
    32    45    50    1
    33    51    50    1
    34    30    34   ar
    35    30    19    1
    36    50    52    1
    37    20    19   ar
    38    20    16   ar
    39    11     3    1
    40    19    18   ar
    41     7    10    1
    42     7     2    1
    43     7     8    1
    44     3     2   ar
    45     3     4   ar
    46     2     1   ar
    47     4    16    1
    48     4     5   ar
    49    16    17   ar
    50     1     5   ar
    51     1     6    1
    52    18    25    1
    53    18    17   ar
    54    25    26    1
    55    17    21    1
    56    23    21    1
    57    24    21    1
    58    21    22    1
    59    28    26    1
    60    26    27    1
    61    26    29    1
