@<TRIPOS>MOLECULE
mol_data/opt/m06hf/geoms/mol2/12il12il-12il.out
 44 46 0 0 0
SMALL
GASTEIGER

@<TRIPOS>ATOM
      1 C          -0.0369    1.7343    0.0285 C.ar    1  LIG1        0.0993
      2 C           1.2935    1.6034   -0.1878 C.ar    1  LIG1        0.0297
      3 C           1.7855    2.9551   -0.2786 C.ar    1  LIG1        0.1716
      4 C           0.7161    3.7816   -0.1019 C.ar    1  LIG1        0.2116
      5 O          -0.3973    3.0381    0.0882 O.2     1  LIG1       -0.4557
      6 H          -0.8283    1.0163    0.1549 H       1  LIG1        0.1033
      7 C           2.1229    0.3568   -0.3437 C.3     1  LIG1       -0.0332
      8 H           2.8369    0.2665    0.4761 H       1  LIG1        0.0280
      9 H           2.6800    0.4022   -1.2791 H       1  LIG1        0.0280
     10 H           1.4834   -0.5251   -0.3509 H       1  LIG1        0.0280
     11 O           3.0803    3.2980   -0.5177 O.3     1  LIG1       -0.4909
     12 C           3.8037    3.6439    0.6639 C.3     1  LIG1        0.0790
     13 H           4.8339    3.8028    0.3535 H       1  LIG1        0.0660
     14 H           3.3926    4.5575    1.0952 H       1  LIG1        0.0660
     15 H           3.7522    2.8285    1.3889 H       1  LIG1        0.0660
     16 C           0.5750    5.2234   -0.1143 C.ar    1  LIG1        0.1809
     17 C          -0.5140    6.0405   -0.1011 C.ar    1  LIG1        0.0410
     18 C           0.0309    7.3699   -0.1749 C.ar    1  LIG1        0.1723
     19 C           1.3895    7.2529   -0.2135 C.ar    1  LIG1        0.2126
     20 O           1.7226    5.9415   -0.1693 O.2     1  LIG1       -0.4444
     21 C          -1.9800    5.6974   -0.0580 C.3     1  LIG1       -0.0325
     22 H          -2.2793    5.4139    0.9520 H       1  LIG1        0.0280
     23 H          -2.1956    4.8656   -0.7267 H       1  LIG1        0.0280
     24 H          -2.5483    6.5741   -0.3672 H       1  LIG1        0.0280
     25 O          -0.7093    8.5065   -0.2359 O.3     1  LIG1       -0.4909
     26 C          -0.8550    9.1646    1.0230 C.3     1  LIG1        0.0790
     27 H          -1.5091   10.0147    0.8465 H       1  LIG1        0.0660
     28 H          -1.3089    8.4861    1.7492 H       1  LIG1        0.0660
     29 H           0.1186    9.5032    1.3782 H       1  LIG1        0.0660
     30 C           2.4678    8.2174   -0.3162 C.ar    1  LIG1        0.1799
     31 C           3.7924    8.0809   -0.6020 C.ar    1  LIG1        0.0402
     32 C           4.2996    9.4319   -0.5761 C.ar    1  LIG1        0.1612
     33 C           3.2629   10.2528   -0.2809 C.ar    1  LIG1        0.1345
     34 O           2.1409    9.5162   -0.1182 O.2     1  LIG1       -0.4557
     35 H           3.1786   11.3193   -0.1805 H       1  LIG1        0.1068
     36 C           4.5911    6.8463   -0.9308 C.3     1  LIG1       -0.0325
     37 H           5.0926    6.4660   -0.0377 H       1  LIG1        0.0280
     38 H           5.3508    7.1063   -1.6688 H       1  LIG1        0.0280
     39 H           3.9470    6.0611   -1.3239 H       1  LIG1        0.0280
     40 O           5.5850    9.8012   -0.8377 O.3     1  LIG1       -0.4917
     41 C           6.4597    9.6129    0.2702 C.3     1  LIG1        0.0789
     42 H           7.4428    9.9456   -0.0540 H       1  LIG1        0.0660
     43 H           6.1207   10.2079    1.1208 H       1  LIG1        0.0660
     44 H           6.4985    8.5591    0.5545 H       1  LIG1        0.0660
@<TRIPOS>BOND
     1    38    36    1
     2    39    36    1
     3     9     7    1
     4    36    31    1
     5    36    37    1
     6    40    32    1
     7    40    41    1
     8    23    21    1
     9    31    32   ar
    10    31    30   ar
    11    32    33   ar
    12    11     3    1
    13    11    12    1
    14    24    21    1
    15    10     7    1
    16     7     2    1
    17     7     8    1
    18    30    19    1
    19    30    34   ar
    20    33    35    1
    21    33    34   ar
    22     3     2   ar
    23     3     4   ar
    24    25    18    1
    25    25    26    1
    26    19    18   ar
    27    19    20   ar
    28     2     1   ar
    29    18    17   ar
    30    20    16   ar
    31    16     4    1
    32    16    17   ar
    33     4     5   ar
    34    17    21    1
    35    21    22    1
    36    42    41    1
    37     1     5   ar
    38     1     6    1
    39    41    44    1
    40    41    43    1
    41    13    12    1
    42    12    14    1
    43    12    15    1
    44    27    26    1
    45    26    29    1
    46    26    28    1
