@<TRIPOS>MOLECULE
mol_data/opt/m06hf/geoms/mol2/12la12la-12la-12la-.out
 46 49 0 0 0
SMALL
GASTEIGER

@<TRIPOS>ATOM
      1 C          -0.2160    1.7589   -0.0001 C.ar    1  LIG1        0.1342
      2 C           1.1396    1.6440   -0.0001 C.ar    1  LIG1        0.1583
      3 C           1.6747    2.9766   -0.0000 C.ar    1  LIG1        0.0292
      4 C           0.5854    3.7906    0.0000 C.ar    1  LIG1        0.1770
      5 O          -0.5527    3.0756   -0.0000 O.2     1  LIG1       -0.4560
      6 H          -1.0268    1.0550   -0.0001 H       1  LIG1        0.1068
      7 O           1.9154    0.5366   -0.0002 O.3     1  LIG1       -0.4919
      8 C           1.1995   -0.6828   -0.0003 C.3     1  LIG1        0.0789
      9 H           1.9394   -1.4785   -0.0004 H       1  LIG1        0.0660
     10 H           0.5739   -0.7541    0.8939 H       1  LIG1        0.0660
     11 H           0.5739   -0.7539   -0.8945 H       1  LIG1        0.0660
     12 H           2.7103    3.2678    0.0000 H       1  LIG1        0.0693
     13 C           0.4807    5.2351    0.0001 C.ar    1  LIG1        0.2121
     14 C          -0.5692    6.1097    0.0001 C.ar    1  LIG1        0.1694
     15 C          -0.0049    7.4315    0.0001 C.ar    1  LIG1        0.0300
     16 C           1.3462    7.2396    0.0001 C.ar    1  LIG1        0.1780
     17 O           1.6457    5.9311    0.0001 O.2     1  LIG1       -0.4447
     18 O          -1.8681    5.7442    0.0002 O.3     1  LIG1       -0.4912
     19 C          -2.8027    6.8076    0.0001 C.3     1  LIG1        0.0790
     20 H          -3.7851    6.3435    0.0001 H       1  LIG1        0.0660
     21 H          -2.6841    7.4237    0.8947 H       1  LIG1        0.0660
     22 H          -2.6841    7.4237   -0.8945 H       1  LIG1        0.0660
     23 H          -0.5003    8.3860    0.0001 H       1  LIG1        0.0694
     24 C           2.4401    8.1840    0.0001 C.ar    1  LIG1        0.2121
     25 C           2.4438    9.5498   -0.0001 C.ar    1  LIG1        0.1694
     26 C           3.8173    9.9619   -0.0001 C.ar    1  LIG1        0.0300
     27 C           4.5301    8.7973    0.0000 C.ar    1  LIG1        0.1780
     28 O           3.7163    7.7302    0.0001 O.2     1  LIG1       -0.4447
     29 O           1.3183   10.2991   -0.0002 O.3     1  LIG1       -0.4912
     30 C           1.5214   11.7029   -0.0006 C.3     1  LIG1        0.0790
     31 H           0.5318   12.1516   -0.0007 H       1  LIG1        0.0660
     32 H           2.0683   12.0080    0.8943 H       1  LIG1        0.0660
     33 H           2.0682   12.0075   -0.8956 H       1  LIG1        0.0660
     34 H           4.2362   10.9531   -0.0002 H       1  LIG1        0.0694
     35 C           5.9583    8.5620    0.0000 C.ar    1  LIG1        0.2111
     36 C           7.0053    9.4365   -0.0000 C.ar    1  LIG1        0.1687
     37 C           8.2031    8.6406   -0.0000 C.ar    1  LIG1        0.0187
     38 C           7.7693    7.3532    0.0003 C.ar    1  LIG1        0.0964
     39 O           6.4297    7.2955    0.0002 O.2     1  LIG1       -0.4560
     40 H           8.2881    6.4114    0.0005 H       1  LIG1        0.1031
     41 O           6.8582   10.7814   -0.0002 O.3     1  LIG1       -0.4912
     42 C           8.0636   11.5281   -0.0003 C.3     1  LIG1        0.0790
     43 H           7.7711   12.5743   -0.0005 H       1  LIG1        0.0660
     44 H           8.6487   11.3063    0.8951 H       1  LIG1        0.0660
     45 H           8.6487   11.3060   -0.8958 H       1  LIG1        0.0660
     46 H           9.2263    8.9738   -0.0001 H       1  LIG1        0.0686
@<TRIPOS>BOND
     1    45    42    1
     2    33    30    1
     3    11     8    1
     4    22    19    1
     5    31    30    1
     6    30    29    1
     7    30    32    1
     8    43    42    1
     9     9     8    1
    10    42    41    1
    11    42    44    1
    12     8     7    1
    13     8    10    1
    14    34    26    1
    15    41    36    1
    16     7     2    1
    17    29    25    1
    18     6     1    1
    19    46    37    1
    20    26    25   ar
    21    26    27   ar
    22     2     1   ar
    23     2     3   ar
    24    25    24   ar
    25     1     5   ar
    26    36    37   ar
    27    36    35   ar
    28    37    38   ar
    29     3    12    1
    30     3     4   ar
    31     5     4   ar
    32    27    35    1
    33    27    28   ar
    34     4    13    1
    35    35    39   ar
    36    24    16    1
    37    24    28   ar
    38    17    13   ar
    39    17    16   ar
    40    13    14   ar
    41    16    15   ar
    42    19    20    1
    43    19    18    1
    44    19    21    1
    45    14    15   ar
    46    14    18    1
    47    15    23    1
    48    39    38   ar
    49    38    40    1
