@<TRIPOS>MOLECULE
mol_data/opt/m06hf/geoms/mol2/12la12la12la.out
 35 37 0 0 0
SMALL
GASTEIGER

@<TRIPOS>ATOM
      1 C           2.0932    2.6109   -1.1230 C.ar    1  LIG1        0.1342
      2 C           0.8568    2.1330   -0.8184 C.ar    1  LIG1        0.1583
      3 C           0.1543    3.1900   -0.1457 C.ar    1  LIG1        0.0292
      4 C           1.0278    4.2303   -0.1011 C.ar    1  LIG1        0.1770
      5 O           2.1924    3.8986   -0.6948 O.2     1  LIG1       -0.4560
      6 H           2.9560    2.1964   -1.6094 H       1  LIG1        0.1068
      7 O           0.3158    0.9189   -1.0503 O.3     1  LIG1       -0.4919
      8 C           1.1789   -0.0028   -1.6894 C.3     1  LIG1        0.0789
      9 H           0.6185   -0.9268   -1.7977 H       1  LIG1        0.0660
     10 H           1.4725    0.3734   -2.6736 H       1  LIG1        0.0660
     11 H           2.0688   -0.1729   -1.0770 H       1  LIG1        0.0660
     12 H          -0.8454    3.1590    0.2517 H       1  LIG1        0.0693
     13 C           0.8395    5.5807    0.4156 C.ar    1  LIG1        0.2121
     14 C           1.6011    6.5672    0.9862 C.ar    1  LIG1        0.1694
     15 C           0.7241    7.6771    1.2329 C.ar    1  LIG1        0.0300
     16 C          -0.5039    7.2751    0.8165 C.ar    1  LIG1        0.1780
     17 O          -0.4515    6.0204    0.3363 O.2     1  LIG1       -0.4447
     18 O           2.9008    6.6239    1.3277 O.3     1  LIG1       -0.4912
     19 C           3.6062    5.3974    1.4717 C.3     1  LIG1        0.0790
     20 H           4.5176    5.6424    2.0108 H       1  LIG1        0.0660
     21 H           3.0081    4.6879    2.0485 H       1  LIG1        0.0660
     22 H           3.8401    4.9759    0.4961 H       1  LIG1        0.0660
     23 H           0.9948    8.6219    1.6700 H       1  LIG1        0.0694
     24 C          -1.7942    7.9432    0.8579 C.ar    1  LIG1        0.2111
     25 C          -3.0028    7.7846    0.2342 C.ar    1  LIG1        0.1687
     26 C          -3.8825    8.7725    0.8017 C.ar    1  LIG1        0.0187
     27 C          -3.1384    9.4504    1.7040 C.ar    1  LIG1        0.0964
     28 O          -1.8837    8.9687    1.7457 O.2     1  LIG1       -0.4560
     29 H          -3.3546   10.2725    2.3628 H       1  LIG1        0.1031
     30 O          -3.4146    6.9369   -0.7292 O.3     1  LIG1       -0.4912
     31 C          -2.4887    6.5750   -1.7530 C.3     1  LIG1        0.0790
     32 H          -3.0923    6.3019   -2.6151 H       1  LIG1        0.0660
     33 H          -1.8512    7.4285   -1.9955 H       1  LIG1        0.0660
     34 H          -1.8763    5.7336   -1.4357 H       1  LIG1        0.0660
     35 H          -4.9143    8.9229    0.5352 H       1  LIG1        0.0686
@<TRIPOS>BOND
     1    10     8    1
     2    32    31    1
     3    33    31    1
     4     9     8    1
     5    31    34    1
     6    31    30    1
     7     8    11    1
     8     8     7    1
     9     6     1    1
    10     1     2   ar
    11     1     5   ar
    12     7     2    1
    13     2     3   ar
    14    30    25    1
    15     5     4   ar
    16     3     4   ar
    17     3    12    1
    18     4    13    1
    19    25    26   ar
    20    25    24   ar
    21    17    13   ar
    22    17    16   ar
    23    13    14   ar
    24    22    19    1
    25    35    26    1
    26    26    27   ar
    27    16    24    1
    28    16    15   ar
    29    24    28   ar
    30    14    15   ar
    31    14    18    1
    32    15    23    1
    33    18    19    1
    34    19    20    1
    35    19    21    1
    36    27    28   ar
    37    27    29    1
