@<TRIPOS>MOLECULE
mol_data/opt/m06hf/geoms/mol2/12la12la12la12la.out
 46 49 0 0 0
SMALL
GASTEIGER

@<TRIPOS>ATOM
      1 C           3.0095    3.0606   -1.5761 C.ar    1  LIG1        0.1342
      2 C           2.3590    3.3096   -2.7449 C.ar    1  LIG1        0.1583
      3 C           1.1435    3.9989   -2.4110 C.ar    1  LIG1        0.0292
      4 C           1.1643    4.1108   -1.0572 C.ar    1  LIG1        0.1770
      5 O           2.2755    3.5526   -0.5415 O.2     1  LIG1       -0.4560
      6 H           3.9380    2.5833   -1.3247 H       1  LIG1        0.1068
      7 O           2.7084    3.0046   -4.0124 O.3     1  LIG1       -0.4919
      8 C           3.9507    2.3384   -4.1403 C.3     1  LIG1        0.0789
      9 H           4.1031    2.1707   -5.2026 H       1  LIG1        0.0660
     10 H           4.7556    2.9608   -3.7394 H       1  LIG1        0.0660
     11 H           3.9231    1.3818   -3.6108 H       1  LIG1        0.0660
     12 H           0.3813    4.3448   -3.0870 H       1  LIG1        0.0693
     13 C           0.2216    4.7131   -0.1352 C.ar    1  LIG1        0.2121
     14 C           0.1654    4.8321    1.2247 C.ar    1  LIG1        0.1694
     15 C          -1.0347    5.5594    1.5257 C.ar    1  LIG1        0.0300
     16 C          -1.6035    5.8269    0.3192 C.ar    1  LIG1        0.1780
     17 O          -0.8590    5.3169   -0.6849 O.2     1  LIG1       -0.4447
     18 O           1.0627    4.3813    2.1360 O.3     1  LIG1       -0.4912
     19 C           1.0008    2.9738    2.3684 C.3     1  LIG1        0.0790
     20 H           1.7214    2.7670    3.1554 H       1  LIG1        0.0660
     21 H          -0.0029    2.6925    2.6933 H       1  LIG1        0.0660
     22 H           1.2700    2.4331    1.4611 H       1  LIG1        0.0660
     23 H          -1.3942    5.8583    2.4955 H       1  LIG1        0.0694
     24 C          -2.8036    6.5466   -0.0484 C.ar    1  LIG1        0.2121
     25 C          -3.3362    6.9460   -1.2412 C.ar    1  LIG1        0.1694
     26 C          -4.5571    7.6356   -0.9350 C.ar    1  LIG1        0.0300
     27 C          -4.6646    7.5929    0.4200 C.ar    1  LIG1        0.1780
     28 O          -3.6129    6.9422    0.9623 O.2     1  LIG1       -0.4447
     29 O          -2.8348    6.7425   -2.4846 O.3     1  LIG1       -0.4912
     30 C          -1.7005    7.5546   -2.7980 C.3     1  LIG1        0.0790
     31 H          -1.4691    7.3564   -3.8417 H       1  LIG1        0.0660
     32 H          -1.9483    8.6089   -2.6606 H       1  LIG1        0.0660
     33 H          -0.8547    7.2786   -2.1669 H       1  LIG1        0.0660
     34 H          -5.2467    8.0796   -1.6315 H       1  LIG1        0.0694
     35 C          -5.6669    8.0910    1.3403 C.ar    1  LIG1        0.2111
     36 C          -5.8058    8.0129    2.6958 C.ar    1  LIG1        0.1687
     37 C          -7.0175    8.7163    3.0195 C.ar    1  LIG1        0.0187
     38 C          -7.5026    9.1632    1.8370 C.ar    1  LIG1        0.0964
     39 O          -6.6991    8.7903    0.8191 O.2     1  LIG1       -0.4560
     40 H          -8.3721    9.7367    1.5687 H       1  LIG1        0.1031
     41 O          -4.9773    7.4108    3.5863 O.3     1  LIG1       -0.4912
     42 C          -5.0658    5.9848    3.5977 C.3     1  LIG1        0.0790
     43 H          -4.4181    5.6502    4.4044 H       1  LIG1        0.0660
     44 H          -6.0955    5.6765    3.7900 H       1  LIG1        0.0660
     45 H          -4.7208    5.5786    2.6464 H       1  LIG1        0.0660
     46 H          -7.4311    8.8602    4.0027 H       1  LIG1        0.0686
@<TRIPOS>BOND
     1     9     8    1
     2     8     7    1
     3     8    10    1
     4     8    11    1
     5     7     2    1
     6    31    30    1
     7    12     3    1
     8    30    32    1
     9    30    29    1
    10    30    33    1
    11     2     3   ar
    12     2     1   ar
    13    29    25    1
    14     3     4   ar
    15    34    26    1
    16     1     6    1
    17     1     5   ar
    18    25    26   ar
    19    25    24   ar
    20     4     5   ar
    21     4    13    1
    22    26    27   ar
    23    17    13   ar
    24    17    16   ar
    25    13    14   ar
    26    24    16    1
    27    24    28   ar
    28    16    15   ar
    29    27    28   ar
    30    27    35    1
    31    39    35   ar
    32    39    38   ar
    33    14    15   ar
    34    14    18    1
    35    35    36   ar
    36    22    19    1
    37    15    23    1
    38    40    38    1
    39    38    37   ar
    40    18    19    1
    41    19    21    1
    42    19    20    1
    43    45    42    1
    44    36    37   ar
    45    36    41    1
    46    37    46    1
    47    41    42    1
    48    42    44    1
    49    42    43    1
