@<TRIPOS>MOLECULE
mol_data/opt/m06hf/geoms/mol2/12la6hl-13fd12ah-13le13il4ei12el-.out
 104 111 0 0 0
SMALL
GASTEIGER

@<TRIPOS>ATOM
      1 C          -2.1411    1.9356    2.1888 C.ar    1  LIG1        0.1341
      2 C          -0.8322    1.6283    2.3996 C.ar    1  LIG1        0.1582
      3 C          -0.0582    2.7406    1.9210 C.ar    1  LIG1        0.0261
      4 C          -0.9629    3.6441    1.4433 C.ar    1  LIG1        0.1418
      5 O          -2.2130    3.1576    1.6004 O.2     1  LIG1       -0.4591
      6 H          -3.0739    1.4379    2.3766 H       1  LIG1        0.1068
      7 O          -0.2786    0.5190    2.9313 O.3     1  LIG1       -0.4919
      8 C          -1.2032   -0.5140    3.2226 C.3     1  LIG1        0.0789
      9 H          -0.6239   -1.3491    3.6051 H       1  LIG1        0.0660
     10 H          -1.9188   -0.1793    3.9786 H       1  LIG1        0.0660
     11 H          -1.7338   -0.8059    2.3118 H       1  LIG1        0.0660
     12 H           1.0119    2.8388    1.9811 H       1  LIG1        0.0692
     13 C          -1.8427    5.9331    0.8208 C.ar    1  LIG1        0.1279
     14 C          -0.8046    4.9699    0.8335 C.ar    1  LIG1        0.0603
     15 C           0.4217    5.3270    0.2719 C.ar    1  LIG1       -0.0038
     16 C           0.6282    6.5969   -0.2515 C.ar    1  LIG1        0.1483
     17 C          -0.4425    7.4964   -0.1927 C.ar    1  LIG1        0.1343
     18 N          -1.6245    7.1459    0.3114 N.ar    1  LIG1       -0.2264
     19 H           1.2106    4.5870    0.2369 H       1  LIG1        0.0663
     20 N          -3.0778    5.7103    1.3419 N.pl3   1  LIG1       -0.3426
     21 H          -3.7640    6.4360    1.2188 H       1  LIG1        0.1437
     22 H          -3.4039    4.7803    1.5501 H       1  LIG1        0.1437
     23 O           1.7654    7.0343   -0.8367 O.3     1  LIG1       -0.4929
     24 C           2.8815    6.1709   -0.8598 C.3     1  LIG1        0.0789
     25 H           3.6760    6.7333   -1.3411 H       1  LIG1        0.0660
     26 H           3.1823    5.8989    0.1561 H       1  LIG1        0.0660
     27 H           2.6633    5.2685   -1.4381 H       1  LIG1        0.0660
     28 C          -0.4047    8.8835   -0.7007 C.ar    1  LIG1        0.1124
     29 C           0.4951    9.8103   -1.2122 C.ar    1  LIG1        0.1618
     30 C          -0.2415   11.0043   -1.4810 C.ar    1  LIG1        0.1220
     31 C          -1.5659   10.7715   -1.1204 C.ar    1  LIG1        0.1039
     32 N          -1.6206    9.5166   -0.6649 N.ar    1  LIG1       -0.3465
     33 H          -2.4286    9.0384   -0.2873 H       1  LIG1        0.1662
     34 O           1.8218    9.6704   -1.4163 O.3     1  LIG1       -0.5034
     35 H           2.1726   10.4899   -1.7861 H       1  LIG1        0.2923
     36 N           0.7997   13.1475   -2.4598 N.1     1  LIG1       -0.1907
     37 C           0.3113   12.2023   -2.0232 C.1     1  LIG1        0.1051
     38 C          -2.7896   11.5556   -1.1544 C.ar    1  LIG1        0.1551
     39 C          -3.1452   12.8334   -1.4481 C.ar    1  LIG1        0.0071
     40 C          -4.5767   12.9083   -1.2515 C.ar    1  LIG1        0.0732
     41 C          -4.9612   11.6628   -0.8470 C.ar    1  LIG1        0.1760
     42 O          -3.8751   10.8414   -0.7836 O.2     1  LIG1       -0.4498
     43 H          -2.4884   13.6294   -1.7580 H       1  LIG1        0.0675
     44 N          -5.3749   14.0403   -1.3802 N.pl3   1  LIG1       -0.3550
     45 H          -5.1058   14.6435   -2.1457 H       1  LIG1        0.1424
     46 H          -6.3677   13.8244   -1.3820 H       1  LIG1        0.1424
     47 C          -6.2059   11.0188   -0.4775 C.ar    1  LIG1        0.1279
     48 C          -7.4925   11.4636   -0.2769 C.ar    1  LIG1        0.1643
     49 C          -8.2889   10.3434    0.1243 C.ar    1  LIG1        0.0937
     50 C          -7.4433    9.2440    0.1505 C.ar    1  LIG1        0.0830
     51 N          -6.2075    9.6736   -0.2243 N.ar    1  LIG1       -0.3466
     52 H          -5.3701    9.1110   -0.2052 H       1  LIG1        0.1662
     53 O          -7.9183   12.7488   -0.4477 O.3     1  LIG1       -0.4916
     54 C          -8.1079   13.4499    0.7871 C.3     1  LIG1        0.0789
     55 H          -8.4645   14.4418    0.5205 H       1  LIG1        0.0660
     56 H          -8.8503   12.9312    1.3944 H       1  LIG1        0.0660
     57 H          -7.1566   13.5180    1.3179 H       1  LIG1        0.0660
     58 C          -9.6928   10.3591    0.3962 C.1     1  LIG1       -0.0638
     59 C         -10.8719   10.3946    0.6297 C.1     1  LIG1       -0.1137
     60 H         -11.9185   10.4264    0.8245 H       1  LIG1        0.1232
     61 C          -7.6418    7.8323    0.4733 C.ar    1  LIG1        0.0712
     62 C          -8.2489    7.2151    1.5486 C.ar    1  LIG1        0.0186
     63 C          -7.9618    5.8272    1.4117 C.ar    1  LIG1        0.1488
     64 C          -7.2052    5.6344    0.2726 C.ar    1  LIG1        0.0906
     65 N          -7.0212    6.8719   -0.2835 N.ar    1  LIG1       -0.3498
     66 H          -6.5568    7.0401   -1.1633 H       1  LIG1        0.1661
     67 C          -9.0065    7.8534    2.6828 C.3     1  LIG1       -0.0341
     68 H          -8.9228    7.2197    3.5661 H       1  LIG1        0.0279
     69 H         -10.0602    7.9750    2.4281 H       1  LIG1        0.0279
     70 H          -8.5976    8.8407    2.9003 H       1  LIG1        0.0279
     71 O          -8.3749    4.8521    2.2708 O.3     1  LIG1       -0.4927
     72 C          -9.6558    4.3247    1.9370 C.3     1  LIG1        0.0789
     73 H          -9.8963    3.5889    2.7008 H       1  LIG1        0.0660
     74 H         -10.4037    5.1209    1.9322 H       1  LIG1        0.0660
     75 H          -9.6203    3.8497    0.9542 H       1  LIG1        0.0660
     76 C          -5.9008    3.4792    0.3002 C.ar    1  LIG1        0.0346
     77 C          -5.3972    2.3748   -0.3889 C.ar    1  LIG1       -0.0347
     78 C          -6.6899    4.4170   -0.3838 C.ar    1  LIG1        0.0175
     79 C          -5.6721    2.1868   -1.7416 C.ar    1  LIG1        0.0227
     80 H          -4.7735    1.6618    0.1342 H       1  LIG1        0.0637
     81 C          -6.9565    4.2093   -1.7400 C.ar    1  LIG1       -0.0477
     82 C          -6.4637    3.1128   -2.4418 C.ar    1  LIG1       -0.0391
     83 H          -7.5841    4.9261   -2.2579 H       1  LIG1        0.0627
     84 C          -5.5692    3.6462    1.6957 C.1     1  LIG1       -0.0690
     85 C          -5.2668    3.7754    2.8532 C.1     1  LIG1       -0.1139
     86 H          -5.0232    3.9120    3.8819 H       1  LIG1        0.1232
     87 C          -6.7745    2.9547   -3.9186 C.3     1  LIG1       -0.0390
     88 H          -7.1950    3.8810   -4.3074 H       1  LIG1        0.0278
     89 H          -7.4886    2.1457   -4.0724 H       1  LIG1        0.0278
     90 H          -5.8666    2.7139   -4.4728 H       1  LIG1        0.0278
     91 C          -5.0889    1.0088   -2.4094 C.ar    1  LIG1        0.1541
     92 C          -3.8516    0.4349   -2.3077 C.ar    1  LIG1        0.1119
     93 C          -3.8802   -0.7044   -3.2017 C.ar    1  LIG1        0.1736
     94 C          -5.1152   -0.7238   -3.7544 C.ar    1  LIG1        0.1354
     95 O          -5.8443    0.3154   -3.2823 O.2     1  LIG1       -0.4579
     96 H          -5.5785   -1.3734   -4.4741 H       1  LIG1        0.1068
     97 C          -2.7424    0.9087   -1.5389 C.1     1  LIG1       -0.0622
     98 C          -1.8135    1.3126   -0.8901 C.1     1  LIG1       -0.1137
     99 H          -0.9884    1.6942   -0.3256 H       1  LIG1        0.1232
    100 O          -2.8666   -1.5636   -3.4637 O.3     1  LIG1       -0.4907
    101 C          -2.4576   -2.3334   -2.3331 C.3     1  LIG1        0.0790
    102 H          -1.6430   -2.9647   -2.6781 H       1  LIG1        0.0660
    103 H          -2.1108   -1.6787   -1.5323 H       1  LIG1        0.0660
    104 H          -3.2899   -2.9475   -1.9832 H       1  LIG1        0.0660
@<TRIPOS>BOND
     1    96    94    1
     2    90    87    1
     3    88    87    1
     4    89    87    1
     5    87    82    1
     6    94    95   ar
     7    94    93   ar
     8   100    93    1
     9   100   101    1
    10    95    91   ar
    11    93    92   ar
    12   102   101    1
    13    36    37    3
    14    82    79   ar
    15    82    81   ar
    16    91    92   ar
    17    91    79    1
    18   101   104    1
    19   101   103    1
    20    92    97    1
    21    83    81    1
    22    45    44    1
    23    37    30    1
    24    35    34    1
    25    43    39    1
    26    79    77   ar
    27    81    78   ar
    28    97    98    3
    29    30    29   ar
    30    30    31   ar
    31    39    40   ar
    32    39    38   ar
    33    27    24    1
    34    34    29    1
    35    46    44    1
    36    44    40    1
    37    25    24    1
    38    40    41   ar
    39    29    28   ar
    40    66    65    1
    41    38    31    1
    42    38    42   ar
    43    31    32   ar
    44    98    99    1
    45    24    23    1
    46    24    26    1
    47    41    42   ar
    48    41    47    1
    49    23    16    1
    50    28    32   ar
    51    28    17    1
    52    32    33    1
    53    47    48   ar
    54    47    51   ar
    55    53    48    1
    56    53    54    1
    57    77    80    1
    58    77    76   ar
    59    78    64    1
    60    78    76   ar
    61    65    64   ar
    62    65    61   ar
    63    48    49   ar
    64    16    17   ar
    65    16    15   ar
    66    51    52    1
    67    51    50   ar
    68    17    18   ar
    69    49    50   ar
    70    49    58    1
    71    50    61    1
    72    19    15    1
    73    15    14   ar
    74    64    63   ar
    75    76    84    1
    76    18    13   ar
    77    58    59    3
    78    61    62   ar
    79    55    54    1
    80    59    60    1
    81    54    57    1
    82    54    56    1
    83    13    14   ar
    84    13    20    1
    85    14     4    1
    86    75    72    1
    87    21    20    1
    88    20    22    1
    89    63    62   ar
    90    63    71    1
    91     4     5   ar
    92     4     3   ar
    93    62    67    1
    94     5     1   ar
    95    84    85    3
    96     3    12    1
    97     3     2   ar
    98    74    72    1
    99    72    71    1
   100    72    73    1
   101     1     6    1
   102     1     2   ar
   103    11     8    1
   104     2     7    1
   105    69    67    1
   106    67    70    1
   107    67    68    1
   108    85    86    1
   109     7     8    1
   110     8     9    1
   111     8    10    1
