@<TRIPOS>MOLECULE
mol_data/opt/m06hf/geoms/mol2/12la12la.out
 24 25 0 0 0
SMALL
GASTEIGER

@<TRIPOS>ATOM
      1 C           0.0016    1.7854   -0.0003 C.ar    1  LIG1        0.1342
      2 C           1.3550    1.6721    0.0003 C.ar    1  LIG1        0.1583
      3 C           1.8855    3.0055    0.0005 C.ar    1  LIG1        0.0292
      4 C           0.8025    3.8342    0.0001 C.ar    1  LIG1        0.1770
      5 O          -0.3284    3.0995   -0.0004 O.2     1  LIG1       -0.4560
      6 H          -0.8115    1.0835   -0.0007 H       1  LIG1        0.1068
      7 O           2.1401    0.5728    0.0006 O.3     1  LIG1       -0.4919
      8 C           1.4347   -0.6546    0.0001 C.3     1  LIG1        0.0789
      9 H           2.1837   -1.4415    0.0004 H       1  LIG1        0.0660
     10 H           0.8104   -0.7317    0.8944 H       1  LIG1        0.0660
     11 H           0.8115   -0.7315   -0.8950 H       1  LIG1        0.0660
     12 H           2.9308    3.2446    0.0010 H       1  LIG1        0.0693
     13 C           0.5466    5.2846    0.0000 C.ar    1  LIG1        0.2110
     14 C           1.2352    6.4742   -0.0001 C.ar    1  LIG1        0.1687
     15 C           0.2534    7.5236   -0.0001 C.ar    1  LIG1        0.0187
     16 C          -0.9454    6.9015   -0.0000 C.ar    1  LIG1        0.0964
     17 O          -0.7867    5.5728    0.0000 O.2     1  LIG1       -0.4560
     18 H          -1.9589    7.2618   -0.0000 H       1  LIG1        0.1031
     19 O           2.5423    6.8083   -0.0002 O.3     1  LIG1       -0.4912
     20 C           3.5060    5.7744   -0.0004 C.3     1  LIG1        0.0790
     21 H           4.4744    6.2677   -0.0007 H       1  LIG1        0.0660
     22 H           3.4020    5.1632    0.8989 H       1  LIG1        0.0660
     23 H           3.4014    5.1629   -0.8994 H       1  LIG1        0.0660
     24 H           0.4695    8.5777   -0.0001 H       1  LIG1        0.0686
@<TRIPOS>BOND
     1    23    20    1
     2    11     8    1
     3    21    20    1
     4     6     1    1
     5     5     1   ar
     6     5     4   ar
     7    20    19    1
     8    20    22    1
     9     1     2   ar
    10    19    14    1
    11    24    15    1
    12    15    14   ar
    13    15    16   ar
    14    14    13   ar
    15    16    18    1
    16    16    17   ar
    17    13    17   ar
    18    13     4    1
    19     8     9    1
    20     8     7    1
    21     8    10    1
    22     4     3   ar
    23     2     3   ar
    24     2     7    1
    25     3    12    1
