@<TRIPOS>MOLECULE
mol_data/opt/m06hf/geoms/mol2/12la12ad-4ea-12ld.out
 45 48 0 0 0
SMALL
GASTEIGER

@<TRIPOS>ATOM
      1 C           0.4471    1.4289    0.2045 C.ar    1  LIG1        0.1342
      2 C           1.7835    1.5360    0.4417 C.ar    1  LIG1        0.1583
      3 C           2.1188    2.9256    0.3074 C.ar    1  LIG1        0.0291
      4 C           0.9516    3.5413   -0.0104 C.ar    1  LIG1        0.1734
      5 O          -0.0588    2.6565   -0.0756 O.2     1  LIG1       -0.4561
      6 H          -0.2451    0.6074    0.1968 H       1  LIG1        0.1068
      7 O           2.6903    0.5891    0.7568 O.3     1  LIG1       -0.4919
      8 C           2.1761   -0.7283    0.8354 C.3     1  LIG1        0.0789
      9 H           3.0161   -1.3718    1.0802 H       1  LIG1        0.0660
     10 H           1.4161   -0.7907    1.6191 H       1  LIG1        0.0660
     11 H           1.7451   -1.0229   -0.1249 H       1  LIG1        0.0660
     12 H           3.0872    3.3722    0.4517 H       1  LIG1        0.0693
     13 C           0.6468    4.9357   -0.3049 C.ar    1  LIG1        0.1720
     14 C           1.4228    5.9663   -0.7245 C.ar    1  LIG1        0.0053
     15 C           0.5412    7.0975   -0.8073 C.ar    1  LIG1        0.0981
     16 C          -0.7021    6.6601   -0.4336 C.ar    1  LIG1        0.1543
     17 O          -0.6275    5.3506   -0.1330 O.2     1  LIG1       -0.4504
     18 H           2.4693    5.9418   -0.9738 H       1  LIG1        0.0669
     19 N           1.2376    9.4003   -1.7414 N.1     1  LIG1       -0.1907
     20 C           0.9015    8.3911   -1.3104 C.1     1  LIG1        0.1030
     21 C          -2.2624    8.5537    0.1494 C.ar    1  LIG1        0.0360
     22 C          -3.5564    9.0789    0.1692 C.ar    1  LIG1       -0.0349
     23 C          -2.0402    7.2678   -0.3679 C.ar    1  LIG1        0.0340
     24 C          -4.6304    8.3254   -0.3036 C.ar    1  LIG1        0.0221
     25 H          -3.7188   10.0697    0.5684 H       1  LIG1        0.0637
     26 C          -3.1271    6.5125   -0.8176 C.ar    1  LIG1       -0.0492
     27 C          -4.4110    7.0303   -0.7889 C.ar    1  LIG1       -0.0502
     28 H          -2.9497    5.5147   -1.1966 H       1  LIG1        0.0625
     29 C          -1.1946    9.3391    0.7184 C.1     1  LIG1       -0.0689
     30 C          -0.3269   10.0103    1.2082 C.1     1  LIG1       -0.1139
     31 H           0.4603   10.6000    1.6185 H       1  LIG1        0.1232
     32 H          -5.2445    6.4417   -1.1468 H       1  LIG1        0.0625
     33 C          -5.9866    8.8764   -0.2858 C.ar    1  LIG1        0.1775
     34 C          -6.4923   10.0982    0.0551 C.ar    1  LIG1        0.1830
     35 C          -7.9223   10.0108   -0.1563 C.ar    1  LIG1        0.1316
     36 C          -8.1495    8.7443   -0.6066 C.ar    1  LIG1        0.1137
     37 O          -7.0089    8.0699   -0.6834 O.2     1  LIG1       -0.4578
     38 H          -9.0556    8.2395   -0.8917 H       1  LIG1        0.1044
     39 O          -5.7433   11.1233    0.4956 O.3     1  LIG1       -0.4901
     40 C          -6.3838   12.3805    0.7021 C.3     1  LIG1        0.0790
     41 H          -5.5896   13.0651    0.9836 H       1  LIG1        0.0660
     42 H          -6.8628   12.7170   -0.2183 H       1  LIG1        0.0660
     43 H          -7.1183   12.3060    1.5047 H       1  LIG1        0.0660
     44 N          -9.7832   11.7661    0.1901 N.1     1  LIG1       -0.1906
     45 C          -8.9520   10.9896    0.0387 C.1     1  LIG1        0.1060
@<TRIPOS>BOND
     1    19    20    3
     2    20    15    1
     3    28    26    1
     4    32    27    1
     5    18    14    1
     6    38    36    1
     7    26    27   ar
     8    26    23   ar
     9    15    14   ar
    10    15    16   ar
    11    27    24   ar
    12    14    13   ar
    13    37    36   ar
    14    37    33   ar
    15    36    35   ar
    16    16    23    1
    17    16    17   ar
    18    23    21   ar
    19    13    17   ar
    20    13     4    1
    21    24    33    1
    22    24    22   ar
    23    33    34   ar
    24    42    40    1
    25    35    45    1
    26    35    34   ar
    27    11     8    1
    28     5     4   ar
    29     5     1   ar
    30     4     3   ar
    31    45    44    3
    32    34    39    1
    33    21    22   ar
    34    21    29    1
    35    22    25    1
    36     6     1    1
    37     1     2   ar
    38     3     2   ar
    39     3    12    1
    40     2     7    1
    41    39    40    1
    42    40    41    1
    43    40    43    1
    44    29    30    3
    45     7     8    1
    46     8     9    1
    47     8    10    1
    48    30    31    1
