@<TRIPOS>MOLECULE
mol_data/opt/m06hf/geoms/mol2/12la6fi-13hi4le6ah13dl12he6he.out
 103 110 0 0 0
SMALL
GASTEIGER

@<TRIPOS>ATOM
      1 C           2.8861    4.2061   -4.5785 C.ar    1  LIG1        0.1341
      2 C           3.7534    3.6582   -3.6892 C.ar    1  LIG1        0.1582
      3 C           3.3727    4.1263   -2.3829 C.ar    1  LIG1        0.0262
      4 C           2.2886    4.9194   -2.5751 C.ar    1  LIG1        0.1435
      5 O           1.9865    4.9739   -3.8979 O.2     1  LIG1       -0.4590
      6 H           2.7717    4.1570   -5.6452 H       1  LIG1        0.1068
      7 O           4.8013    2.8371   -3.8955 O.3     1  LIG1       -0.4919
      8 C           5.0427    2.5095   -5.2526 C.3     1  LIG1        0.0789
      9 H           5.9131    1.8602   -5.2630 H       1  LIG1        0.0660
     10 H           4.1799    1.9851   -5.6725 H       1  LIG1        0.0660
     11 H           5.2434    3.4164   -5.8285 H       1  LIG1        0.0660
     12 H           3.8732    3.9022   -1.4571 H       1  LIG1        0.0692
     13 C           0.6904    6.8073   -2.0422 C.ar    1  LIG1        0.2239
     14 C           1.4381    5.6758   -1.6465 C.ar    1  LIG1        0.0789
     15 C           1.3457    5.2988   -0.3110 C.ar    1  LIG1       -0.0410
     16 C           0.5960    6.0241    0.6113 C.ar    1  LIG1       -0.0221
     17 C          -0.0416    7.1679    0.1115 C.ar    1  LIG1        0.0956
     18 N          -0.0088    7.5157   -1.1828 N.ar    1  LIG1       -0.2106
     19 H           1.8475    4.3927    0.0094 H       1  LIG1        0.0630
     20 O           0.6488    7.2489   -3.3117 O.3     1  LIG1       -0.4919
     21 H           1.0948    6.6286   -3.9031 H       1  LIG1        0.2938
     22 C           0.4227    5.5346    2.0337 C.3     1  LIG1       -0.0376
     23 H          -0.6060    5.7024    2.3556 H       1  LIG1        0.0278
     24 H           1.0637    6.0830    2.7221 H       1  LIG1        0.0278
     25 H           0.6474    4.4687    2.0802 H       1  LIG1        0.0278
     26 C          -0.8692    8.0672    0.9369 C.ar    1  LIG1        0.0869
     27 C          -0.7312    8.6211    2.2032 C.ar    1  LIG1        0.0552
     28 C          -1.7931    9.5502    2.3851 C.ar    1  LIG1       -0.0038
     29 C          -2.5416    9.5270    1.2125 C.ar    1  LIG1        0.0552
     30 N          -1.9562    8.6469    0.3615 N.ar    1  LIG1       -0.3512
     31 H          -2.2321    8.4998   -0.6022 H       1  LIG1        0.1660
     32 N           0.3318    8.3630    3.1039 N.pl3   1  LIG1       -0.3561
     33 H           1.2124    8.7379    2.7659 H       1  LIG1        0.1424
     34 H           0.1411    8.7338    4.0268 H       1  LIG1        0.1424
     35 C          -1.9716   10.4452    3.5866 C.3     1  LIG1       -0.0359
     36 H          -2.4657   11.3741    3.3003 H       1  LIG1        0.0279
     37 H          -0.9939   10.7017    4.0007 H       1  LIG1        0.0279
     38 H          -2.5598    9.9667    4.3733 H       1  LIG1        0.0279
     39 C          -3.9427   10.6601   -0.5301 C.ar    1  LIG1        0.1298
     40 C          -5.0520   11.4055   -0.9020 C.ar    1  LIG1       -0.0104
     41 C          -3.7229   10.3104    0.8140 C.ar    1  LIG1        0.0414
     42 C          -5.9842   11.8314    0.0445 C.ar    1  LIG1        0.0025
     43 H          -5.1959   11.6192   -1.9537 H       1  LIG1        0.0661
     44 C          -4.6645   10.7255    1.7546 C.ar    1  LIG1       -0.0331
     45 C          -5.7790   11.4864    1.3906 C.ar    1  LIG1        0.0333
     46 H          -4.5476   10.4384    2.7904 H       1  LIG1        0.0638
     47 O          -3.0919   10.2190   -1.5122 O.3     1  LIG1       -0.4944
     48 C          -1.8619   10.9527   -1.6178 C.3     1  LIG1        0.0788
     49 H          -2.0590   11.9212   -2.0806 H       1  LIG1        0.0660
     50 H          -1.4164   11.0862   -0.6302 H       1  LIG1        0.0660
     51 H          -1.2042   10.3491   -2.2386 H       1  LIG1        0.0660
     52 C          -6.6918   11.9105    2.4284 C.1     1  LIG1       -0.0690
     53 C          -7.4273   12.2542    3.3147 C.1     1  LIG1       -0.1139
     54 H          -8.0840   12.5665    4.0936 H       1  LIG1        0.1232
     55 C          -8.4712   12.2257   -0.0432 C.ar    1  LIG1        0.0362
     56 C          -7.1703   12.6155   -0.3968 C.ar    1  LIG1        0.0033
     57 C          -7.0300   13.7347   -1.1954 C.ar    1  LIG1       -0.0297
     58 C          -8.1500   14.4632   -1.6397 C.ar    1  LIG1        0.0530
     59 C          -9.4089   13.9560   -1.2631 C.ar    1  LIG1        0.1090
     60 N          -9.5298   12.8795   -0.4737 N.ar    1  LIG1       -0.2510
     61 H          -6.0383   14.0849   -1.4593 H       1  LIG1        0.0643
     62 H          -8.6389   11.3636    0.5883 H       1  LIG1        0.0836
     63 N          -7.9541   15.6363   -2.3235 N.pl3   1  LIG1       -0.3563
     64 H          -7.0219   15.7992   -2.6699 H       1  LIG1        0.1424
     65 H          -8.6769   16.0164   -2.9122 H       1  LIG1        0.1424
     66 C         -10.7277   14.5484   -1.5990 C.ar    1  LIG1        0.0885
     67 C         -11.2681   15.3823   -2.5780 C.ar    1  LIG1        0.1208
     68 C         -12.6654   15.5017   -2.3155 C.ar    1  LIG1        0.1663
     69 C         -12.9416   14.7423   -1.2009 C.ar    1  LIG1        0.1280
     70 N         -11.7599   14.1884   -0.8016 N.ar    1  LIG1       -0.3465
     71 H         -11.6174   13.5415   -0.0341 H       1  LIG1        0.1662
     72 N         -10.1449   16.4445   -4.6407 N.1     1  LIG1       -0.1907
     73 C         -10.6464   15.9603   -3.7257 C.1     1  LIG1        0.1050
     74 O         -13.5558   16.2211   -3.0546 O.3     1  LIG1       -0.4916
     75 C         -13.5423   17.6251   -2.7563 C.3     1  LIG1        0.0789
     76 H         -14.2752   18.0804   -3.4179 H       1  LIG1        0.0660
     77 H         -13.8234   17.7773   -1.7138 H       1  LIG1        0.0660
     78 H         -12.5516   18.0359   -2.9539 H       1  LIG1        0.0660
     79 C         -14.1784   14.4666   -0.4992 C.ar    1  LIG1        0.1771
     80 C         -15.4715   14.8647   -0.6556 C.ar    1  LIG1        0.0888
     81 C         -16.2108   14.1906    0.3914 C.ar    1  LIG1        0.0918
     82 C         -15.3095   13.4395    1.0964 C.ar    1  LIG1        0.1562
     83 O         -14.0833   13.6037    0.5605 O.2     1  LIG1       -0.4499
     84 N         -16.0187   15.7458   -1.5674 N.pl3   1  LIG1       -0.3540
     85 H         -15.4991   15.8206   -2.4345 H       1  LIG1        0.1425
     86 H         -17.0176   15.6400   -1.6820 H       1  LIG1        0.1425
     87 C         -17.6248   14.2899    0.5716 C.1     1  LIG1       -0.0640
     88 C         -18.8171   14.3974    0.6855 C.1     1  LIG1       -0.1137
     89 H         -19.8736   14.4804    0.7962 H       1  LIG1        0.1232
     90 C         -14.6006   11.4444    2.4794 C.ar    1  LIG1        0.1270
     91 C         -15.4544   12.5616    2.2593 C.ar    1  LIG1        0.0592
     92 C         -16.4688   12.7943    3.1768 C.ar    1  LIG1       -0.0309
     93 C         -16.6356   11.9432    4.2701 C.ar    1  LIG1        0.0436
     94 C         -15.7413   10.8759    4.3912 C.ar    1  LIG1        0.0451
     95 N         -14.7642   10.6359    3.5335 N.ar    1  LIG1       -0.2388
     96 H         -17.1307   13.6402    3.0441 H       1  LIG1        0.0638
     97 H         -15.8324   10.1904    5.2255 H       1  LIG1        0.0843
     98 N         -13.5796   11.1255    1.6508 N.pl3   1  LIG1       -0.3426
     99 H         -13.1044   10.2572    1.8341 H       1  LIG1        0.1437
    100 H         -13.4347   11.6130    0.7839 H       1  LIG1        0.1437
    101 C         -17.6730   12.1510    5.2458 C.1     1  LIG1       -0.0681
    102 C         -18.5370   12.3195    6.0639 C.1     1  LIG1       -0.1139
    103 H         -19.3019   12.4706    6.7894 H       1  LIG1        0.1232
@<TRIPOS>BOND
     1    11     8    1
     2    10     8    1
     3     6     1    1
     4     9     8    1
     5     8     7    1
     6    72    73    3
     7     1     5   ar
     8     1     2   ar
     9    21    20    1
    10     5     4   ar
    11     7     2    1
    12    73    67    1
    13     2     3   ar
    14    76    75    1
    15    20    13    1
    16    74    75    1
    17    74    68    1
    18    78    75    1
    19    65    63    1
    20    75    77    1
    21    64    63    1
    22    67    68   ar
    23    67    66   ar
    24     4     3   ar
    25     4    14    1
    26    85    84    1
    27     3    12    1
    28    63    58    1
    29    68    69   ar
    30    51    48    1
    31    49    48    1
    32    13    14   ar
    33    13    18   ar
    34    43    40    1
    35    86    84    1
    36    14    15   ar
    37    58    59   ar
    38    58    57   ar
    39    48    47    1
    40    48    50    1
    41    66    59    1
    42    66    70   ar
    43    84    80    1
    44    47    39    1
    45    61    57    1
    46    59    60   ar
    47    69    70   ar
    48    69    79    1
    49    57    56   ar
    50    18    17   ar
    51    40    39   ar
    52    40    42   ar
    53    70    71    1
    54    80    79   ar
    55    80    81   ar
    56    31    30    1
    57    39    41   ar
    58    79    83   ar
    59    60    55   ar
    60    56    55   ar
    61    56    42    1
    62    15    19    1
    63    15    16   ar
    64    55    62    1
    65    42    45   ar
    66    17    16   ar
    67    17    26    1
    68    30    26   ar
    69    30    29   ar
    70    81    87    1
    71    81    82   ar
    72    83    82   ar
    73    87    88    3
    74    16    22    1
    75    88    89    1
    76   100    98    1
    77    41    29    1
    78    41    44   ar
    79    26    27   ar
    80    82    91    1
    81    29    28   ar
    82    45    44   ar
    83    45    52    1
    84    98    99    1
    85    98    90    1
    86    44    46    1
    87    22    25    1
    88    22    23    1
    89    22    24    1
    90    27    28   ar
    91    27    32    1
    92    91    90   ar
    93    91    92   ar
    94    28    35    1
    95    52    53    3
    96    90    95   ar
    97    33    32    1
    98    96    92    1
    99    32    34    1
   100    92    93   ar
   101    36    35    1
   102    53    54    1
   103    95    94   ar
   104    35    37    1
   105    35    38    1
   106    93    94   ar
   107    93   101    1
   108    94    97    1
   109   101   102    3
   110   102   103    1
