@<TRIPOS>MOLECULE
mol_data/opt/m06hf/geoms/mol2/12la12la12la-12la-.out
 46 49 0 0 0
SMALL
GASTEIGER

@<TRIPOS>ATOM
      1 C           1.9614    1.8890   -0.4693 C.ar    1  LIG1        0.1342
      2 C           0.7240    1.4649   -0.0948 C.ar    1  LIG1        0.1583
      3 C          -0.1118    2.6301   -0.0056 C.ar    1  LIG1        0.0292
      4 C           0.6978    3.6689   -0.3390 C.ar    1  LIG1        0.1770
      5 O           1.9437    3.2410   -0.6197 O.2     1  LIG1       -0.4560
      6 H           2.8939    1.3940   -0.6646 H       1  LIG1        0.1068
      7 O           0.2804    0.2154    0.1639 O.3     1  LIG1       -0.4919
      8 C           1.2489   -0.8010   -0.0112 C.3     1  LIG1        0.0789
      9 H           0.7566   -1.7417    0.2178 H       1  LIG1        0.0660
     10 H           1.6072   -0.8065   -1.0446 H       1  LIG1        0.0660
     11 H           2.0897   -0.6434    0.6704 H       1  LIG1        0.0660
     12 H          -1.1525    2.6739    0.2629 H       1  LIG1        0.0693
     13 C           0.4356    5.0915   -0.4313 C.ar    1  LIG1        0.2121
     14 C           1.1988    6.1792   -0.7502 C.ar    1  LIG1        0.1694
     15 C           0.3393    7.3237   -0.6658 C.ar    1  LIG1        0.0300
     16 C          -0.8795    6.8307   -0.3092 C.ar    1  LIG1        0.1780
     17 O          -0.8278    5.4924   -0.1592 O.2     1  LIG1       -0.4447
     18 O           2.5112    6.2016   -1.0974 O.3     1  LIG1       -0.4912
     19 C           3.4040    6.0227    0.0022 C.3     1  LIG1        0.0790
     20 H           4.4066    6.1397   -0.4016 H       1  LIG1        0.0660
     21 H           3.2149    6.7816    0.7640 H       1  LIG1        0.0660
     22 H           3.2825    5.0250    0.4241 H       1  LIG1        0.0660
     23 H           0.5964    8.3498   -0.8622 H       1  LIG1        0.0694
     24 C          -2.1527    7.4748   -0.0806 C.ar    1  LIG1        0.2121
     25 C          -3.4081    7.0013    0.1793 C.ar    1  LIG1        0.1694
     26 C          -4.2638    8.1489    0.3006 C.ar    1  LIG1        0.0300
     27 C          -3.4464    9.2220    0.1012 C.ar    1  LIG1        0.1780
     28 O          -2.1824    8.8306   -0.1280 O.2     1  LIG1       -0.4447
     29 O          -3.7212    5.6944    0.2883 O.3     1  LIG1       -0.4912
     30 C          -5.0947    5.4093    0.4873 C.3     1  LIG1        0.0790
     31 H          -5.1740    4.3265    0.5267 H       1  LIG1        0.0660
     32 H          -5.4432    5.8412    1.4287 H       1  LIG1        0.0660
     33 H          -5.6901    5.7956   -0.3439 H       1  LIG1        0.0660
     34 H          -5.3195    8.1957    0.5036 H       1  LIG1        0.0694
     35 C          -3.7271   10.6424    0.0964 C.ar    1  LIG1        0.2111
     36 C          -4.9073   11.3188    0.1984 C.ar    1  LIG1        0.1687
     37 C          -4.5822   12.7189    0.1406 C.ar    1  LIG1        0.0187
     38 C          -3.2313   12.7613    0.0087 C.ar    1  LIG1        0.0964
     39 O          -2.7099   11.5256   -0.0171 O.2     1  LIG1       -0.4560
     40 H          -2.5352   13.5769   -0.0745 H       1  LIG1        0.1031
     41 O          -6.1091   10.7121    0.3277 O.3     1  LIG1       -0.4912
     42 C          -7.2347   11.5750    0.3210 C.3     1  LIG1        0.0790
     43 H          -8.1082   10.9326    0.3914 H       1  LIG1        0.0660
     44 H          -7.2008   12.2507    1.1784 H       1  LIG1        0.0660
     45 H          -7.2692   12.1484   -0.6079 H       1  LIG1        0.0660
     46 H          -5.2495   13.5618    0.1883 H       1  LIG1        0.0686
@<TRIPOS>BOND
     1    18    14    1
     2    18    19    1
     3    10     8    1
     4    23    15    1
     5    14    15   ar
     6    14    13   ar
     7    15    16   ar
     8     6     1    1
     9     5     1   ar
    10     5     4   ar
    11    45    42    1
    12     1     2   ar
    13    13     4    1
    14    13    17   ar
    15    20    19    1
    16    33    30    1
    17     4     3   ar
    18    16    17   ar
    19    16    24    1
    20    28    24   ar
    21    28    27   ar
    22     2     3   ar
    23     2     7    1
    24    24    25   ar
    25    40    38    1
    26    39    38   ar
    27    39    35   ar
    28     8     7    1
    29     8     9    1
    30     8    11    1
    31     3    12    1
    32    19    22    1
    33    19    21    1
    34    38    37   ar
    35    35    27    1
    36    35    36   ar
    37    27    26   ar
    38    37    46    1
    39    37    36   ar
    40    25    29    1
    41    25    26   ar
    42    36    41    1
    43    29    30    1
    44    26    34    1
    45    42    41    1
    46    42    43    1
    47    42    44    1
    48    30    31    1
    49    30    32    1
