@<TRIPOS>MOLECULE
mol_data/opt/m06hf/geoms/mol2/12la12la-12la12la-.out
 46 49 0 0 0
SMALL
GASTEIGER

@<TRIPOS>ATOM
      1 C          -0.2287    1.8734   -0.0001 C.ar    1  LIG1        0.1342
      2 C           1.1256    1.7403   -0.0001 C.ar    1  LIG1        0.1583
      3 C           1.6771    3.0663   -0.0001 C.ar    1  LIG1        0.0292
      4 C           0.5989    3.8955   -0.0001 C.ar    1  LIG1        0.1770
      5 O          -0.5472    3.1948   -0.0001 O.2     1  LIG1       -0.4560
      6 H          -1.0487    1.1804   -0.0001 H       1  LIG1        0.1068
      7 O           1.8881    0.6246   -0.0001 O.3     1  LIG1       -0.4919
      8 C           1.1575   -0.5867   -0.0001 C.3     1  LIG1        0.0789
      9 H           1.8883   -1.3907   -0.0001 H       1  LIG1        0.0660
     10 H           0.5313   -0.6502    0.8947 H       1  LIG1        0.0660
     11 H           0.5313   -0.6502   -0.8949 H       1  LIG1        0.0660
     12 H           2.7182    3.3351   -0.0001 H       1  LIG1        0.0693
     13 C           0.5057    5.3397   -0.0000 C.ar    1  LIG1        0.2121
     14 C          -0.5352    6.2218    0.0000 C.ar    1  LIG1        0.1694
     15 C           0.0406    7.5390    0.0000 C.ar    1  LIG1        0.0300
     16 C           1.3903    7.3425   -0.0000 C.ar    1  LIG1        0.1780
     17 O           1.6784    6.0307   -0.0001 O.2     1  LIG1       -0.4447
     18 O          -1.8365    5.8693    0.0001 O.3     1  LIG1       -0.4912
     19 C          -2.7588    6.9443    0.0001 C.3     1  LIG1        0.0790
     20 H          -3.7468    6.4929    0.0001 H       1  LIG1        0.0660
     21 H          -2.6306    7.5582    0.8949 H       1  LIG1        0.0660
     22 H          -2.6307    7.5582   -0.8948 H       1  LIG1        0.0660
     23 H          -0.4441    8.5003    0.0000 H       1  LIG1        0.0694
     24 C           2.4305    8.3621   -0.0001 C.ar    1  LIG1        0.2121
     25 C           3.7997    8.4932   -0.0000 C.ar    1  LIG1        0.1694
     26 C           4.0811    9.9016   -0.0001 C.ar    1  LIG1        0.0300
     27 C           2.8718   10.5170   -0.0002 C.ar    1  LIG1        0.1780
     28 O           1.8816    9.6137   -0.0002 O.2     1  LIG1       -0.4447
     29 O           4.8185    7.6163    0.0001 O.3     1  LIG1       -0.4912
     30 C           4.5219    6.2285    0.0000 C.3     1  LIG1        0.0790
     31 H           5.4843    5.7236    0.0001 H       1  LIG1        0.0660
     32 H           3.9526    5.9626    0.8917 H       1  LIG1        0.0660
     33 H           3.9526    5.9626   -0.8917 H       1  LIG1        0.0660
     34 H           5.0580   10.3514   -0.0001 H       1  LIG1        0.0694
     35 C           2.4822   11.9108   -0.0003 C.ar    1  LIG1        0.2111
     36 C           1.2662   12.5313   -0.0003 C.ar    1  LIG1        0.1687
     37 C           1.5356   13.9470   -0.0004 C.ar    1  LIG1        0.0187
     38 C           2.8883   14.0527   -0.0006 C.ar    1  LIG1        0.0964
     39 O           3.4655   12.8417   -0.0004 O.2     1  LIG1       -0.4560
     40 H           3.5491   14.9010   -0.0007 H       1  LIG1        0.1031
     41 O           0.0795   11.8881   -0.0001 O.3     1  LIG1       -0.4912
     42 C          -1.0698   12.7167   -0.0001 C.3     1  LIG1        0.0790
     43 H          -1.9240   12.0449   -0.0000 H       1  LIG1        0.0660
     44 H          -1.0924   13.3427    0.8953 H       1  LIG1        0.0660
     45 H          -1.0925   13.3426   -0.8957 H       1  LIG1        0.0660
     46 H           0.8300   14.7592   -0.0004 H       1  LIG1        0.0686
@<TRIPOS>BOND
     1    45    42    1
     2    11     8    1
     3    22    19    1
     4    33    30    1
     5    40    38    1
     6    38    39   ar
     7    38    37   ar
     8    39    35   ar
     9    46    37    1
    10    37    36   ar
    11    35    36   ar
    12    35    27    1
    13    36    41    1
    14    27    28   ar
    15    27    26   ar
    16    28    24   ar
    17    42    41    1
    18    42    43    1
    19    42    44    1
    20    12     3    1
    21     3     2   ar
    22     3     4   ar
    23     7     2    1
    24     7     8    1
    25    26    34    1
    26    26    25   ar
    27     2     1   ar
    28     9     8    1
    29     1     6    1
    30     1     5   ar
    31     8    10    1
    32    17    13   ar
    33    17    16   ar
    34    24    16    1
    35    24    25   ar
    36     4     5   ar
    37     4    13    1
    38    13    14   ar
    39    16    15   ar
    40    25    29    1
    41    15    14   ar
    42    15    23    1
    43    14    18    1
    44    30    31    1
    45    30    29    1
    46    30    32    1
    47    18    19    1
    48    19    20    1
    49    19    21    1
