@<TRIPOS>MOLECULE
mol_data/opt/m06hf/geoms/mol2/12la12la12la-12la.out
 46 49 0 0 0
SMALL
GASTEIGER

@<TRIPOS>ATOM
      1 C          -0.0499    1.6726   -0.0008 C.ar    1  LIG1        0.1342
      2 C           1.2981    1.5085    0.0005 C.ar    1  LIG1        0.1583
      3 C           1.8780    2.8206    0.0008 C.ar    1  LIG1        0.0292
      4 C           0.8255    3.6894   -0.0002 C.ar    1  LIG1        0.1770
      5 O          -0.3314    2.9969   -0.0012 O.2     1  LIG1       -0.4560
      6 H          -0.8869    1.0000   -0.0014 H       1  LIG1        0.1068
      7 O           2.0405    0.3791    0.0013 O.3     1  LIG1       -0.4919
      8 C           1.2841   -0.8169    0.0010 C.3     1  LIG1        0.0789
      9 H           1.9983   -1.6355    0.0019 H       1  LIG1        0.0660
     10 H           0.6567   -0.8662    0.8950 H       1  LIG1        0.0660
     11 H           0.6583   -0.8667   -0.8941 H       1  LIG1        0.0660
     12 H           2.9321    3.0174    0.0018 H       1  LIG1        0.0693
     13 C           0.6264    5.1465   -0.0004 C.ar    1  LIG1        0.2121
     14 C           1.3606    6.3109   -0.0006 C.ar    1  LIG1        0.1694
     15 C           0.4270    7.3962   -0.0006 C.ar    1  LIG1        0.0300
     16 C          -0.8030    6.8199   -0.0005 C.ar    1  LIG1        0.1780
     17 O          -0.6971    5.4862   -0.0004 O.2     1  LIG1       -0.4447
     18 O           2.6800    6.5924   -0.0008 O.3     1  LIG1       -0.4912
     19 C           3.5989    5.5186   -0.0011 C.3     1  LIG1        0.0790
     20 H           4.5882    5.9690   -0.0018 H       1  LIG1        0.0660
     21 H           3.4692    4.9127    0.8978 H       1  LIG1        0.0660
     22 H           3.4680    4.9122   -0.8995 H       1  LIG1        0.0660
     23 H           0.6786    8.4418   -0.0007 H       1  LIG1        0.0694
     24 C          -2.1314    7.3903   -0.0004 C.ar    1  LIG1        0.2121
     25 C          -3.3875    6.8557   -0.0004 C.ar    1  LIG1        0.1694
     26 C          -4.3040    7.9619   -0.0004 C.ar    1  LIG1        0.0300
     27 C          -3.5240    9.0808   -0.0003 C.ar    1  LIG1        0.1780
     28 O          -2.2229    8.7488   -0.0004 O.2     1  LIG1       -0.4447
     29 O          -3.6553    5.5376   -0.0005 O.3     1  LIG1       -0.4912
     30 C          -5.0278    5.1863   -0.0004 C.3     1  LIG1        0.0790
     31 H          -5.0563    4.1005   -0.0004 H       1  LIG1        0.0660
     32 H          -5.5217    5.5711    0.8949 H       1  LIG1        0.0660
     33 H          -5.5219    5.5712   -0.8956 H       1  LIG1        0.0660
     34 H          -5.3793    7.9470   -0.0003 H       1  LIG1        0.0694
     35 C          -3.9557   10.4739   -0.0002 C.ar    1  LIG1        0.2111
     36 C          -3.4317   11.7438    0.0002 C.ar    1  LIG1        0.1687
     37 C          -4.5524   12.6484    0.0001 C.ar    1  LIG1        0.0187
     38 C          -5.6553   11.8715   -0.0004 C.ar    1  LIG1        0.0964
     39 O          -5.3188   10.5722   -0.0006 O.2     1  LIG1       -0.4560
     40 H          -6.7081   12.0930   -0.0007 H       1  LIG1        0.1031
     41 O          -2.1857   12.2470    0.0007 O.3     1  LIG1       -0.4912
     42 C          -1.0776   11.3594    0.0007 C.3     1  LIG1        0.0790
     43 H          -0.1968   11.9960    0.0013 H       1  LIG1        0.0660
     44 H          -1.0953   10.7323    0.8927 H       1  LIG1        0.0660
     45 H          -1.0947   10.7331   -0.8919 H       1  LIG1        0.0660
     46 H          -4.4854   13.7224    0.0003 H       1  LIG1        0.0686
@<TRIPOS>BOND
     1    22    19    1
     2    33    30    1
     3    11     8    1
     4    45    42    1
     5    20    19    1
     6     6     1    1
     7     5     1   ar
     8     5     4   ar
     9    19    18    1
    10    19    21    1
    11    18    14    1
    12     1     2   ar
    13    40    38    1
    14    23    15    1
    15    39    38   ar
    16    39    35   ar
    17    15    14   ar
    18    15    16   ar
    19    14    13   ar
    20    16    24    1
    21    16    17   ar
    22    29    25    1
    23    29    30    1
    24    38    37   ar
    25    24    25   ar
    26    24    28   ar
    27    31    30    1
    28    25    26   ar
    29    13    17   ar
    30    13     4    1
    31    30    32    1
    32    28    27   ar
    33    26    34    1
    34    26    27   ar
    35    27    35    1
    36    35    36   ar
    37     4     3   ar
    38    37    36   ar
    39    37    46    1
    40    36    41    1
    41     2     3   ar
    42     2     7    1
    43    42    41    1
    44    42    43    1
    45    42    44    1
    46     3    12    1
    47     8     7    1
    48     8     9    1
    49     8    10    1
