@<TRIPOS>MOLECULE
mol_data/opt/m06hf/geoms/mol2/12la12la-12la-12la.out
 46 49 0 0 0
SMALL
GASTEIGER

@<TRIPOS>ATOM
      1 C          -0.1789    1.8444   -0.0312 C.ar    1  LIG1        0.1342
      2 C           1.1746    1.7874   -0.1608 C.ar    1  LIG1        0.1583
      3 C           1.6526    3.1415   -0.1687 C.ar    1  LIG1        0.0292
      4 C           0.5366    3.9079   -0.0407 C.ar    1  LIG1        0.1770
      5 O          -0.5660    3.1450    0.0439 O.2     1  LIG1       -0.4560
      6 H          -0.9574    1.1069    0.0226 H       1  LIG1        0.1068
      7 O           1.9918    0.7162   -0.2671 O.3     1  LIG1       -0.4919
      8 C           1.3301   -0.5340   -0.2520 C.3     1  LIG1        0.0789
      9 H           2.0997   -1.2944   -0.3526 H       1  LIG1        0.0660
     10 H           0.7931   -0.6670    0.6913 H       1  LIG1        0.0660
     11 H           0.6288   -0.5993   -1.0885 H       1  LIG1        0.0660
     12 H           2.6714    3.4736   -0.2619 H       1  LIG1        0.0693
     13 C           0.3737    5.3459    0.0117 C.ar    1  LIG1        0.2121
     14 C          -0.7080    6.1760    0.0935 C.ar    1  LIG1        0.1694
     15 C          -0.1979    7.5210    0.0993 C.ar    1  LIG1        0.0300
     16 C           1.1560    7.3861    0.0184 C.ar    1  LIG1        0.1780
     17 O           1.5091    6.0899   -0.0353 O.2     1  LIG1       -0.4447
     18 O          -1.9881    5.7575    0.1582 O.3     1  LIG1       -0.4912
     19 C          -2.9614    6.7796    0.2786 C.3     1  LIG1        0.0790
     20 H          -3.9223    6.2749    0.3240 H       1  LIG1        0.0660
     21 H          -2.8011    7.3554    1.1933 H       1  LIG1        0.0660
     22 H          -2.9313    7.4425   -0.5896 H       1  LIG1        0.0660
     23 H          -0.7310    8.4535    0.1562 H       1  LIG1        0.0694
     24 C           2.2254    8.3561   -0.0185 C.ar    1  LIG1        0.2121
     25 C           2.2386    9.7179   -0.0877 C.ar    1  LIG1        0.1694
     26 C           3.6178   10.1195   -0.0849 C.ar    1  LIG1        0.0300
     27 C           4.3276    8.9545   -0.0142 C.ar    1  LIG1        0.1780
     28 O           3.5012    7.9005    0.0239 O.2     1  LIG1       -0.4447
     29 O           1.1182   10.4702   -0.1418 O.3     1  LIG1       -0.4912
     30 C           1.3205   11.8665   -0.2926 C.3     1  LIG1        0.0790
     31 H           0.3304   12.3101   -0.3502 H       1  LIG1        0.0660
     32 H           1.8584   12.2678    0.5695 H       1  LIG1        0.0660
     33 H           1.8754   12.0726   -1.2104 H       1  LIG1        0.0660
     34 H           4.0360   11.1097   -0.1289 H       1  LIG1        0.0694
     35 C           5.7683    8.7495    0.0214 C.ar    1  LIG1        0.2111
     36 C           6.6689    7.7205    0.1574 C.ar    1  LIG1        0.1687
     37 C           7.9773    8.3221    0.1054 C.ar    1  LIG1        0.0187
     38 C           7.7734    9.6461   -0.0526 C.ar    1  LIG1        0.0964
     39 O           6.4597    9.9205   -0.1046 O.2     1  LIG1       -0.4560
     40 H           8.4412   10.4848   -0.1436 H       1  LIG1        0.1031
     41 O           6.5692    6.3907    0.3194 O.3     1  LIG1       -0.4912
     42 C           5.2915    5.7657    0.3445 C.3     1  LIG1        0.0790
     43 H           5.4945    4.7076    0.4878 H       1  LIG1        0.0660
     44 H           4.6911    6.1510    1.1684 H       1  LIG1        0.0660
     45 H           4.7666    5.9294   -0.5967 H       1  LIG1        0.0660
     46 H           8.9092    7.7901    0.1826 H       1  LIG1        0.0686
@<TRIPOS>BOND
     1    33    30    1
     2    11     8    1
     3    45    42    1
     4    22    19    1
     5     9     8    1
     6    31    30    1
     7    30    29    1
     8    30    32    1
     9     7     8    1
    10     7     2    1
    11    12     3    1
    12     8    10    1
    13     3     2   ar
    14     3     4   ar
    15     2     1   ar
    16    40    38    1
    17    29    25    1
    18    34    26    1
    19    39    38   ar
    20    39    35   ar
    21    25    26   ar
    22    25    24   ar
    23    26    27   ar
    24    38    37   ar
    25     4    13    1
    26     4     5   ar
    27    17    13   ar
    28    17    16   ar
    29     1     6    1
    30     1     5   ar
    31    24    16    1
    32    24    28   ar
    33    27    35    1
    34    27    28   ar
    35    13    14   ar
    36    16    15   ar
    37    35    36   ar
    38    14    15   ar
    39    14    18    1
    40    15    23    1
    41    37    36   ar
    42    37    46    1
    43    36    41    1
    44    18    19    1
    45    19    20    1
    46    19    21    1
    47    41    42    1
    48    42    43    1
    49    42    44    1
