@<TRIPOS>MOLECULE
mol_data/opt/m06hf/geoms/mol2/12la12la-12la.out
 35 37 0 0 0
SMALL
GASTEIGER

@<TRIPOS>ATOM
      1 C          -0.1193    1.7756   -0.0001 C.ar    1  LIG1        0.1342
      2 C           1.2392    1.7027    0.0000 C.ar    1  LIG1        0.1583
      3 C           1.7318    3.0516    0.0000 C.ar    1  LIG1        0.0292
      4 C           0.6178    3.8321   -0.0001 C.ar    1  LIG1        0.1770
      5 O          -0.4963    3.0810   -0.0001 O.2     1  LIG1       -0.4560
      6 H          -0.9065    1.0451   -0.0001 H       1  LIG1        0.1068
      7 O           2.0493    0.6213    0.0001 O.3     1  LIG1       -0.4919
      8 C           1.3740   -0.6219    0.0001 C.3     1  LIG1        0.0789
      9 H           2.1418   -1.3903    0.0002 H       1  LIG1        0.0660
     10 H           0.7520   -0.7136    0.8947 H       1  LIG1        0.0660
     11 H           0.7521   -0.7137   -0.8946 H       1  LIG1        0.0660
     12 H           2.7609    3.3635    0.0001 H       1  LIG1        0.0693
     13 C           0.4504    5.2703   -0.0001 C.ar    1  LIG1        0.2121
     14 C          -0.6409    6.0893   -0.0001 C.ar    1  LIG1        0.1694
     15 C          -0.1428    7.4371   -0.0001 C.ar    1  LIG1        0.0300
     16 C           1.2161    7.3223   -0.0001 C.ar    1  LIG1        0.1780
     17 O           1.5798    6.0291   -0.0001 O.2     1  LIG1       -0.4447
     18 O          -1.9163    5.6565   -0.0001 O.3     1  LIG1       -0.4912
     19 C          -2.9136    6.6632   -0.0001 C.3     1  LIG1        0.0790
     20 H          -3.8654    6.1392   -0.0001 H       1  LIG1        0.0660
     21 H          -2.8322    7.2845    0.8951 H       1  LIG1        0.0660
     22 H          -2.8322    7.2844   -0.8953 H       1  LIG1        0.0660
     23 H          -0.6938    8.3607   -0.0001 H       1  LIG1        0.0694
     24 C           2.2055    8.3956   -0.0001 C.ar    1  LIG1        0.2111
     25 C           3.5669    8.5806   -0.0001 C.ar    1  LIG1        0.1687
     26 C           3.7860   10.0040   -0.0001 C.ar    1  LIG1        0.0187
     27 C           2.5602   10.5675   -0.0002 C.ar    1  LIG1        0.0964
     28 O           1.6058    9.6236   -0.0002 O.2     1  LIG1       -0.4560
     29 H           2.2240   11.5893   -0.0003 H       1  LIG1        0.1031
     30 O           4.6266    7.7532   -0.0000 O.3     1  LIG1       -0.4912
     31 C           4.4038    6.3515   -0.0001 C.3     1  LIG1        0.0790
     32 H           5.3918    5.8992   -0.0002 H       1  LIG1        0.0660
     33 H           3.8498    6.0565    0.8917 H       1  LIG1        0.0660
     34 H           3.8498    6.0567   -0.8920 H       1  LIG1        0.0660
     35 H           4.7481   10.4850   -0.0001 H       1  LIG1        0.0686
@<TRIPOS>BOND
     1    22    19    1
     2    11     8    1
     3    34    31    1
     4    29    27    1
     5    27    28   ar
     6    27    26   ar
     7    28    24   ar
     8    32    31    1
     9    31    30    1
    10    31    33    1
    11    24    16    1
    12    24    25   ar
    13     6     1    1
    14    26    25   ar
    15    26    35    1
    16    16    17   ar
    17    16    15   ar
    18    17    13   ar
    19    23    15    1
    20    15    14   ar
    21    25    30    1
    22     5     1   ar
    23     5     4   ar
    24     1     2   ar
    25    19    20    1
    26    19    18    1
    27    19    21    1
    28    14    13   ar
    29    14    18    1
    30    13     4    1
    31     4     3   ar
    32     3     2   ar
    33     3    12    1
    34     2     7    1
    35     8     7    1
    36     8     9    1
    37     8    10    1
