@<TRIPOS>MOLECULE
mol_data/opt/m06hf/geoms/mol2/12la12la12la12la-.out
 46 49 0 0 0
SMALL
GASTEIGER

@<TRIPOS>ATOM
      1 C          -0.1675    1.7869   -0.0053 C.ar    1  LIG1        0.1342
      2 C           1.1758    1.5856   -0.0008 C.ar    1  LIG1        0.1583
      3 C           1.7904    2.8807    0.0025 C.ar    1  LIG1        0.0292
      4 C           0.7627    3.7787   -0.0003 C.ar    1  LIG1        0.1770
      5 O          -0.4131    3.1190   -0.0050 O.2     1  LIG1       -0.4560
      6 H          -1.0223    1.1375   -0.0090 H       1  LIG1        0.1068
      7 O           1.8902    0.4385    0.0006 O.3     1  LIG1       -0.4919
      8 C           1.1094   -0.7416   -0.0037 C.3     1  LIG1        0.0789
      9 H           1.8062   -1.5752   -0.0020 H       1  LIG1        0.0660
     10 H           0.4780   -0.7798    0.8885 H       1  LIG1        0.0660
     11 H           0.4849   -0.7777   -0.9009 H       1  LIG1        0.0660
     12 H           2.8491    3.0486    0.0065 H       1  LIG1        0.0693
     13 C           0.6151    5.2416    0.0003 C.ar    1  LIG1        0.2121
     14 C           1.3938    6.3736    0.0018 C.ar    1  LIG1        0.1694
     15 C           0.5043    7.4928    0.0016 C.ar    1  LIG1        0.0300
     16 C          -0.7577    6.9797    0.0000 C.ar    1  LIG1        0.1780
     17 O          -0.6880    5.6382   -0.0008 O.2     1  LIG1       -0.4447
     18 O           2.7220    6.6137    0.0030 O.3     1  LIG1       -0.4912
     19 C           3.6058    5.5109    0.0032 C.3     1  LIG1        0.0790
     20 H           4.6086    5.9298    0.0035 H       1  LIG1        0.0660
     21 H           3.4551    4.9098    0.9023 H       1  LIG1        0.0660
     22 H           3.4556    4.9098   -0.8960 H       1  LIG1        0.0660
     23 H           0.8401    8.5114    0.0027 H       1  LIG1        0.0694
     24 C          -2.1299    7.4999   -0.0009 C.ar    1  LIG1        0.2121
     25 C          -2.7950    8.7070   -0.0021 C.ar    1  LIG1        0.1694
     26 C          -4.1954    8.4141   -0.0022 C.ar    1  LIG1        0.0300
     27 C          -4.2835    7.0591   -0.0010 C.ar    1  LIG1        0.1780
     28 O          -3.0665    6.5057   -0.0003 O.2     1  LIG1       -0.4447
     29 O          -2.4057    9.9982   -0.0032 O.3     1  LIG1       -0.4912
     30 C          -1.0238   10.2914   -0.0030 C.3     1  LIG1        0.0790
     31 H          -0.9468   11.3755   -0.0043 H       1  LIG1        0.0660
     32 H          -0.5543    9.8888    0.8972 H       1  LIG1        0.0660
     33 H          -0.5535    9.8865   -0.9016 H       1  LIG1        0.0660
     34 H          -4.9942    9.1340   -0.0030 H       1  LIG1        0.0694
     35 C          -5.4330    6.1787   -0.0004 C.ar    1  LIG1        0.2111
     36 C          -5.5745    4.8213    0.0013 C.ar    1  LIG1        0.1687
     37 C          -6.9924    4.5620    0.0011 C.ar    1  LIG1        0.0187
     38 C          -7.5789    5.7851   -0.0008 C.ar    1  LIG1        0.0964
     39 O          -6.6576    6.7603   -0.0017 O.2     1  LIG1       -0.4560
     40 H          -8.6084    6.0976   -0.0016 H       1  LIG1        0.1031
     41 O          -4.5483    3.9511    0.0030 O.3     1  LIG1       -0.4912
     42 C          -4.8922    2.5791    0.0050 C.3     1  LIG1        0.0790
     43 H          -3.9489    2.0399    0.0064 H       1  LIG1        0.0660
     44 H          -5.4658    2.3268    0.9005 H       1  LIG1        0.0660
     45 H          -5.4648    2.3240   -0.8903 H       1  LIG1        0.0660
     46 H          -7.4932    3.6095    0.0021 H       1  LIG1        0.0686
@<TRIPOS>BOND
     1    33    30    1
     2    11     8    1
     3    22    19    1
     4    45    42    1
     5     6     1    1
     6     1     5   ar
     7     1     2   ar
     8     5     4   ar
     9    31    30    1
    10     8     9    1
    11     8     7    1
    12     8    10    1
    13    29    30    1
    14    29    25    1
    15    34    26    1
    16    30    32    1
    17    26    25   ar
    18    26    27   ar
    19    25    24   ar
    20    39    38   ar
    21    39    35   ar
    22    40    38    1
    23    27    35    1
    24    27    28   ar
    25    24    28   ar
    26    24    16    1
    27     2     7    1
    28     2     3   ar
    29    17    16   ar
    30    17    13   ar
    31    38    37   ar
    32    35    36   ar
    33     4    13    1
    34     4     3   ar
    35    16    15   ar
    36    13    14   ar
    37    37    36   ar
    38    37    46    1
    39    36    41    1
    40    15    14   ar
    41    15    23    1
    42    14    18    1
    43     3    12    1
    44    41    42    1
    45    18    19    1
    46    19    20    1
    47    19    21    1
    48    42    43    1
    49    42    44    1
