@<TRIPOS>MOLECULE
mol_data/opt/m06hf/geoms/mol2/12la6df13fd4hi-.out
 49 52 0 0 0
SMALL
GASTEIGER

@<TRIPOS>ATOM
      1 C           0.1279    1.6808   -0.0594 C.ar    1  LIG1        0.1341
      2 C           1.4754    1.7005   -0.2606 C.ar    1  LIG1        0.1582
      3 C           1.8723    3.0787   -0.2622 C.ar    1  LIG1        0.0261
      4 C           0.7263    3.7828   -0.0594 C.ar    1  LIG1        0.1413
      5 O          -0.3221    2.9514    0.0657 O.2     1  LIG1       -0.4591
      6 H          -0.6058    0.9001    0.0143 H       1  LIG1        0.1068
      7 O           2.3420    0.6840   -0.4466 O.3     1  LIG1       -0.4919
      8 C           1.7477   -0.6014   -0.4928 C.3     1  LIG1        0.0789
      9 H           2.5540   -1.3074   -0.6682 H       1  LIG1        0.0660
     10 H           1.2553   -0.8250    0.4576 H       1  LIG1        0.0660
     11 H           1.0207   -0.6498   -1.3081 H       1  LIG1        0.0660
     12 H           2.8668    3.4566   -0.4274 H       1  LIG1        0.0692
     13 C          -0.7390    5.8255   -0.3115 C.ar    1  LIG1        0.1516
     14 C           0.4817    5.2269    0.0310 C.ar    1  LIG1        0.0567
     15 C           1.4970    6.0747    0.4624 C.ar    1  LIG1       -0.0046
     16 C           1.3006    7.4493    0.5335 C.ar    1  LIG1        0.1450
     17 C           0.0328    7.9479    0.1606 C.ar    1  LIG1        0.1334
     18 N          -0.9384    7.1348   -0.2392 N.ar    1  LIG1       -0.2304
     19 H           2.4544    5.6831    0.7793 H       1  LIG1        0.0663
     20 N          -2.7949    4.4971   -1.1951 N.1     1  LIG1       -0.1893
     21 C          -1.8779    5.0590   -0.7985 C.1     1  LIG1        0.1198
     22 O           2.3152    8.1923    0.9841 O.3     1  LIG1       -0.5045
     23 H           2.1626    9.1580    0.9376 H       1  LIG1        0.2922
     24 C          -0.3541    9.3686    0.2018 C.ar    1  LIG1        0.1123
     25 C           0.2945   10.5605    0.4227 C.ar    1  LIG1        0.1617
     26 C          -0.6571   11.6091    0.3183 C.ar    1  LIG1        0.1190
     27 C          -1.8888   11.0204    0.0297 C.ar    1  LIG1        0.0700
     28 N          -1.6674    9.6929   -0.0391 N.ar    1  LIG1       -0.3488
     29 H          -2.3464    8.9849   -0.2945 H       1  LIG1        0.1661
     30 O           1.6296   10.7164    0.6662 O.3     1  LIG1       -0.5034
     31 H           1.8077   11.5668    1.0901 H       1  LIG1        0.2923
     32 N           0.0672   14.0242    0.8382 N.1     1  LIG1       -0.1907
     33 C          -0.3244   12.9724    0.5905 C.1     1  LIG1        0.1050
     34 C          -3.4408   12.7100   -0.9713 C.ar    1  LIG1        0.0338
     35 C          -4.7476   13.2110   -1.0820 C.ar    1  LIG1       -0.0402
     36 C          -3.2355   11.5989   -0.1370 C.ar    1  LIG1        0.0206
     37 C          -5.7975   12.6159   -0.4056 C.ar    1  LIG1       -0.0571
     38 H          -4.9270   14.0723   -1.7139 H       1  LIG1        0.0636
     39 C          -4.3142   11.0100    0.5341 C.ar    1  LIG1       -0.0479
     40 C          -5.6066   11.4977    0.4152 C.ar    1  LIG1       -0.0497
     41 H          -4.1175   10.1644    1.1848 H       1  LIG1        0.0627
     42 H          -6.7945   13.0278   -0.5162 H       1  LIG1        0.0621
     43 N          -2.3957   13.3133   -1.6439 N.pl3   1  LIG1       -0.3575
     44 H          -1.5748   12.7514   -1.8180 H       1  LIG1        0.1423
     45 H          -2.6435   13.9357   -2.3973 H       1  LIG1        0.1423
     46 C          -6.7694   10.8712    1.1625 C.3     1  LIG1       -0.0397
     47 H          -6.4603    9.9438    1.6436 H       1  LIG1        0.0278
     48 H          -7.5885   10.6486    0.4772 H       1  LIG1        0.0278
     49 H          -7.1403   11.5518    1.9310 H       1  LIG1        0.0278
@<TRIPOS>BOND
     1    45    43    1
     2    44    43    1
     3    38    35    1
     4    43    34    1
     5    11     8    1
     6    20    21    3
     7    35    34   ar
     8    35    37   ar
     9    34    36   ar
    10    21    13    1
    11     9     8    1
    12    42    37    1
    13     8     7    1
    14     8    10    1
    15     7     2    1
    16    12     3    1
    17    37    40   ar
    18    13    18   ar
    19    13    14   ar
    20    29    28    1
    21     3     2   ar
    22     3     4   ar
    23     2     1   ar
    24    18    17   ar
    25    36    27    1
    26    36    39   ar
    27     4    14    1
    28     4     5   ar
    29     1     6    1
    30     1     5   ar
    31    28    27   ar
    32    28    24   ar
    33    27    26   ar
    34    14    15   ar
    35    17    24    1
    36    17    16   ar
    37    24    25   ar
    38    26    25   ar
    39    26    33    1
    40    40    39   ar
    41    40    46    1
    42    25    30    1
    43    15    16   ar
    44    15    19    1
    45    48    46    1
    46    16    22    1
    47    39    41    1
    48    33    32    3
    49    30    31    1
    50    23    22    1
    51    46    47    1
    52    46    49    1
