@<TRIPOS>MOLECULE
mol_data/opt/m06hf/geoms/mol2/12la12la-.out
 24 25 0 0 0
SMALL
GASTEIGER

@<TRIPOS>ATOM
      1 C           0.0924    1.8708    0.0000 C.ar    1  LIG1        0.1342
      2 C           1.4530    1.8413    0.0000 C.ar    1  LIG1        0.1583
      3 C           1.9017    3.2056   -0.0000 C.ar    1  LIG1        0.0292
      4 C           0.7639    3.9483   -0.0000 C.ar    1  LIG1        0.1770
      5 O          -0.3265    3.1634   -0.0000 O.2     1  LIG1       -0.4560
      6 H          -0.6713    1.1163    0.0000 H       1  LIG1        0.1068
      7 O           2.2974    0.7862    0.0000 O.3     1  LIG1       -0.4919
      8 C           1.6622   -0.4773    0.0000 C.3     1  LIG1        0.0789
      9 H           2.4530   -1.2222    0.0001 H       1  LIG1        0.0660
     10 H           1.0427   -0.5886    0.8948 H       1  LIG1        0.0660
     11 H           1.0427   -0.5886   -0.8948 H       1  LIG1        0.0660
     12 H           2.9179    3.5579   -0.0000 H       1  LIG1        0.0693
     13 C           0.5617    5.3845   -0.0001 C.ar    1  LIG1        0.2110
     14 C          -0.5477    6.1780   -0.0001 C.ar    1  LIG1        0.1687
     15 C          -0.0732    7.5396   -0.0002 C.ar    1  LIG1        0.0187
     16 C           1.2801    7.4456   -0.0001 C.ar    1  LIG1        0.0964
     17 O           1.6716    6.1623   -0.0001 O.2     1  LIG1       -0.4560
     18 H           2.0596    8.1862   -0.0002 H       1  LIG1        0.1031
     19 O          -1.8178    5.7219   -0.0001 O.3     1  LIG1       -0.4912
     20 C          -2.8266    6.7151   -0.0001 C.3     1  LIG1        0.0790
     21 H          -3.7727    6.1811   -0.0001 H       1  LIG1        0.0660
     22 H          -2.7529    7.3376    0.8950 H       1  LIG1        0.0660
     23 H          -2.7529    7.3375   -0.8952 H       1  LIG1        0.0660
     24 H          -0.6531    8.4461   -0.0002 H       1  LIG1        0.0686
@<TRIPOS>BOND
     1    23    20    1
     2    11     8    1
     3    24    15    1
     4    18    16    1
     5    15    16   ar
     6    15    14   ar
     7    16    17   ar
     8    17    13   ar
     9    14    13   ar
    10    14    19    1
    11    13     4    1
    12    20    21    1
    13    20    19    1
    14    20    22    1
    15     4     5   ar
    16     4     3   ar
    17     5     1   ar
    18     3    12    1
    19     3     2   ar
    20     1     2   ar
    21     1     6    1
    22     2     7    1
    23     7     8    1
    24     8     9    1
    25     8    10    1
