@<TRIPOS>MOLECULE
mol_data/opt/m06hf/geoms/mol2/12la12la-12la12la.out
 46 49 0 0 0
SMALL
GASTEIGER

@<TRIPOS>ATOM
      1 C          -0.2890    1.7422   -0.0003 C.ar    1  LIG1        0.1342
      2 C           1.0632    1.5893   -0.0003 C.ar    1  LIG1        0.1583
      3 C           1.6341    2.9069   -0.0002 C.ar    1  LIG1        0.0292
      4 C           0.5678    3.7519   -0.0002 C.ar    1  LIG1        0.1770
      5 O          -0.5885    3.0676   -0.0002 O.2     1  LIG1       -0.4560
      6 H          -1.1185    1.0602   -0.0004 H       1  LIG1        0.1068
      7 O           1.8070    0.4609   -0.0004 O.3     1  LIG1       -0.4919
      8 C           1.0547   -0.7373   -0.0005 C.3     1  LIG1        0.0789
      9 H           1.7719   -1.5533   -0.0006 H       1  LIG1        0.0660
     10 H           0.4278   -0.7894    0.8942 H       1  LIG1        0.0660
     11 H           0.4279   -0.7892   -0.8953 H       1  LIG1        0.0660
     12 H           2.6792    3.1597   -0.0002 H       1  LIG1        0.0693
     13 C           0.4868    5.1974   -0.0000 C.ar    1  LIG1        0.2121
     14 C          -0.5531    6.0813    0.0000 C.ar    1  LIG1        0.1694
     15 C           0.0250    7.3967    0.0001 C.ar    1  LIG1        0.0300
     16 C           1.3743    7.1991    0.0001 C.ar    1  LIG1        0.1780
     17 O           1.6604    5.8862    0.0001 O.2     1  LIG1       -0.4447
     18 O          -1.8534    5.7297   -0.0001 O.3     1  LIG1       -0.4912
     19 C          -2.7798    6.8024    0.0001 C.3     1  LIG1        0.0790
     20 H          -3.7653    6.3452   -0.0000 H       1  LIG1        0.0660
     21 H          -2.6553    7.4162    0.8951 H       1  LIG1        0.0660
     22 H          -2.6553    7.4165   -0.8948 H       1  LIG1        0.0660
     23 H          -0.4655    8.3543    0.0002 H       1  LIG1        0.0694
     24 C           2.4244    8.2089    0.0003 C.ar    1  LIG1        0.2121
     25 C           3.7922    8.3181    0.0005 C.ar    1  LIG1        0.1694
     26 C           4.0924    9.7210    0.0005 C.ar    1  LIG1        0.0300
     27 C           2.8980   10.3730    0.0001 C.ar    1  LIG1        0.1780
     28 O           1.9008    9.4680   -0.0000 O.2     1  LIG1       -0.4447
     29 O           4.8072    7.4367    0.0009 O.3     1  LIG1       -0.4912
     30 C           4.5080    6.0485    0.0009 C.3     1  LIG1        0.0790
     31 H           5.4701    5.5431    0.0012 H       1  LIG1        0.0660
     32 H           3.9382    5.7844    0.8927 H       1  LIG1        0.0660
     33 H           3.9387    5.7843   -0.8911 H       1  LIG1        0.0660
     34 H           5.0929   10.1084    0.0007 H       1  LIG1        0.0694
     35 C           2.4159   11.7615   -0.0001 C.ar    1  LIG1        0.2111
     36 C           2.9089   13.0460   -0.0006 C.ar    1  LIG1        0.1687
     37 C           1.7740   13.9268   -0.0006 C.ar    1  LIG1        0.0187
     38 C           0.6883   13.1239   -0.0001 C.ar    1  LIG1        0.0964
     39 O           1.0527   11.8361    0.0002 O.2     1  LIG1       -0.4560
     40 H          -0.3696   13.3204    0.0000 H       1  LIG1        0.1031
     41 O           4.1459   13.5801   -0.0011 O.3     1  LIG1       -0.4912
     42 C           5.2568   12.7057   -0.0011 C.3     1  LIG1        0.0790
     43 H           6.1392   13.3400   -0.0017 H       1  LIG1        0.0660
     44 H           5.2468   12.0867    0.8987 H       1  LIG1        0.0660
     45 H           5.2462   12.0859   -0.9003 H       1  LIG1        0.0660
     46 H           1.8202   15.0015   -0.0010 H       1  LIG1        0.0686
@<TRIPOS>BOND
     1    45    42    1
     2    11     8    1
     3    22    19    1
     4    33    30    1
     5    43    42    1
     6    41    42    1
     7    41    36    1
     8    42    44    1
     9    46    37    1
    10    36    37   ar
    11    36    35   ar
    12    37    38   ar
    13     9     8    1
    14     8     7    1
    15     8    10    1
    16     6     1    1
    17     7     2    1
    18     1     2   ar
    19     1     5   ar
    20     2     3   ar
    21     5     4   ar
    22     3    12    1
    23     3     4   ar
    24     4    13    1
    25    38    40    1
    26    38    39   ar
    27    35    27    1
    28    35    39   ar
    29    18    14    1
    30    18    19    1
    31    13    14   ar
    32    13    17   ar
    33    20    19    1
    34    28    27   ar
    35    28    24   ar
    36    14    15   ar
    37    17    16   ar
    38    19    21    1
    39    15    16   ar
    40    15    23    1
    41    27    26   ar
    42    16    24    1
    43    24    25   ar
    44    26    25   ar
    45    26    34    1
    46    25    29    1
    47    29    30    1
    48    30    31    1
    49    30    32    1
