@<TRIPOS>MOLECULE
mol_data/opt/m06hf/geoms/mol2/12ld6li-4df13fa-13al-13la4ee6ah.out
 100 107 0 0 0
SMALL
GASTEIGER

@<TRIPOS>ATOM
      1 C          -1.5199    1.7326   -0.9167 C.ar    1  LIG1        0.1354
      2 C          -0.9396    1.5039    0.2893 C.ar    1  LIG1        0.1756
      3 C          -0.7450    2.7997    0.8859 C.ar    1  LIG1        0.1391
      4 C          -1.2233    3.7107   -0.0174 C.ar    1  LIG1        0.1609
      5 O          -1.6848    3.0693   -1.0919 O.2     1  LIG1       -0.4577
      6 H          -1.8552    1.0968   -1.7142 H       1  LIG1        0.1068
      7 O          -0.5860    0.3609    0.8977 O.3     1  LIG1       -0.4907
      8 C          -0.8634   -0.8177    0.1588 C.3     1  LIG1        0.0790
      9 H          -0.5260   -1.6488    0.7702 H       1  LIG1        0.0660
     10 H          -1.9372   -0.8988   -0.0279 H       1  LIG1        0.0660
     11 H          -0.3190   -0.8029   -0.7888 H       1  LIG1        0.0660
     12 N           0.2914    3.3172    3.1888 N.1     1  LIG1       -0.1906
     13 C          -0.1772    3.0763    2.1691 C.1     1  LIG1        0.1067
     14 C          -2.3393    5.9263   -0.4756 C.ar    1  LIG1        0.2260
     15 C          -1.2432    5.1789    0.0219 C.ar    1  LIG1        0.0804
     16 C          -0.2066    5.8836    0.5980 C.ar    1  LIG1       -0.0410
     17 C          -0.2198    7.2857    0.6576 C.ar    1  LIG1       -0.0235
     18 C          -1.3071    7.9123    0.0601 C.ar    1  LIG1        0.0791
     19 N          -2.3544    7.2403   -0.4682 N.ar    1  LIG1       -0.2120
     20 H           0.6326    5.3439    1.0227 H       1  LIG1        0.0630
     21 O          -3.3798    5.2352   -0.9423 O.3     1  LIG1       -0.4792
     22 C          -4.5431    5.9500   -1.3550 C.3     1  LIG1        0.0804
     23 H          -5.2685    5.1949   -1.6403 H       1  LIG1        0.0660
     24 H          -4.9305    6.5504   -0.5306 H       1  LIG1        0.0660
     25 H          -4.3069    6.5903   -2.2056 H       1  LIG1        0.0660
     26 C           0.8930    7.9990    1.4034 C.3     1  LIG1       -0.0377
     27 H           0.6066    9.0206    1.6497 H       1  LIG1        0.0278
     28 H           1.8025    8.0255    0.8029 H       1  LIG1        0.0278
     29 H           1.0922    7.4606    2.3307 H       1  LIG1        0.0278
     30 C          -0.4696   10.2652   -0.5068 C.ar    1  LIG1        0.0618
     31 C          -0.6824   11.6434   -0.5568 C.ar    1  LIG1       -0.0310
     32 C          -1.4491    9.3994   -0.0047 C.ar    1  LIG1        0.0216
     33 C          -1.9023   12.2053   -0.1678 C.ar    1  LIG1        0.0445
     34 H           0.0974   12.2909   -0.9334 H       1  LIG1        0.0638
     35 C          -2.6557    9.9576    0.3970 C.ar    1  LIG1       -0.0091
     36 C          -2.9079   11.3164    0.2610 C.ar    1  LIG1        0.1268
     37 H          -3.4251    9.3100    0.8004 H       1  LIG1        0.0661
     38 N           1.7628    9.3676   -1.4835 N.1     1  LIG1       -0.1908
     39 C           0.7729    9.7508   -1.0460 C.1     1  LIG1        0.0998
     40 O          -4.1604   11.7878    0.5563 O.3     1  LIG1       -0.5061
     41 H          -4.8055   11.0797    0.4025 H       1  LIG1        0.2922
     42 C          -2.1086   13.6550   -0.2430 C.ar    1  LIG1        0.0925
     43 C          -1.2440   14.6923   -0.5615 C.ar    1  LIG1        0.1428
     44 C          -1.9516   15.9179   -0.4772 C.ar    1  LIG1        0.0072
     45 C          -3.2430   15.5945   -0.1006 C.ar    1  LIG1        0.0670
     46 N          -3.3128   14.2464    0.0321 N.ar    1  LIG1       -0.3500
     47 H          -4.1001   13.7265    0.3928 H       1  LIG1        0.1661
     48 O           0.0599   14.5056   -0.9175 O.3     1  LIG1       -0.5046
     49 H           0.4980   15.3548   -1.0278 H       1  LIG1        0.2922
     50 H          -1.5825   16.9036   -0.7075 H       1  LIG1        0.0676
     51 C          -4.4987   16.3315    0.0808 C.ar    1  LIG1        0.0670
     52 C          -4.8963   17.4585    0.7730 C.ar    1  LIG1        0.0075
     53 C          -6.3248   17.4899    0.7162 C.ar    1  LIG1        0.1474
     54 C          -6.7584   16.3988   -0.0143 C.ar    1  LIG1        0.1092
     55 N          -5.6201   15.7225   -0.3867 N.ar    1  LIG1       -0.3488
     56 H          -5.6161   14.9791   -1.0705 H       1  LIG1        0.1661
     57 H          -4.2437   18.1233    1.3119 H       1  LIG1        0.0676
     58 O          -7.1695   18.3786    1.2999 O.3     1  LIG1       -0.4929
     59 C          -6.5616   19.3533    2.1274 C.3     1  LIG1        0.0789
     60 H          -7.3704   19.9614    2.5226 H       1  LIG1        0.0660
     61 H          -6.0207   18.8735    2.9467 H       1  LIG1        0.0660
     62 H          -5.8779   19.9773    1.5467 H       1  LIG1        0.0660
     63 C          -8.0144   15.6838   -0.2816 C.ar    1  LIG1        0.1091
     64 C          -9.2627   15.8951   -0.8474 C.ar    1  LIG1        0.1474
     65 C          -9.9169   14.6330   -0.9676 C.ar    1  LIG1        0.0061
     66 C          -9.0485   13.6758   -0.4913 C.ar    1  LIG1        0.0517
     67 N          -7.9174   14.3198   -0.0875 N.ar    1  LIG1       -0.3499
     68 H          -7.2217   13.9117    0.5191 H       1  LIG1        0.1661
     69 O          -9.8417   17.0287   -1.2977 O.3     1  LIG1       -0.4929
     70 C          -9.0033   18.1717   -1.3829 C.3     1  LIG1        0.0789
     71 H          -9.6164   18.9581   -1.8159 H       1  LIG1        0.0660
     72 H          -8.6525   18.4648   -0.3920 H       1  LIG1        0.0660
     73 H          -8.1485   17.9639   -2.0320 H       1  LIG1        0.0660
     74 H         -10.8783   14.4702   -1.4219 H       1  LIG1        0.0676
     75 C         -10.1456   11.3835   -0.2840 C.ar    1  LIG1        0.0344
     76 C         -10.0025    9.9913   -0.2875 C.ar    1  LIG1       -0.0368
     77 C          -9.0243   12.2020   -0.4981 C.ar    1  LIG1        0.0150
     78 C          -8.7697    9.3759   -0.4914 C.ar    1  LIG1        0.0002
     79 H         -10.8817    9.3795   -0.1333 H       1  LIG1        0.0636
     80 C          -7.7940   11.5818   -0.7301 C.ar    1  LIG1       -0.0355
     81 C          -7.6502   10.1968   -0.7168 C.ar    1  LIG1        0.0331
     82 H          -6.9242   12.1871   -0.9513 H       1  LIG1        0.0637
     83 C         -11.4495   11.9514   -0.0443 C.1     1  LIG1       -0.0690
     84 C         -12.5446   12.4004    0.1626 C.1     1  LIG1       -0.1139
     85 H         -13.5101   12.8110    0.3497 H       1  LIG1        0.1232
     86 C          -6.3272    9.6523   -0.9351 C.1     1  LIG1       -0.0690
     87 C          -5.2179    9.2256   -1.1413 C.1     1  LIG1       -0.1139
     88 H          -4.2461    8.8006   -1.3112 H       1  LIG1        0.1232
     89 C          -8.0300    7.1920   -1.4935 C.ar    1  LIG1        0.0354
     90 C          -8.6537    7.8905   -0.4561 C.ar    1  LIG1        0.0032
     91 C          -9.1701    7.1689    0.6157 C.ar    1  LIG1       -0.0304
     92 C          -9.0476    5.7780    0.6295 C.ar    1  LIG1        0.0435
     93 C          -8.3869    5.1834   -0.4557 C.ar    1  LIG1        0.0482
     94 N          -7.9010    5.8689   -1.4820 N.ar    1  LIG1       -0.2608
     95 H          -9.6399    7.6856    1.4454 H       1  LIG1        0.0643
     96 H          -8.2531    4.1069   -0.4797 H       1  LIG1        0.0848
     97 H          -7.6349    7.7188   -2.3530 H       1  LIG1        0.0836
     98 N          -9.4966    5.0143    1.6976 N.pl3   1  LIG1       -0.3568
     99 H         -10.2328    5.4211    2.2550 H       1  LIG1        0.1424
    100 H          -9.6380    4.0326    1.5101 H       1  LIG1        0.1424
@<TRIPOS>BOND
     1    97    89    1
     2    25    22    1
     3    73    70    1
     4    71    70    1
     5     6     1    1
     6    23    22    1
     7    89    94   ar
     8    89    90   ar
     9    38    39    3
    10    94    93   ar
    11    74    65    1
    12    70    69    1
    13    70    72    1
    14    22    21    1
    15    22    24    1
    16    88    87    1
    17    69    64    1
    18    87    86    3
    19     5     1   ar
    20     5     4   ar
    21    56    55    1
    22    39    30    1
    23    49    48    1
    24    65    64   ar
    25    65    66   ar
    26    82    80    1
    27    21    14    1
    28    86    81    1
    29    34    31    1
    30    48    43    1
    31     1     2   ar
    32    64    63   ar
    33    11     8    1
    34    80    81   ar
    35    80    77   ar
    36    81    78   ar
    37    50    44    1
    38    43    44   ar
    39    43    42   ar
    40    31    30   ar
    41    31    33   ar
    42    30    32   ar
    43    77    66    1
    44    77    75   ar
    45    78    90    1
    46    78    76   ar
    47    66    67   ar
    48    96    93    1
    49    44    45   ar
    50    14    19   ar
    51    14    15   ar
    52    19    18   ar
    53    90    91   ar
    54    93    92   ar
    55    55    54   ar
    56    55    51   ar
    57    76    75   ar
    58    76    79    1
    59    75    83    1
    60    63    67   ar
    61    63    54    1
    62    42    33    1
    63    42    46   ar
    64    33    36   ar
    65    45    46   ar
    66    45    51    1
    67    67    68    1
    68    83    84    3
    69    10     8    1
    70     4    15    1
    71     4     3   ar
    72    54    53   ar
    73    32    18    1
    74    32    35   ar
    75    15    16   ar
    76    46    47    1
    77    18    17   ar
    78    51    52   ar
    79     8     9    1
    80     8     7    1
    81    84    85    1
    82    36    35   ar
    83    36    40    1
    84     2     3   ar
    85     2     7    1
    86    35    37    1
    87    41    40    1
    88    16    17   ar
    89    16    20    1
    90    91    92   ar
    91    91    95    1
    92    92    98    1
    93    17    26    1
    94    53    52   ar
    95    53    58    1
    96    52    57    1
    97    28    26    1
    98     3    13    1
    99    58    59    1
   100    26    27    1
   101    26    29    1
   102   100    98    1
   103    62    59    1
   104    98    99    1
   105    59    60    1
   106    59    61    1
   107    13    12    3
