@<TRIPOS>MOLECULE
mol_data/opt/m06hf/geoms/mol2/12ld12ei6fe-4ia12fa-4dh13fl13lh.out
 99 106 0 0 0
SMALL
GASTEIGER

@<TRIPOS>ATOM
      1 C           1.2396    1.9394    0.9024 C.ar    1  LIG1        0.1356
      2 C           2.4394    1.9405    0.2653 C.ar    1  LIG1        0.1757
      3 C           2.6182    3.2717   -0.2605 C.ar    1  LIG1        0.1420
      4 C           1.5066    3.9699    0.1180 C.ar    1  LIG1        0.1919
      5 O           0.6812    3.1760    0.8099 O.2     1  LIG1       -0.4547
      6 H           0.6776    1.1936    1.4326 H       1  LIG1        0.1068
      7 O           3.3438    0.9693    0.0835 O.3     1  LIG1       -0.4907
      8 C           2.9908   -0.2929    0.6288 C.3     1  LIG1        0.0790
      9 H           3.8135   -0.9631    0.3998 H       1  LIG1        0.0660
     10 H           2.8615   -0.2103    1.7109 H       1  LIG1        0.0660
     11 H           2.0695   -0.6550    0.1661 H       1  LIG1        0.0660
     12 N           4.5920    4.0147   -1.7418 N.1     1  LIG1       -0.1906
     13 C           3.7116    3.7006   -1.0766 C.1     1  LIG1        0.1068
     14 C           1.0728    5.3432   -0.0660 C.ar    1  LIG1        0.1875
     15 C           1.7230    6.5351   -0.1960 C.ar    1  LIG1        0.0770
     16 C           0.6994    7.5548   -0.2764 C.ar    1  LIG1        0.0116
     17 C          -0.4840    6.8890   -0.1926 C.ar    1  LIG1        0.1451
     18 O          -0.2609    5.5503   -0.0683 O.2     1  LIG1       -0.4500
     19 C           3.1339    6.7586   -0.1759 C.1     1  LIG1       -0.0655
     20 C           4.3186    6.9547   -0.1553 C.1     1  LIG1       -0.1138
     21 H           5.3746    7.1019   -0.1528 H       1  LIG1        0.1232
     22 C           0.9600    9.0348   -0.3652 C.3     1  LIG1       -0.0349
     23 H           0.1377    9.5915    0.0836 H       1  LIG1        0.0279
     24 H           1.0788    9.3445   -1.4049 H       1  LIG1        0.0279
     25 H           1.8824    9.2641    0.1671 H       1  LIG1        0.0279
     26 C          -2.8800    6.6639    0.5673 C.ar    1  LIG1        0.2239
     27 C          -1.8833    7.3307   -0.1860 C.ar    1  LIG1        0.0800
     28 C          -2.2795    8.4438   -0.9137 C.ar    1  LIG1       -0.0285
     29 C          -3.5950    8.9042   -0.8394 C.ar    1  LIG1        0.0515
     30 C          -4.4854    8.2076   -0.0048 C.ar    1  LIG1        0.0904
     31 N          -4.1211    7.1054    0.6477 N.ar    1  LIG1       -0.2112
     32 H          -1.5740    8.9469   -1.5620 H       1  LIG1        0.0639
     33 O          -2.6358    5.5460    1.2615 O.3     1  LIG1       -0.4919
     34 H          -1.7613    5.1856    1.0655 H       1  LIG1        0.2938
     35 C          -4.0158   10.0190   -1.6485 C.1     1  LIG1       -0.0675
     36 C          -4.3408   10.9403   -2.3486 C.1     1  LIG1       -0.1138
     37 H          -4.6454   11.7506   -2.9697 H       1  LIG1        0.1232
     38 C          -6.2662    9.8647    0.7080 C.ar    1  LIG1       -0.0406
     39 C          -7.6197   10.1720    0.8340 C.ar    1  LIG1       -0.0474
     40 C          -5.9119    8.6265    0.1555 C.ar    1  LIG1        0.0046
     41 C          -8.6086    9.2731    0.4240 C.ar    1  LIG1        0.0212
     42 H          -7.9149   11.1179    1.2698 H       1  LIG1        0.0627
     43 C          -6.8973    7.7137   -0.2236 C.ar    1  LIG1       -0.0516
     44 C          -8.2408    8.0316   -0.1028 C.ar    1  LIG1       -0.0503
     45 H          -6.5936    6.7495   -0.6102 H       1  LIG1        0.0624
     46 C          -5.2282   10.8525    1.2118 C.3     1  LIG1       -0.0391
     47 H          -5.6775   11.5031    1.9614 H       1  LIG1        0.0278
     48 H          -4.8546   11.4642    0.3895 H       1  LIG1        0.0278
     49 H          -4.3854   10.3285    1.6639 H       1  LIG1        0.0278
     50 H          -9.0031    7.3267   -0.4045 H       1  LIG1        0.0625
     51 C         -10.0236    9.6186    0.5686 C.ar    1  LIG1        0.1768
     52 C         -10.6790   10.7239    1.0297 C.ar    1  LIG1        0.1632
     53 C         -12.0813   10.4648    0.9316 C.ar    1  LIG1        0.0265
     54 C         -12.1848    9.2071    0.4111 C.ar    1  LIG1        0.1406
     55 O         -10.9524    8.7019    0.1928 O.2     1  LIG1       -0.4510
     56 O         -10.0794   11.8505    1.4958 O.3     1  LIG1       -0.5032
     57 H         -10.7466   12.4900    1.7639 H       1  LIG1        0.2923
     58 H         -12.8848   11.1237    1.2139 H       1  LIG1        0.0692
     59 C         -14.6543    8.7048    0.1756 C.ar    1  LIG1        0.0631
     60 C         -15.6754    7.8079   -0.1293 C.ar    1  LIG1       -0.0327
     61 C         -13.3070    8.3223    0.0719 C.ar    1  LIG1        0.0365
     62 C         -15.3932    6.5144   -0.5622 C.ar    1  LIG1        0.0239
     63 H         -16.7074    8.1161   -0.0242 H       1  LIG1        0.0638
     64 C         -13.0291    7.0367   -0.3908 C.ar    1  LIG1       -0.0285
     65 C         -14.0427    6.1432   -0.7257 C.ar    1  LIG1        0.0346
     66 H         -11.9952    6.7367   -0.5028 H       1  LIG1        0.0643
     67 N         -15.3585   11.0757    0.9599 N.1     1  LIG1       -0.1908
     68 C         -15.0379   10.0282    0.6140 C.1     1  LIG1        0.0999
     69 N         -13.7278    4.8551   -1.1996 N.pl3   1  LIG1       -0.3574
     70 H         -14.2950    4.5975   -2.0028 H       1  LIG1        0.1423
     71 H         -12.7428    4.7442   -1.4074 H       1  LIG1        0.1423
     72 C         -16.4973    5.5809   -0.8068 C.ar    1  LIG1        0.0946
     73 C         -17.8272    5.8341   -1.0653 C.ar    1  LIG1        0.1851
     74 C         -18.5136    4.5964   -1.1039 C.ar    1  LIG1        0.1889
     75 C         -17.5891    3.5964   -0.8581 C.ar    1  LIG1        0.1130
     76 N         -16.3777    4.2082   -0.6998 N.ar    1  LIG1       -0.3470
     77 H         -15.5411    3.7732   -0.3358 H       1  LIG1        0.1662
     78 O         -18.4086    7.0470   -1.2541 O.3     1  LIG1       -0.5019
     79 H         -19.3550    6.8933   -1.3815 H       1  LIG1        0.2924
     80 O         -19.8567    4.5269   -1.3314 O.3     1  LIG1       -0.4895
     81 C         -20.2252    3.8109   -2.5133 C.3     1  LIG1        0.0791
     82 H         -21.3062    3.8975   -2.5921 H       1  LIG1        0.0660
     83 H         -19.7413    4.2631   -3.3813 H       1  LIG1        0.0660
     84 H         -19.9439    2.7635   -2.4162 H       1  LIG1        0.0660
     85 C         -17.7482    2.1518   -0.7712 C.ar    1  LIG1        0.1107
     86 C         -18.8568    1.3900   -0.4594 C.ar    1  LIG1        0.1673
     87 C         -18.4769    0.0178   -0.4755 C.ar    1  LIG1        0.0851
     88 C         -17.1431   -0.0170   -0.8032 C.ar    1  LIG1        0.0267
     89 N         -16.7156    1.2767   -0.9757 N.ar    1  LIG1       -0.3548
     90 H         -15.8129    1.5390   -1.3338 H       1  LIG1        0.1655
     91 H         -16.4752   -0.8520   -0.9176 H       1  LIG1        0.0827
     92 O         -20.1270    1.8135   -0.1924 O.3     1  LIG1       -0.4911
     93 C         -20.2667    2.5019    1.0521 C.3     1  LIG1        0.0790
     94 H         -21.3267    2.7173    1.1630 H       1  LIG1        0.0660
     95 H         -19.9186    1.8632    1.8661 H       1  LIG1        0.0660
     96 H         -19.7009    3.4338    1.0297 H       1  LIG1        0.0660
     97 N         -19.3452   -1.0415   -0.1452 N.pl3   1  LIG1       -0.3540
     98 H         -20.2940   -0.6888   -0.0726 H       1  LIG1        0.1425
     99 H         -19.3153   -1.7958   -0.8208 H       1  LIG1        0.1425
@<TRIPOS>BOND
     1    83    81    1
     2    37    36    1
     3    82    81    1
     4    81    84    1
     5    81    80    1
     6    36    35    3
     7    70    69    1
     8    12    13    3
     9    35    29    1
    10    32    28    1
    11    71    69    1
    12    24    22    1
    13    79    78    1
    14    90    89    1
    15    80    74    1
    16    78    73    1
    17    69    65    1
    18    74    73   ar
    19    74    75   ar
    20    13     3    1
    21    73    72   ar
    22    89    88   ar
    23    89    85   ar
    24    91    88    1
    25    28    29   ar
    26    28    27   ar
    27    75    85    1
    28    75    76   ar
    29    29    30   ar
    30    99    97    1
    31    72    76   ar
    32    72    62    1
    33    88    87   ar
    34    85    86   ar
    35    65    62   ar
    36    65    64   ar
    37    76    77    1
    38    45    43    1
    39    62    60   ar
    40    66    64    1
    41    87    86   ar
    42    87    97    1
    43    86    92    1
    44    50    44    1
    45    64    61   ar
    46    22    16    1
    47    22    23    1
    48    22    25    1
    49    16    15   ar
    50    16    17   ar
    51     3     4   ar
    52     3     2   ar
    53    43    44   ar
    54    43    40   ar
    55    15    19    1
    56    15    14   ar
    57    17    27    1
    58    17    18   ar
    59    92    93    1
    60    27    26   ar
    61    19    20    3
    62    20    21    1
    63    97    98    1
    64    60    63    1
    65    60    59   ar
    66    44    41   ar
    67    18    14   ar
    68    14     4    1
    69    30    40    1
    70    30    31   ar
    71    61    59   ar
    72    61    54    1
    73     7     2    1
    74     7     8    1
    75     4     5   ar
    76    40    38   ar
    77    11     8    1
    78    59    68    1
    79    55    54   ar
    80    55    51   ar
    81     2     1   ar
    82    48    46    1
    83     9     8    1
    84    54    53   ar
    85    41    51    1
    86    41    39   ar
    87    26    31   ar
    88    26    33    1
    89    51    52   ar
    90    68    67    3
    91     8    10    1
    92    38    39   ar
    93    38    46    1
    94     5     1   ar
    95    39    42    1
    96     1     6    1
    97    53    52   ar
    98    53    58    1
    99    52    56    1
   100    96    93    1
   101    93    94    1
   102    93    95    1
   103    34    33    1
   104    46    49    1
   105    46    47    1
   106    56    57    1
