@<TRIPOS>MOLECULE
mol_data/opt/m06hf/geoms/mol2/12le12le-12le-12le-.out
 54 57 0 0 0
SMALL
GASTEIGER

@<TRIPOS>ATOM
      1 C          -0.1206    2.0245    0.1497 C.ar    1  LIG1        0.1355
      2 C           1.2352    1.9510    0.1972 C.ar    1  LIG1        0.1737
      3 C           1.7318    3.2979    0.0419 C.ar    1  LIG1        0.1152
      4 C           0.6116    4.0700   -0.0884 C.ar    1  LIG1        0.1924
      5 O          -0.4977    3.3215   -0.0209 O.2     1  LIG1       -0.4547
      6 H          -0.9092    1.2985    0.2155 H       1  LIG1        0.1068
      7 O           2.0503    0.8930    0.3504 O.3     1  LIG1       -0.4907
      8 C           1.3910   -0.3568    0.4491 C.3     1  LIG1        0.0790
      9 H           2.1698   -1.1059    0.5599 H       1  LIG1        0.0660
     10 H           0.7333   -0.3682    1.3225 H       1  LIG1        0.0660
     11 H           0.8106   -0.5478   -0.4573 H       1  LIG1        0.0660
     12 C           3.0928    3.7296    0.0254 C.1     1  LIG1       -0.0621
     13 C           4.2234    4.1331    0.0090 C.1     1  LIG1       -0.1137
     14 H           5.2154    4.5197   -0.0108 H       1  LIG1        0.1232
     15 C           0.4619    5.4983   -0.2681 C.ar    1  LIG1        0.2146
     16 C          -0.6148    6.3111   -0.4576 C.ar    1  LIG1        0.1849
     17 C          -0.1004    7.6565   -0.5647 C.ar    1  LIG1        0.1159
     18 C           1.2603    7.5289   -0.4434 C.ar    1  LIG1        0.1934
     19 O           1.5898    6.2404   -0.2658 O.2     1  LIG1       -0.4434
     20 O          -1.9104    5.9441   -0.5495 O.3     1  LIG1       -0.4901
     21 C          -2.6536    6.1742    0.6499 C.3     1  LIG1        0.0790
     22 H          -3.6684    5.8469    0.4417 H       1  LIG1        0.0660
     23 H          -2.2256    5.5886    1.4651 H       1  LIG1        0.0660
     24 H          -2.6431    7.2368    0.8986 H       1  LIG1        0.0660
     25 C          -0.9038    8.8158   -0.7922 C.1     1  LIG1       -0.0620
     26 C          -1.6292    9.7554   -0.9804 C.1     1  LIG1       -0.1137
     27 H          -2.2563   10.5936   -1.1787 H       1  LIG1        0.1232
     28 C           2.3746    8.4574   -0.4424 C.ar    1  LIG1        0.2146
     29 C           2.4719    9.8172   -0.4522 C.ar    1  LIG1        0.1849
     30 C           3.8795   10.1284   -0.4176 C.ar    1  LIG1        0.1159
     31 C           4.5154    8.9163   -0.3927 C.ar    1  LIG1        0.1934
     32 O           3.6172    7.9189   -0.4076 O.2     1  LIG1       -0.4434
     33 O           1.4684   10.7163   -0.4991 O.3     1  LIG1       -0.4901
     34 C           1.0782   11.2092    0.7857 C.3     1  LIG1        0.0790
     35 H           0.2653   11.9069    0.6025 H       1  LIG1        0.0660
     36 H           0.7287   10.3832    1.4072 H       1  LIG1        0.0660
     37 H           1.9190   11.7172    1.2606 H       1  LIG1        0.0660
     38 C           4.4208   11.4491   -0.4668 C.1     1  LIG1       -0.0620
     39 C           4.8073   12.5859   -0.5183 C.1     1  LIG1       -0.1137
     40 H           5.1502   13.5933   -0.5679 H       1  LIG1        0.1232
     41 C           5.9156    8.5375   -0.3517 C.ar    1  LIG1        0.2136
     42 C           7.0217    9.1662    0.1341 C.ar    1  LIG1        0.1842
     43 C           8.1334    8.2725   -0.1120 C.ar    1  LIG1        0.1047
     44 C           7.5864    7.1794   -0.7106 C.ar    1  LIG1        0.1118
     45 O           6.2637    7.3249   -0.8533 O.2     1  LIG1       -0.4547
     46 H           8.0220    6.2632   -1.0686 H       1  LIG1        0.1043
     47 O           7.0495   10.3545    0.7667 O.3     1  LIG1       -0.4901
     48 C           7.8300   11.3569    0.1078 C.3     1  LIG1        0.0790
     49 H           7.7450   12.2487    0.7233 H       1  LIG1        0.0660
     50 H           8.8708   11.0392    0.0428 H       1  LIG1        0.0660
     51 H           7.4194   11.5439   -0.8847 H       1  LIG1        0.0660
     52 C           9.5066    8.4666    0.2451 C.1     1  LIG1       -0.0628
     53 C          10.6577    8.6346    0.5463 C.1     1  LIG1       -0.1137
     54 H          11.6777    8.7775    0.8207 H       1  LIG1        0.1232
@<TRIPOS>BOND
     1    27    26    1
     2    46    44    1
     3    26    25    3
     4    51    48    1
     5    45    44   ar
     6    45    41   ar
     7    25    17    1
     8    44    43   ar
     9    40    39    1
    10    17    16   ar
    11    17    18   ar
    12    20    16    1
    13    20    21    1
    14    39    38    3
    15    33    29    1
    16    33    34    1
    17    38    30    1
    18    16    15   ar
    19    11     8    1
    20    29    28   ar
    21    29    30   ar
    22    18    28    1
    23    18    19   ar
    24    28    32   ar
    25    30    31   ar
    26    32    31   ar
    27    31    41    1
    28    41    42   ar
    29    15    19   ar
    30    15     4    1
    31    43    42   ar
    32    43    52    1
    33     4     5   ar
    34     4     3   ar
    35     5     1   ar
    36    14    13    1
    37    13    12    3
    38    12     3    1
    39     3     2   ar
    40    50    48    1
    41    48    49    1
    42    48    47    1
    43    42    47    1
    44     1     2   ar
    45     1     6    1
    46     2     7    1
    47    52    53    3
    48     7     8    1
    49    22    21    1
    50     8     9    1
    51     8    10    1
    52    53    54    1
    53    35    34    1
    54    21    24    1
    55    21    23    1
    56    34    37    1
    57    34    36    1
