@<TRIPOS>MOLECULE
mol_data/opt/m06hf/geoms/mol2/12le12le12le12le.out
 54 57 0 0 0
SMALL
GASTEIGER

@<TRIPOS>ATOM
      1 C           4.3478    2.3522    1.6483 C.ar    1  LIG1        0.1355
      2 C           5.1257    2.3031    0.5356 C.ar    1  LIG1        0.1737
      3 C           4.5975    1.2412   -0.2863 C.ar    1  LIG1        0.1152
      4 C           3.5499    0.7246    0.4230 C.ar    1  LIG1        0.1924
      5 O           3.3940    1.3871    1.5792 O.2     1  LIG1       -0.4547
      6 H           4.3416    2.9752    2.5234 H       1  LIG1        0.1068
      7 O           6.1824    3.0486    0.1696 O.3     1  LIG1       -0.4907
      8 C           6.5545    4.0515    1.0994 C.3     1  LIG1        0.0790
      9 H           7.4182    4.5560    0.6769 H       1  LIG1        0.0660
     10 H           5.7342    4.7610    1.2359 H       1  LIG1        0.0660
     11 H           6.8175    3.5961    2.0581 H       1  LIG1        0.0660
     12 C           5.0441    0.8333   -1.5803 C.1     1  LIG1       -0.0621
     13 C           5.4098    0.4637   -2.6634 C.1     1  LIG1       -0.1137
     14 H           5.7240    0.1407   -3.6288 H       1  LIG1        0.1232
     15 C           2.6277   -0.3549    0.1092 C.ar    1  LIG1        0.2146
     16 C           2.7895   -1.5879   -0.4562 C.ar    1  LIG1        0.1849
     17 C           1.4621   -2.1284   -0.6254 C.ar    1  LIG1        0.1159
     18 C           0.6149   -1.1869   -0.1117 C.ar    1  LIG1        0.1934
     19 O           1.3037   -0.1255    0.3302 O.2     1  LIG1       -0.4434
     20 O           3.8876   -2.2723   -0.8049 O.3     1  LIG1       -0.4901
     21 C           5.0498   -2.1126    0.0081 C.3     1  LIG1        0.0790
     22 H           5.6502   -3.0027   -0.1629 H       1  LIG1        0.0660
     23 H           5.6034   -1.2242   -0.2896 H       1  LIG1        0.0660
     24 H           4.7589   -2.0474    1.0587 H       1  LIG1        0.0660
     25 C           1.1033   -3.3785   -1.2143 C.1     1  LIG1       -0.0620
     26 C           0.7763   -4.4311   -1.6915 C.1     1  LIG1       -0.1137
     27 H           0.4830   -5.3587   -2.1252 H       1  LIG1        0.1232
     28 C          -0.8333   -1.1646    0.0069 C.ar    1  LIG1        0.2146
     29 C          -1.7654   -2.1169    0.3113 C.ar    1  LIG1        0.1849
     30 C          -3.0506   -1.4850    0.1398 C.ar    1  LIG1        0.1159
     31 C          -2.7831   -0.1939   -0.2213 C.ar    1  LIG1        0.1934
     32 O          -1.4588    0.0031   -0.3000 O.2     1  LIG1       -0.4434
     33 O          -1.6375   -3.3908    0.7113 O.3     1  LIG1       -0.4901
     34 C          -0.5922   -3.6815    1.6397 C.3     1  LIG1        0.0790
     35 H          -0.8556   -4.6373    2.0846 H       1  LIG1        0.0660
     36 H           0.3652   -3.7602    1.1277 H       1  LIG1        0.0660
     37 H          -0.5538   -2.9041    2.4055 H       1  LIG1        0.0660
     38 C          -4.3371   -2.0843    0.3069 C.1     1  LIG1       -0.0620
     39 C          -5.4288   -2.5632    0.4568 C.1     1  LIG1       -0.1137
     40 H          -6.3977   -2.9895    0.5799 H       1  LIG1        0.1232
     41 C          -3.6634    0.9211   -0.5380 C.ar    1  LIG1        0.2136
     42 C          -4.7748    1.4531    0.0516 C.ar    1  LIG1        0.1842
     43 C          -5.2438    2.4914   -0.8387 C.ar    1  LIG1        0.1047
     44 C          -4.3651    2.5015   -1.8766 C.ar    1  LIG1        0.1118
     45 O          -3.4181    1.5767   -1.7087 O.2     1  LIG1       -0.4547
     46 H          -4.3084    3.1083   -2.7633 H       1  LIG1        0.1043
     47 O          -5.3793    1.1970    1.2187 O.3     1  LIG1       -0.4901
     48 C          -4.5796    0.6710    2.2753 C.3     1  LIG1        0.0790
     49 H          -5.1313    0.8740    3.1891 H       1  LIG1        0.0660
     50 H          -4.4415   -0.4021    2.1507 H       1  LIG1        0.0660
     51 H          -3.6130    1.1796    2.2955 H       1  LIG1        0.0660
     52 C          -6.3765    3.3410   -0.6379 C.1     1  LIG1       -0.0628
     53 C          -7.3261    4.0553   -0.4679 C.1     1  LIG1       -0.1137
     54 H          -8.1708    4.6849   -0.3122 H       1  LIG1        0.1232
@<TRIPOS>BOND
     1    14    13    1
     2    46    44    1
     3    13    12    3
     4    27    26    1
     5    44    45   ar
     6    44    43   ar
     7    45    41   ar
     8    26    25    3
     9    12     3    1
    10    25    17    1
    11    43    52    1
    12    43    42   ar
    13    20    16    1
    14    20    21    1
    15    52    53    3
    16    17    16   ar
    17    17    18   ar
    18    41    31    1
    19    41    42   ar
    20    53    54    1
    21    16    15   ar
    22    32    31   ar
    23    32    28   ar
    24    23    21    1
    25     3     4   ar
    26     3     2   ar
    27    31    30   ar
    28    22    21    1
    29    18    28    1
    30    18    19   ar
    31    28    29   ar
    32    21    24    1
    33    42    47    1
    34    15    19   ar
    35    15     4    1
    36    30    38    1
    37    30    29   ar
    38     7     2    1
    39     7     8    1
    40    38    39    3
    41    29    33    1
    42     4     5   ar
    43    39    40    1
    44     2     1   ar
    45     9     8    1
    46    33    34    1
    47     8    10    1
    48     8    11    1
    49    36    34    1
    50    47    48    1
    51     5     1   ar
    52    34    35    1
    53    34    37    1
    54     1     6    1
    55    50    48    1
    56    48    51    1
    57    48    49    1
