@<TRIPOS>MOLECULE
mol_data/opt/m06hf/geoms/mol2/12le12le-12le12le.out
 54 57 0 0 0
SMALL
GASTEIGER

@<TRIPOS>ATOM
      1 C          -0.0281    1.7937    0.6554 C.ar    1  LIG1        0.1355
      2 C           1.1686    1.7737    0.0132 C.ar    1  LIG1        0.1737
      3 C           1.5446    3.1501   -0.2103 C.ar    1  LIG1        0.1152
      4 C           0.5263    3.8832    0.3341 C.ar    1  LIG1        0.1924
      5 O          -0.4166    3.0838    0.8498 O.2     1  LIG1       -0.4547
      6 H          -0.6885    1.0315    1.0233 H       1  LIG1        0.1068
      7 O           1.9334    0.7416   -0.3819 O.3     1  LIG1       -0.4907
      8 C           1.3978   -0.5389   -0.0978 C.3     1  LIG1        0.0790
      9 H           2.1181   -1.2614   -0.4692 H       1  LIG1        0.0660
     10 H           1.2656   -0.6609    0.9807 H       1  LIG1        0.0660
     11 H           0.4391   -0.6671   -0.6075 H       1  LIG1        0.0660
     12 C           2.6943    3.6364   -0.9035 C.1     1  LIG1       -0.0621
     13 C           3.6358    4.0760   -1.5061 C.1     1  LIG1       -0.1137
     14 H           4.4501    4.4966   -2.0501 H       1  LIG1        0.1232
     15 C           0.3271    5.3142    0.4188 C.ar    1  LIG1        0.2146
     16 C          -0.7225    6.0915    0.8078 C.ar    1  LIG1        0.1849
     17 C          -0.3065    7.4629    0.6275 C.ar    1  LIG1        0.1159
     18 C           0.9773    7.3869    0.1572 C.ar    1  LIG1        0.1934
     19 O           1.3560    6.1045    0.0339 O.2     1  LIG1       -0.4434
     20 O          -1.9188    5.6780    1.2765 O.3     1  LIG1       -0.4901
     21 C          -2.9498    5.6889    0.2852 C.3     1  LIG1        0.0790
     22 H          -3.8616    5.3943    0.7971 H       1  LIG1        0.0660
     23 H          -3.0581    6.6913   -0.1319 H       1  LIG1        0.0660
     24 H          -2.7077    4.9736   -0.5027 H       1  LIG1        0.0660
     25 C          -1.0881    8.6231    0.9155 C.1     1  LIG1       -0.0620
     26 C          -1.7678    9.5825    1.1594 C.1     1  LIG1       -0.1137
     27 H          -2.3616   10.4389    1.3805 H       1  LIG1        0.1232
     28 C           1.9718    8.3769   -0.1890 C.ar    1  LIG1        0.2146
     29 C           3.2888    8.2530   -0.5310 C.ar    1  LIG1        0.1849
     30 C           3.7667    9.5922   -0.7622 C.ar    1  LIG1        0.1159
     31 C           2.6935   10.4105   -0.5308 C.ar    1  LIG1        0.1934
     32 O           1.6172    9.6812   -0.1862 O.2     1  LIG1       -0.4434
     33 O           4.0271    7.1300   -0.6532 O.3     1  LIG1       -0.4901
     34 C           4.4541    6.5787    0.5983 C.3     1  LIG1        0.0790
     35 H           5.1029    5.7426    0.3531 H       1  LIG1        0.0660
     36 H           5.0011    7.3356    1.1639 H       1  LIG1        0.0660
     37 H           3.5904    6.2216    1.1594 H       1  LIG1        0.0660
     38 C           5.0754    9.9812   -1.1811 C.1     1  LIG1       -0.0620
     39 C           6.1746   10.3290   -1.5176 C.1     1  LIG1       -0.1137
     40 H           7.1449   10.6390   -1.8296 H       1  LIG1        0.1232
     41 C           2.5472   11.8515   -0.6200 C.ar    1  LIG1        0.2136
     42 C           3.3812   12.8960   -0.3396 C.ar    1  LIG1        0.1842
     43 C           2.6798   14.0895   -0.7542 C.ar    1  LIG1        0.1047
     44 C           1.4835   13.6572   -1.2358 C.ar    1  LIG1        0.1118
     45 O           1.3909   12.3264   -1.1567 O.2     1  LIG1       -0.4547
     46 H           0.6385   14.1865   -1.6398 H       1  LIG1        0.1043
     47 O           4.5979   12.9266    0.2288 O.3     1  LIG1       -0.4901
     48 C           4.7839   12.1107    1.3857 C.3     1  LIG1        0.0790
     49 H           5.6740   12.4957    1.8761 H       1  LIG1        0.0660
     50 H           3.9181   12.2029    2.0435 H       1  LIG1        0.0660
     51 H           4.9370   11.0703    1.1023 H       1  LIG1        0.0660
     52 C           3.1479   15.4367   -0.6436 C.1     1  LIG1       -0.0628
     53 C           3.5403   16.5670   -0.5456 C.1     1  LIG1       -0.1137
     54 H           3.8957   17.5672   -0.4555 H       1  LIG1        0.1232
@<TRIPOS>BOND
     1    14    13    1
     2    40    39    1
     3    46    44    1
     4    39    38    3
     5    13    12    3
     6    44    45   ar
     7    44    43   ar
     8    38    30    1
     9    45    41   ar
    10    12     3    1
    11    30    29   ar
    12    30    31   ar
    13    43    52    1
    14    43    42   ar
    15    33    29    1
    16    33    34    1
    17    52    53    3
    18    41    31    1
    19    41    42   ar
    20    11     8    1
    21    53    54    1
    22    29    28   ar
    23    31    32   ar
    24    24    21    1
    25     9     8    1
    26     7     8    1
    27     7     2    1
    28    42    47    1
    29     3     2   ar
    30     3     4   ar
    31    28    32   ar
    32    28    18    1
    33    23    21    1
    34     8    10    1
    35     2     1   ar
    36    19    18   ar
    37    19    15   ar
    38    18    17   ar
    39    47    48    1
    40    21    22    1
    41    21    20    1
    42     4    15    1
    43     4     5   ar
    44    35    34    1
    45    15    16   ar
    46    34    37    1
    47    34    36    1
    48    17    16   ar
    49    17    25    1
    50     1     5   ar
    51     1     6    1
    52    16    20    1
    53    25    26    3
    54    51    48    1
    55    26    27    1
    56    48    49    1
    57    48    50    1
