@<TRIPOS>MOLECULE
mol_data/opt/m06hf/geoms/mol2/12le12le.out
 28 29 0 0 0
SMALL
GASTEIGER

@<TRIPOS>ATOM
      1 C           0.0466    1.8481    0.0004 C.ar    1  LIG1        0.1355
      2 C           1.3875    1.6802    0.0000 C.ar    1  LIG1        0.1737
      3 C           1.9819    3.0010   -0.0004 C.ar    1  LIG1        0.1152
      4 C           0.9205    3.8834   -0.0001 C.ar    1  LIG1        0.1924
      5 O          -0.2242    3.1728    0.0003 O.2     1  LIG1       -0.4547
      6 H          -0.7958    1.1823    0.0008 H       1  LIG1        0.1068
      7 O           2.1333    0.5614   -0.0001 O.3     1  LIG1       -0.4907
      8 C           1.3837   -0.6407    0.0002 C.3     1  LIG1        0.0790
      9 H           2.1038   -1.4535    0.0000 H       1  LIG1        0.0660
     10 H           0.7586   -0.6933    0.8957 H       1  LIG1        0.0660
     11 H           0.7580   -0.6935   -0.8948 H       1  LIG1        0.0660
     12 C           3.4081    3.1023   -0.0010 C.1     1  LIG1       -0.0621
     13 C           4.6097    3.0581   -0.0015 C.1     1  LIG1       -0.1137
     14 H           5.6746    3.0180   -0.0019 H       1  LIG1        0.1232
     15 C           0.6234    5.3330   -0.0002 C.ar    1  LIG1        0.2136
     16 C           1.2220    6.5747    0.0001 C.ar    1  LIG1        0.1842
     17 C           0.1583    7.5527   -0.0003 C.ar    1  LIG1        0.1047
     18 C          -0.9937    6.8387   -0.0009 C.ar    1  LIG1        0.1118
     19 O          -0.7346    5.5361   -0.0008 O.2     1  LIG1       -0.4547
     20 H          -2.0273    7.1370   -0.0013 H       1  LIG1        0.1043
     21 O           2.4800    7.0202    0.0008 O.3     1  LIG1       -0.4901
     22 C           3.5096    6.0516    0.0010 C.3     1  LIG1        0.0790
     23 H           4.4479    6.6007    0.0016 H       1  LIG1        0.0660
     24 H           3.4393    5.4328    0.8958 H       1  LIG1        0.0660
     25 H           3.4401    5.4333   -0.8943 H       1  LIG1        0.0660
     26 C           0.3237    8.9735   -0.0001 C.1     1  LIG1       -0.0628
     27 C           0.4638   10.1661    0.0001 C.1     1  LIG1       -0.1137
     28 H           0.5961   11.2234   -0.0005 H       1  LIG1        0.1232
@<TRIPOS>BOND
     1    11     8    1
     2    25    22    1
     3    14    13    1
     4    13    12    3
     5    20    18    1
     6    12     3    1
     7    18    19   ar
     8    18    17   ar
     9    19    15   ar
    10    28    27    1
    11     3     4   ar
    12     3     2   ar
    13    17    26    1
    14    17    16   ar
    15    15     4    1
    16    15    16   ar
    17     4     5   ar
    18     7     2    1
    19     7     8    1
    20    26    27    3
    21     2     1   ar
    22     9     8    1
    23    16    21    1
    24     8    10    1
    25     5     1   ar
    26     1     6    1
    27    21    22    1
    28    22    23    1
    29    22    24    1
