@<TRIPOS>MOLECULE
mol_data/opt/m06hf/geoms/mol2/12le13ia12eh-4il-.out
 54 57 0 0 0
SMALL
GASTEIGER

@<TRIPOS>ATOM
      1 C           0.4461    1.9748    1.3396 C.ar    1  LIG1        0.1354
      2 C           1.6175    1.8182    0.6755 C.ar    1  LIG1        0.1736
      3 C           1.9406    3.0997    0.0881 C.ar    1  LIG1        0.1134
      4 C           0.9322    3.9389    0.4739 C.ar    1  LIG1        0.1701
      5 O           0.0323    3.2672    1.2187 O.2     1  LIG1       -0.4564
      6 H          -0.1812    1.3167    1.9113 H       1  LIG1        0.1068
      7 O           2.3983    0.7353    0.5188 O.3     1  LIG1       -0.4907
      8 C           1.9347   -0.4324    1.1731 C.3     1  LIG1        0.0790
      9 H           2.6668   -1.2088    0.9722 H       1  LIG1        0.0660
     10 H           1.8603   -0.2549    2.2496 H       1  LIG1        0.0660
     11 H           0.9587   -0.7250    0.7764 H       1  LIG1        0.0660
     12 C           3.0392    3.3563   -0.7877 C.1     1  LIG1       -0.0621
     13 C           3.9642    3.5373   -1.5326 C.1     1  LIG1       -0.1137
     14 H           4.7807    3.6933   -2.1984 H       1  LIG1        0.1232
     15 C           0.6445    5.3432    0.2275 C.ar    1  LIG1        0.0869
     16 C           1.4745    6.4448    0.0785 C.ar    1  LIG1       -0.0214
     17 C           0.6234    7.5625   -0.1074 C.ar    1  LIG1       -0.0297
     18 C          -0.6819    7.1076   -0.0543 C.ar    1  LIG1        0.0842
     19 N          -0.6517    5.7636    0.1507 N.ar    1  LIG1       -0.3491
     20 H          -1.4650    5.1732    0.2483 H       1  LIG1        0.1661
     21 C           2.9804    6.4741    0.1600 C.3     1  LIG1       -0.0376
     22 H           3.2983    7.4187    0.6015 H       1  LIG1        0.0278
     23 H           3.4284    6.3762   -0.8292 H       1  LIG1        0.0278
     24 H           3.3448    5.6531    0.7773 H       1  LIG1        0.0278
     25 H           0.9232    8.5874   -0.2488 H       1  LIG1        0.0643
     26 C          -1.9476    7.8049   -0.1684 C.ar    1  LIG1        0.1689
     27 C          -2.2747    9.1202   -0.3475 C.ar    1  LIG1        0.0931
     28 C          -3.7196    9.1695   -0.3709 C.ar    1  LIG1        0.0873
     29 C          -4.1500    7.8917   -0.1877 C.ar    1  LIG1        0.1579
     30 O          -3.0616    7.0628   -0.0828 O.2     1  LIG1       -0.4502
     31 C          -1.4020   10.2365   -0.5215 C.1     1  LIG1       -0.0639
     32 C          -0.7004   11.2002   -0.6846 C.1     1  LIG1       -0.1137
     33 H          -0.0704   12.0478   -0.8263 H       1  LIG1        0.1232
     34 N          -4.4735   10.3285   -0.5562 N.pl3   1  LIG1       -0.3541
     35 H          -3.9186   11.0857   -0.9372 H       1  LIG1        0.1425
     36 H          -5.3118   10.1707   -1.1037 H       1  LIG1        0.1425
     37 C          -6.5157    7.7826    0.6329 C.ar    1  LIG1       -0.0395
     38 C          -7.7669    7.1827    0.5320 C.ar    1  LIG1       -0.0547
     39 C          -5.4911    7.2813   -0.1933 C.ar    1  LIG1        0.0255
     40 C          -8.0167    6.1085   -0.3224 C.ar    1  LIG1       -0.0197
     41 H          -8.5746    7.5481    1.1547 H       1  LIG1        0.0622
     42 C          -5.7191    6.2000   -1.0390 C.ar    1  LIG1       -0.0090
     43 C          -6.9790    5.6053   -1.1046 C.ar    1  LIG1        0.1208
     44 H          -4.9290    5.8141   -1.6696 H       1  LIG1        0.0661
     45 H          -9.0067    5.6759   -0.3560 H       1  LIG1        0.0654
     46 C          -6.2561    8.8806    1.6486 C.3     1  LIG1       -0.0390
     47 H          -7.1491    9.0410    2.2524 H       1  LIG1        0.0278
     48 H          -5.9700    9.8188    1.1698 H       1  LIG1        0.0278
     49 H          -5.4357    8.5848    2.3055 H       1  LIG1        0.0278
     50 O          -7.1013    4.5592   -1.9641 O.3     1  LIG1       -0.4951
     51 C          -8.3748    3.9614   -2.0988 C.3     1  LIG1        0.0788
     52 H          -8.2578    3.1735   -2.8378 H       1  LIG1        0.0660
     53 H          -8.7037    3.5311   -1.1493 H       1  LIG1        0.0660
     54 H          -9.1103    4.6902   -2.4493 H       1  LIG1        0.0660
@<TRIPOS>BOND
     1    52    51    1
     2    54    51    1
     3    14    13    1
     4    51    50    1
     5    51    53    1
     6    50    43    1
     7    44    42    1
     8    13    12    3
     9    43    42   ar
    10    43    40   ar
    11    36    34    1
    12    42    39   ar
    13    35    34    1
    14    23    21    1
    15    33    32    1
    16    12     3    1
    17    32    31    3
    18    34    28    1
    19    31    27    1
    20    28    27   ar
    21    28    29   ar
    22    45    40    1
    23    27    26   ar
    24    40    38   ar
    25    25    17    1
    26    39    29    1
    27    39    37   ar
    28    29    30   ar
    29    26    30   ar
    30    26    18    1
    31    17    18   ar
    32    17    16   ar
    33    18    19   ar
    34    16    21    1
    35    16    15   ar
    36     3     4   ar
    37     3     2   ar
    38    19    15   ar
    39    19    20    1
    40    21    22    1
    41    21    24    1
    42    15     4    1
    43     4     5   ar
    44     7     2    1
    45     7     8    1
    46    38    37   ar
    47    38    41    1
    48    37    46    1
    49     2     1   ar
    50    11     8    1
    51     9     8    1
    52    48    46    1
    53     8    10    1
    54     5     1   ar
    55     1     6    1
    56    46    47    1
    57    46    49    1
