@<TRIPOS>MOLECULE
mol_data/opt/m06hf/geoms/mol2/12le12le-12le.out
 41 43 0 0 0
SMALL
GASTEIGER

@<TRIPOS>ATOM
      1 C          -0.0365    1.7252   -0.0317 C.ar    1  LIG1        0.1355
      2 C           1.2959    1.6696   -0.2866 C.ar    1  LIG1        0.1737
      3 C           1.7634    3.0339   -0.3660 C.ar    1  LIG1        0.1152
      4 C           0.6492    3.7996   -0.1491 C.ar    1  LIG1        0.1924
      5 O          -0.4243    3.0268    0.0533 O.2     1  LIG1       -0.4547
      6 H          -0.8007    0.9844    0.1086 H       1  LIG1        0.1068
      7 O           2.1124    0.6144   -0.4534 O.3     1  LIG1       -0.4907
      8 C           1.4809   -0.6475   -0.3304 C.3     1  LIG1        0.0790
      9 H           2.2541   -1.3944   -0.4825 H       1  LIG1        0.0660
     10 H           1.0456   -0.7548    0.6669 H       1  LIG1        0.0660
     11 H           0.7017   -0.7542   -1.0901 H       1  LIG1        0.0660
     12 C           3.1051    3.4530   -0.6172 C.1     1  LIG1       -0.0621
     13 C           4.2404    3.7844   -0.8291 C.1     1  LIG1       -0.1137
     14 H           5.2451    4.0786   -1.0257 H       1  LIG1        0.1232
     15 C           0.4665    5.2330   -0.1026 C.ar    1  LIG1        0.2146
     16 C          -0.6300    6.0227    0.1038 C.ar    1  LIG1        0.1849
     17 C          -0.1500    7.3881    0.0564 C.ar    1  LIG1        0.1159
     18 C           1.1977    7.2897   -0.1837 C.ar    1  LIG1        0.1934
     19 O           1.5621    6.0076   -0.2910 O.2     1  LIG1       -0.4434
     20 O          -1.8622    5.5365    0.3149 O.3     1  LIG1       -0.4901
     21 C          -2.9434    6.4601    0.3627 C.3     1  LIG1        0.0790
     22 H          -3.8385    5.8493    0.4406 H       1  LIG1        0.0660
     23 H          -2.8522    7.1109    1.2326 H       1  LIG1        0.0660
     24 H          -2.9732    7.0603   -0.5479 H       1  LIG1        0.0660
     25 C          -0.8397    8.6269    0.2631 C.1     1  LIG1       -0.0620
     26 C          -1.3888    9.6815    0.4381 C.1     1  LIG1       -0.1137
     27 H          -1.8694   10.6204    0.5915 H       1  LIG1        0.1232
     28 C           2.2058    8.3234   -0.3638 C.ar    1  LIG1        0.2136
     29 C           3.4978    8.5060    0.0501 C.ar    1  LIG1        0.1842
     30 C           3.9333    9.7539   -0.5349 C.ar    1  LIG1        0.1047
     31 C           2.8653   10.2201   -1.2348 C.ar    1  LIG1        0.1118
     32 O           1.8326    9.3824   -1.1407 O.2     1  LIG1       -0.4547
     33 H           2.7259   11.1122   -1.8195 H       1  LIG1        0.1043
     34 O           4.3059    7.8037    0.8486 O.3     1  LIG1       -0.4901
     35 C           3.7394    6.7467    1.6199 C.3     1  LIG1        0.0790
     36 H           4.4938    6.4920    2.3592 H       1  LIG1        0.0660
     37 H           2.8311    7.0962    2.1177 H       1  LIG1        0.0660
     38 H           3.5207    5.8880    0.9863 H       1  LIG1        0.0660
     39 C           5.2188   10.3616   -0.3772 C.1     1  LIG1       -0.0628
     40 C           6.2995   10.8673   -0.2423 C.1     1  LIG1       -0.1137
     41 H           7.2603   11.3105   -0.1172 H       1  LIG1        0.1232
@<TRIPOS>BOND
     1    33    31    1
     2    31    32   ar
     3    31    30   ar
     4    32    28   ar
     5    11     8    1
     6    14    13    1
     7    13    12    3
     8    12     3    1
     9    24    21    1
    10    30    39    1
    11    30    29   ar
    12     9     8    1
    13     7     8    1
    14     7     2    1
    15    39    40    3
    16     3     2   ar
    17     3     4   ar
    18    28    18    1
    19    28    29   ar
    20     8    10    1
    21    19    18   ar
    22    19    15   ar
    23     2     1   ar
    24    40    41    1
    25    18    17   ar
    26     4    15    1
    27     4     5   ar
    28    15    16   ar
    29     1     5   ar
    30     1     6    1
    31    29    34    1
    32    17    16   ar
    33    17    25    1
    34    16    20    1
    35    25    26    3
    36    20    21    1
    37    21    22    1
    38    21    23    1
    39    26    27    1
    40    34    35    1
    41    38    35    1
    42    35    37    1
    43    35    36    1
