@<TRIPOS>MOLECULE
mol_data/opt/m06hf/geoms/mol2/12le12le12le-12le-.out
 54 57 0 0 0
SMALL
GASTEIGER

@<TRIPOS>ATOM
      1 C           0.2052    1.6873   -0.7337 C.ar    1  LIG1        0.1355
      2 C           1.4437    1.6299   -0.1799 C.ar    1  LIG1        0.1737
      3 C           1.7750    2.9729    0.2352 C.ar    1  LIG1        0.1152
      4 C           0.6950    3.7328   -0.1254 C.ar    1  LIG1        0.1924
      5 O          -0.2446    2.9695   -0.7020 O.2     1  LIG1       -0.4547
      6 H          -0.4519    0.9557   -1.1654 H       1  LIG1        0.1068
      7 O           2.2731    0.5873    0.0025 O.3     1  LIG1       -0.4907
      8 C           1.7753   -0.6525   -0.4671 C.3     1  LIG1        0.0790
      9 H           2.5431   -1.3911   -0.2573 H       1  LIG1        0.0660
     10 H           0.8519   -0.9112    0.0584 H       1  LIG1        0.0660
     11 H           1.5878   -0.5999   -1.5431 H       1  LIG1        0.0660
     12 C           2.9573    3.3953    0.9137 C.1     1  LIG1       -0.0621
     13 C           3.9491    3.7648    1.4813 C.1     1  LIG1       -0.1137
     14 H           4.8207    4.1008    1.9928 H       1  LIG1        0.1232
     15 C           0.4245    5.1536   -0.0090 C.ar    1  LIG1        0.2146
     16 C           1.2241    6.2585    0.0522 C.ar    1  LIG1        0.1849
     17 C           0.3446    7.3936    0.1760 C.ar    1  LIG1        0.1159
     18 C          -0.9214    6.8686    0.1751 C.ar    1  LIG1        0.1934
     19 O          -0.8769    5.5340    0.0613 O.2     1  LIG1       -0.4434
     20 O           2.5676    6.3527   -0.0067 O.3     1  LIG1       -0.4901
     21 C           3.1418    5.9160   -1.2406 C.3     1  LIG1        0.0790
     22 H           4.2083    6.1043   -1.1536 H       1  LIG1        0.0660
     23 H           2.9652    4.8502   -1.3886 H       1  LIG1        0.0660
     24 H           2.7179    6.4926   -2.0648 H       1  LIG1        0.0660
     25 C           0.7536    8.7595    0.2609 C.1     1  LIG1       -0.0620
     26 C           1.1202    9.9012    0.3288 C.1     1  LIG1       -0.1137
     27 H           1.4445   10.9137    0.3943 H       1  LIG1        0.1232
     28 C          -2.2243    7.4870    0.2538 C.ar    1  LIG1        0.2146
     29 C          -3.4863    6.9638    0.3115 C.ar    1  LIG1        0.1849
     30 C          -4.3841    8.0984    0.3850 C.ar    1  LIG1        0.1159
     31 C          -3.5671    9.2007    0.3487 C.ar    1  LIG1        0.1934
     32 O          -2.2842    8.8396    0.2705 O.2     1  LIG1       -0.4434
     33 O          -3.7346    5.6469    0.2918 O.3     1  LIG1       -0.4901
     34 C          -5.0644    5.2048    0.5321 C.3     1  LIG1        0.0790
     35 H          -5.0049    4.1201    0.5439 H       1  LIG1        0.0660
     36 H          -5.4227    5.5745    1.4936 H       1  LIG1        0.0660
     37 H          -5.7285    5.5386   -0.2653 H       1  LIG1        0.0660
     38 C          -5.8080    8.1323    0.5318 C.1     1  LIG1       -0.0620
     39 C          -7.0012    8.1497    0.6769 C.1     1  LIG1       -0.1137
     40 H          -8.0590    8.1589    0.8050 H       1  LIG1        0.1232
     41 C          -3.8579   10.6228    0.3571 C.ar    1  LIG1        0.2136
     42 C          -4.8609   11.3530   -0.2042 C.ar    1  LIG1        0.1842
     43 C          -4.5745   12.7365    0.1131 C.ar    1  LIG1        0.1047
     44 C          -3.4128   12.7037    0.8236 C.ar    1  LIG1        0.1118
     45 O          -2.9756   11.4509    0.9710 O.2     1  LIG1       -0.4547
     46 H          -2.8187   13.4874    1.2592 H       1  LIG1        0.1043
     47 O          -5.8595   10.8613   -0.9610 O.3     1  LIG1       -0.4901
     48 C          -7.1746   11.2181   -0.5294 C.3     1  LIG1        0.0790
     49 H          -7.8542   10.6453   -1.1551 H       1  LIG1        0.0660
     50 H          -7.3044   10.9428    0.5182 H       1  LIG1        0.0660
     51 H          -7.3400   12.2860   -0.6668 H       1  LIG1        0.0660
     52 C          -5.2997   13.9067   -0.2806 C.1     1  LIG1       -0.0628
     53 C          -5.9018   14.8918   -0.6127 C.1     1  LIG1       -0.1137
     54 H          -6.4263   15.7686   -0.9144 H       1  LIG1        0.1232
@<TRIPOS>BOND
     1    24    21    1
     2    11     8    1
     3    23    21    1
     4    21    22    1
     5    21    20    1
     6     6     1    1
     7    49    48    1
     8    47    48    1
     9    47    42    1
    10    54    53    1
    11     1     5   ar
    12     1     2   ar
    13     5     4   ar
    14    51    48    1
    15    53    52    3
    16    48    50    1
    17     8     9    1
    18     8     7    1
    19     8    10    1
    20    52    43    1
    21    37    34    1
    22    42    43   ar
    23    42    41   ar
    24     2     7    1
    25     2     3   ar
    26     4    15    1
    27     4     3   ar
    28    15    16   ar
    29    15    19   ar
    30    20    16    1
    31    16    17   ar
    32    19    18   ar
    33    43    44   ar
    34    18    17   ar
    35    18    28    1
    36    17    25    1
    37     3    12    1
    38    28    32   ar
    39    28    29   ar
    40    25    26    3
    41    32    31   ar
    42    33    29    1
    43    33    34    1
    44    29    30   ar
    45    26    27    1
    46    31    41    1
    47    31    30   ar
    48    41    45   ar
    49    30    38    1
    50    38    39    3
    51    34    35    1
    52    34    36    1
    53    39    40    1
    54    44    45   ar
    55    44    46    1
    56    12    13    3
    57    13    14    1
