@<TRIPOS>MOLECULE
mol_data/opt/m06hf/geoms/mol2/12le12le-.out
 28 29 0 0 0
SMALL
GASTEIGER

@<TRIPOS>ATOM
      1 C           0.0840    1.8593    0.0000 C.ar    1  LIG1        0.1355
      2 C           1.4408    1.8256    0.0000 C.ar    1  LIG1        0.1737
      3 C           1.8937    3.1974   -0.0000 C.ar    1  LIG1        0.1152
      4 C           0.7480    3.9457   -0.0000 C.ar    1  LIG1        0.1924
      5 O          -0.3328    3.1547    0.0000 O.2     1  LIG1       -0.4547
      6 H          -0.6812    1.1062    0.0001 H       1  LIG1        0.1068
      7 O           2.2930    0.7853   -0.0000 O.3     1  LIG1       -0.4907
      8 C           1.6758   -0.4893    0.0000 C.3     1  LIG1        0.0790
      9 H           2.4799   -1.2192   -0.0000 H       1  LIG1        0.0660
     10 H           1.0594   -0.6095    0.8955 H       1  LIG1        0.0660
     11 H           1.0594   -0.6095   -0.8954 H       1  LIG1        0.0660
     12 C           3.2551    3.6278   -0.0001 C.1     1  LIG1       -0.0621
     13 C           4.4088    3.9613   -0.0001 C.1     1  LIG1       -0.1137
     14 H           5.4326    4.2546   -0.0001 H       1  LIG1        0.1232
     15 C           0.5305    5.3769   -0.0000 C.ar    1  LIG1        0.2136
     16 C          -0.6051    6.1366   -0.0000 C.ar    1  LIG1        0.1842
     17 C          -0.1557    7.5169   -0.0001 C.ar    1  LIG1        0.1047
     18 C           1.2069    7.4449   -0.0001 C.ar    1  LIG1        0.1118
     19 O           1.6220    6.1813   -0.0001 O.2     1  LIG1       -0.4547
     20 H           1.9565    8.2160   -0.0002 H       1  LIG1        0.1043
     21 O          -1.8442    5.6206   -0.0000 O.3     1  LIG1       -0.4901
     22 C          -2.9385    6.5276   -0.0000 C.3     1  LIG1        0.0790
     23 H          -3.8280    5.9039   -0.0000 H       1  LIG1        0.0660
     24 H          -2.9166    7.1536    0.8925 H       1  LIG1        0.0660
     25 H          -2.9166    7.1536   -0.8926 H       1  LIG1        0.0660
     26 C          -0.8903    8.7489   -0.0001 C.1     1  LIG1       -0.0628
     27 C          -1.4724    9.8000   -0.0003 C.1     1  LIG1       -0.1137
     28 H          -1.9891   10.7321   -0.0004 H       1  LIG1        0.1232
@<TRIPOS>BOND
     1    11     8    1
     2    25    22    1
     3    28    27    1
     4    27    26    3
     5    20    18    1
     6    18    17   ar
     7    18    19   ar
     8    26    17    1
     9    14    13    1
    10    17    16   ar
    11    19    15   ar
    12    13    12    3
    13    12     3    1
    14    16    15   ar
    15    16    21    1
    16    15     4    1
    17    22    23    1
    18    22    21    1
    19    22    24    1
    20     3     4   ar
    21     3     2   ar
    22     4     5   ar
    23     7     2    1
    24     7     8    1
    25     9     8    1
    26     2     1   ar
    27     8    10    1
    28     5     1   ar
    29     1     6    1
