@<TRIPOS>MOLECULE
mol_data/opt/m06hf/geoms/mol2/12le12le12le12le-.out
 54 57 0 0 0
SMALL
GASTEIGER

@<TRIPOS>ATOM
      1 C           0.7968    1.8833   -1.8254 C.ar    1  LIG1        0.1355
      2 C           1.7869    1.6724   -0.9191 C.ar    1  LIG1        0.1737
      3 C           1.9035    2.8877   -0.1496 C.ar    1  LIG1        0.1152
      4 C           0.9764    3.7400   -0.6815 C.ar    1  LIG1        0.1924
      5 O           0.3101    3.1437   -1.6812 O.2     1  LIG1       -0.4547
      6 H           0.3467    1.2767   -2.5891 H       1  LIG1        0.1068
      7 O           2.5505    0.5892   -0.6914 O.3     1  LIG1       -0.4907
      8 C           2.2577   -0.5258   -1.5148 C.3     1  LIG1        0.0790
      9 H           2.9413   -1.3153   -1.2173 H       1  LIG1        0.0660
     10 H           1.2235   -0.8455   -1.3606 H       1  LIG1        0.0660
     11 H           2.4160   -0.2700   -2.5661 H       1  LIG1        0.0660
     12 C           2.7683    3.1448    0.9573 C.1     1  LIG1       -0.0621
     13 C           3.4924    3.3974    1.8819 C.1     1  LIG1       -0.1137
     14 H           4.1250    3.6223    2.7088 H       1  LIG1        0.1232
     15 C           0.6210    5.1032   -0.3262 C.ar    1  LIG1        0.2146
     16 C           1.3504    6.1868    0.0720 C.ar    1  LIG1        0.1849
     17 C           0.3971    7.2180    0.4049 C.ar    1  LIG1        0.1159
     18 C          -0.8329    6.6711    0.1512 C.ar    1  LIG1        0.1934
     19 O          -0.7047    5.4120   -0.2903 O.2     1  LIG1       -0.4434
     20 O           2.6741    6.3841    0.1581 O.3     1  LIG1       -0.4901
     21 C           3.4868    5.8332   -0.8786 C.3     1  LIG1        0.0790
     22 H           4.4093    6.4080   -0.8630 H       1  LIG1        0.0660
     23 H           3.6975    4.7838   -0.6823 H       1  LIG1        0.0660
     24 H           2.9838    5.9485   -1.8405 H       1  LIG1        0.0660
     25 C           0.7074    8.5164    0.9097 C.1     1  LIG1       -0.0620
     26 C           0.9720    9.6077    1.3355 C.1     1  LIG1       -0.1137
     27 H           1.1926   10.5733    1.7270 H       1  LIG1        0.1232
     28 C          -2.1756    7.2113    0.2405 C.ar    1  LIG1        0.2146
     29 C          -2.6727    8.4820    0.2034 C.ar    1  LIG1        0.1849
     30 C          -4.1025    8.3665    0.3336 C.ar    1  LIG1        0.1159
     31 C          -4.3450    7.0213    0.4413 C.ar    1  LIG1        0.1934
     32 O          -3.1985    6.3305    0.3813 O.2     1  LIG1       -0.4434
     33 O          -2.0125    9.6486    0.0582 O.3     1  LIG1       -0.4901
     34 C          -1.4877    9.8640   -1.2535 C.3     1  LIG1        0.0790
     35 H          -0.9840   10.8262   -1.2175 H       1  LIG1        0.0660
     36 H          -0.7719    9.0815   -1.5085 H       1  LIG1        0.0660
     37 H          -2.3051    9.8848   -1.9767 H       1  LIG1        0.0660
     38 C          -5.0294    9.4531    0.3250 C.1     1  LIG1       -0.0620
     39 C          -5.7868   10.3846    0.3077 C.1     1  LIG1       -0.1137
     40 H          -6.4603   11.2095    0.2966 H       1  LIG1        0.1232
     41 C          -5.5700    6.2733    0.6048 C.ar    1  LIG1        0.2136
     42 C          -5.8223    4.9352    0.7222 C.ar    1  LIG1        0.1842
     43 C          -7.2603    4.8185    0.8774 C.ar    1  LIG1        0.1047
     44 C          -7.7258    6.1006    0.8352 C.ar    1  LIG1        0.1118
     45 O          -6.7316    6.9696    0.6720 O.2     1  LIG1       -0.4547
     46 H          -8.7240    6.4953    0.9082 H       1  LIG1        0.1043
     47 O          -4.8688    3.9956    0.6772 O.3     1  LIG1       -0.4901
     48 C          -5.2314    2.6619    1.0139 C.3     1  LIG1        0.0790
     49 H          -4.3008    2.1018    1.0080 H       1  LIG1        0.0660
     50 H          -5.6862    2.6294    2.0052 H       1  LIG1        0.0660
     51 H          -5.9238    2.2574    0.2754 H       1  LIG1        0.0660
     52 C          -8.0958    3.6645    1.0405 C.1     1  LIG1       -0.0628
     53 C          -8.8261    2.7212    1.1817 C.1     1  LIG1       -0.1137
     54 H          -9.4750    1.8860    1.3095 H       1  LIG1        0.1232
@<TRIPOS>BOND
     1     6     1    1
     2    11     8    1
     3    37    34    1
     4    24    21    1
     5     1     5   ar
     6     1     2   ar
     7     5     4   ar
     8     8    10    1
     9     8     9    1
    10     8     7    1
    11    36    34    1
    12    34    35    1
    13    34    33    1
    14     2     7    1
    15     2     3   ar
    16    21    22    1
    17    21    23    1
    18    21    20    1
    19     4    15    1
    20     4     3   ar
    21    15    19   ar
    22    15    16   ar
    23    19    18   ar
    24     3    12    1
    25    33    29    1
    26    16    20    1
    27    16    17   ar
    28    18    28    1
    29    18    17   ar
    30    29    28   ar
    31    29    30   ar
    32    28    32   ar
    33    51    48    1
    34    40    39    1
    35    39    38    3
    36    38    30    1
    37    30    31   ar
    38    32    31   ar
    39    17    25    1
    40    31    41    1
    41    41    45   ar
    42    41    42   ar
    43    45    44   ar
    44    47    42    1
    45    47    48    1
    46    42    43   ar
    47    44    43   ar
    48    44    46    1
    49    43    52    1
    50    25    26    3
    51    12    13    3
    52    49    48    1
    53    48    50    1
    54    52    53    3
    55    53    54    1
    56    26    27    1
    57    13    14    1
