@<TRIPOS>MOLECULE
mol_data/opt/m06hf/geoms/mol2/12le12le-12le12le-.out
 54 57 0 0 0
SMALL
GASTEIGER

@<TRIPOS>ATOM
      1 C          -0.1687    1.9334    0.1173 C.ar    1  LIG1        0.1355
      2 C           1.1050    1.9213   -0.3547 C.ar    1  LIG1        0.1737
      3 C           1.5569    3.2931   -0.3707 C.ar    1  LIG1        0.1152
      4 C           0.4962    4.0148    0.1038 C.ar    1  LIG1        0.1924
      5 O          -0.5364    3.2139    0.3961 O.2     1  LIG1       -0.4547
      6 H          -0.9008    1.1710    0.3057 H       1  LIG1        0.1068
      7 O           1.8787    0.8984   -0.7574 O.3     1  LIG1       -0.4907
      8 C           1.2615   -0.3745   -0.6862 C.3     1  LIG1        0.0790
      9 H           1.9958   -1.0925   -1.0389 H       1  LIG1        0.0660
     10 H           0.9815   -0.6001    0.3465 H       1  LIG1        0.0660
     11 H           0.3749   -0.3986   -1.3256 H       1  LIG1        0.0660
     12 C           2.8164    3.7918   -0.8219 C.1     1  LIG1       -0.0621
     13 C           3.8576    4.2454   -1.2134 C.1     1  LIG1       -0.1137
     14 H           4.7646    4.6746   -1.5723 H       1  LIG1        0.1232
     15 C           0.3342    5.4372    0.3124 C.ar    1  LIG1        0.2146
     16 C          -0.7140    6.2093    0.7170 C.ar    1  LIG1        0.1849
     17 C          -0.2461    7.5749    0.7017 C.ar    1  LIG1        0.1159
     18 C           1.0617    7.4970    0.3021 C.ar    1  LIG1        0.1934
     19 O           1.4103    6.2227    0.0693 O.2     1  LIG1       -0.4434
     20 O          -1.9412    5.7868    1.0864 O.3     1  LIG1       -0.4901
     21 C          -2.9395    5.9850    0.0819 C.3     1  LIG1        0.0790
     22 H          -3.8695    5.6162    0.5056 H       1  LIG1        0.0660
     23 H          -3.0274    7.0465   -0.1547 H       1  LIG1        0.0660
     24 H          -2.6773    5.4168   -0.8124 H       1  LIG1        0.0660
     25 C          -0.9650    8.7467    1.0892 C.1     1  LIG1       -0.0620
     26 C          -1.5432    9.7457    1.4233 C.1     1  LIG1       -0.1137
     27 H          -2.0174   10.6467    1.7399 H       1  LIG1        0.1232
     28 C           2.0830    8.5021    0.1332 C.ar    1  LIG1        0.2146
     29 C           3.4374    8.4365   -0.0307 C.ar    1  LIG1        0.1849
     30 C           3.9042    9.8009   -0.0838 C.ar    1  LIG1        0.1159
     31 C           2.7783   10.5714    0.0416 C.ar    1  LIG1        0.1934
     32 O           1.6908    9.7962    0.1717 O.2     1  LIG1       -0.4434
     33 O           4.2244    7.3437   -0.1166 O.3     1  LIG1       -0.4901
     34 C           4.4308    6.6783    1.1366 C.3     1  LIG1        0.0790
     35 H           5.1426    5.8817    0.9408 H       1  LIG1        0.0660
     36 H           4.8375    7.3850    1.8622 H       1  LIG1        0.0660
     37 H           3.4916    6.2538    1.4903 H       1  LIG1        0.0660
     38 C           5.2623   10.2172   -0.2317 C.1     1  LIG1       -0.0620
     39 C           6.4110   10.5458   -0.3493 C.1     1  LIG1       -0.1137
     40 H           7.4287   10.8409   -0.4570 H       1  LIG1        0.1232
     41 C           2.5419   11.9981    0.0410 C.ar    1  LIG1        0.2136
     42 C           1.3867   12.7202    0.1115 C.ar    1  LIG1        0.1842
     43 C           1.7791   14.1076    0.0326 C.ar    1  LIG1        0.1047
     44 C           3.1369   14.0932   -0.0610 C.ar    1  LIG1        0.1118
     45 O           3.5991   12.8346   -0.0581 O.2     1  LIG1       -0.4547
     46 H           3.8645   14.8817   -0.1342 H       1  LIG1        0.1043
     47 O           0.1228   12.2572    0.2267 O.3     1  LIG1       -0.4901
     48 C          -0.5041   12.0040   -1.0354 C.3     1  LIG1        0.0790
     49 H          -1.5103   11.6630   -0.8096 H       1  LIG1        0.0660
     50 H          -0.5337   12.9225   -1.6241 H       1  LIG1        0.0660
     51 H           0.0406   11.2228   -1.5665 H       1  LIG1        0.0660
     52 C           0.9049   15.2406    0.0496 C.1     1  LIG1       -0.0628
     53 C           0.1613   16.1838    0.0556 C.1     1  LIG1       -0.1137
     54 H          -0.4976   17.0212    0.0686 H       1  LIG1        0.1232
@<TRIPOS>BOND
     1    50    48    1
     2    14    13    1
     3    51    48    1
     4    11     8    1
     5    13    12    3
     6     9     8    1
     7    48    49    1
     8    48    47    1
     9    12     3    1
    10    24    21    1
    11     7     8    1
    12     7     2    1
    13     8    10    1
    14    40    39    1
    15     3     2   ar
    16     3     4   ar
    17     2     1   ar
    18    39    38    3
    19    38    30    1
    20    23    21    1
    21    46    44    1
    22    33    29    1
    23    33    34    1
    24    30    29   ar
    25    30    31   ar
    26    44    45   ar
    27    44    43   ar
    28    45    41   ar
    29    29    28   ar
    30    43    52    1
    31    43    42   ar
    32    41    31    1
    33    41    42   ar
    34    31    32   ar
    35    52    53    3
    36    53    54    1
    37    19    18   ar
    38    19    15   ar
    39    21    22    1
    40    21    20    1
    41     4    15    1
    42     4     5   ar
    43    42    47    1
    44     1     6    1
    45     1     5   ar
    46    28    32   ar
    47    28    18    1
    48    18    17   ar
    49    15    16   ar
    50    17    16   ar
    51    17    25    1
    52    16    20    1
    53    35    34    1
    54    25    26    3
    55    34    37    1
    56    34    36    1
    57    26    27    1
