@<TRIPOS>MOLECULE
mol_data/opt/m06hf/geoms/mol2/12le.out
 15 15 0 0 0
SMALL
GASTEIGER

@<TRIPOS>ATOM
      1 C           0.0639    1.9276   -0.0000 C.ar    1  LIG1        0.1344
      2 C           1.4209    1.8732   -0.0000 C.ar    1  LIG1        0.1729
      3 C           1.8869    3.2421   -0.0000 C.ar    1  LIG1        0.1039
      4 C           0.7587    4.0003   -0.0001 C.ar    1  LIG1        0.1107
      5 O          -0.3337    3.2285   -0.0001 O.2     1  LIG1       -0.4660
      6 H          -0.7113    1.1841   -0.0000 H       1  LIG1        0.1068
      7 H           0.6116    5.0658   -0.0001 H       1  LIG1        0.1043
      8 O           2.2547    0.8175    0.0000 O.3     1  LIG1       -0.4907
      9 C           1.6099   -0.4433    0.0001 C.3     1  LIG1        0.0790
     10 H           2.3969   -1.1916    0.0001 H       1  LIG1        0.0660
     11 H           0.9910   -0.5497    0.8951 H       1  LIG1        0.0660
     12 H           0.9910   -0.5498   -0.8950 H       1  LIG1        0.0660
     13 C           3.2455    3.6892   -0.0000 C.1     1  LIG1       -0.0628
     14 C           4.3865    4.0629    0.0000 C.1     1  LIG1       -0.1137
     15 H           5.4002    4.3896   -0.0000 H       1  LIG1        0.1232
@<TRIPOS>BOND
     1    12     9    1
     2     7     4    1
     3     4     5   ar
     4     4     3   ar
     5     5     1   ar
     6     1     6    1
     7     1     2   ar
     8     3    13    1
     9     3     2   ar
    10    15    14    1
    11    13    14    3
    12     2     8    1
    13     8     9    1
    14     9    10    1
    15     9    11    1
