@<TRIPOS>MOLECULE
mol_data/opt/m06hf/geoms/mol2/12le12le12le-12le.out
 54 57 0 0 0
SMALL
GASTEIGER

@<TRIPOS>ATOM
      1 C           0.1788    1.4900   -0.0144 C.ar    1  LIG1        0.1355
      2 C           1.4797    1.5657    0.3674 C.ar    1  LIG1        0.1737
      3 C           1.8017    2.9700    0.4720 C.ar    1  LIG1        0.1152
      4 C           0.6503    3.6244    0.1266 C.ar    1  LIG1        0.1924
      5 O          -0.3202    2.7459   -0.1650 O.2     1  LIG1       -0.4547
      6 H          -0.4957    0.6765   -0.2045 H       1  LIG1        0.1068
      7 O           2.3736    0.5982    0.6338 O.3     1  LIG1       -0.4907
      8 C           1.8754   -0.7221    0.5079 C.3     1  LIG1        0.0790
      9 H           2.7020   -1.3854    0.7442 H       1  LIG1        0.0660
     10 H           1.0523   -0.8820    1.2098 H       1  LIG1        0.0660
     11 H           1.5323   -0.8997   -0.5151 H       1  LIG1        0.0660
     12 C           3.0476    3.5245    0.8924 C.1     1  LIG1       -0.0621
     13 C           4.0963    3.9902    1.2470 C.1     1  LIG1       -0.1137
     14 H           5.0186    4.4110    1.5733 H       1  LIG1        0.1232
     15 C           0.3260    5.0339    0.0066 C.ar    1  LIG1        0.2146
     16 C           1.0781    6.1515   -0.2177 C.ar    1  LIG1        0.1849
     17 C           0.1602    7.2614   -0.2522 C.ar    1  LIG1        0.1159
     18 C          -1.0751    6.7101   -0.0391 C.ar    1  LIG1        0.1934
     19 O          -0.9828    5.3807    0.1094 O.2     1  LIG1       -0.4434
     20 O           2.4097    6.2580   -0.3990 O.3     1  LIG1       -0.4901
     21 C           2.8792    5.7199   -1.6378 C.3     1  LIG1        0.0790
     22 H           3.9557    5.8659   -1.6364 H       1  LIG1        0.0660
     23 H           2.6507    4.6547   -1.6991 H       1  LIG1        0.0660
     24 H           2.4199    6.2584   -2.4687 H       1  LIG1        0.0660
     25 C           0.4676    8.6285   -0.5288 C.1     1  LIG1       -0.0620
     26 C           0.6851    9.7800   -0.7919 C.1     1  LIG1       -0.1137
     27 H           0.8415   10.8054   -1.0372 H       1  LIG1        0.1232
     28 C          -2.3884    7.3103    0.0211 C.ar    1  LIG1        0.2146
     29 C          -3.6489    6.7952    0.0859 C.ar    1  LIG1        0.1849
     30 C          -4.5524    7.9210    0.0742 C.ar    1  LIG1        0.1159
     31 C          -3.7451    9.0262    0.0234 C.ar    1  LIG1        0.1934
     32 O          -2.4532    8.6623   -0.0070 O.2     1  LIG1       -0.4434
     33 O          -3.9978    5.4948    0.1609 O.3     1  LIG1       -0.4901
     34 C          -4.3813    4.9284   -1.0960 C.3     1  LIG1        0.0790
     35 H          -4.6556    3.8982   -0.8870 H       1  LIG1        0.0660
     36 H          -5.2334    5.4722   -1.5062 H       1  LIG1        0.0660
     37 H          -3.5386    4.9629   -1.7878 H       1  LIG1        0.0660
     38 C          -5.9780    7.8498    0.1301 C.1     1  LIG1       -0.0620
     39 C          -7.1748    7.7573    0.1683 C.1     1  LIG1       -0.1137
     40 H          -8.2364    7.6802    0.2115 H       1  LIG1        0.1232
     41 C          -4.0044   10.4487    0.0289 C.ar    1  LIG1        0.2136
     42 C          -3.1680   11.5247    0.1106 C.ar    1  LIG1        0.1842
     43 C          -4.0201   12.6904    0.1036 C.ar    1  LIG1        0.1047
     44 C          -5.2899   12.2101    0.0055 C.ar    1  LIG1        0.1118
     45 O          -5.2875   10.8705   -0.0373 O.2     1  LIG1       -0.4547
     46 H          -6.2455   12.7009   -0.0408 H       1  LIG1        0.1043
     47 O          -1.8204   11.5415    0.1934 O.3     1  LIG1       -0.4901
     48 C          -1.3213   11.2750    1.5098 C.3     1  LIG1        0.0790
     49 H          -0.2447   11.4096    1.4575 H       1  LIG1        0.0660
     50 H          -1.7612   11.9784    2.2190 H       1  LIG1        0.0660
     51 H          -1.5495   10.2466    1.7900 H       1  LIG1        0.0660
     52 C          -3.5950   14.0541    0.1869 C.1     1  LIG1       -0.0628
     53 C          -3.2299   15.1953    0.2639 C.1     1  LIG1       -0.1137
     54 H          -2.9036   16.2076    0.3274 H       1  LIG1        0.1232
@<TRIPOS>BOND
     1    24    21    1
     2    37    34    1
     3    23    21    1
     4    21    22    1
     5    21    20    1
     6    36    34    1
     7    34    35    1
     8    34    33    1
     9    27    26    1
    10    26    25    3
    11    25    17    1
    12    11     8    1
    13    20    16    1
    14    17    16   ar
    15    17    18   ar
    16    16    15   ar
    17     6     1    1
    18     5     1   ar
    19     5     4   ar
    20    46    44    1
    21    18    28    1
    22    18    19   ar
    23    45    44   ar
    24    45    41   ar
    25     1     2   ar
    26    32    28   ar
    27    32    31   ar
    28    44    43   ar
    29    15    19   ar
    30    15     4    1
    31    28    29   ar
    32    31    41    1
    33    31    30   ar
    34    41    42   ar
    35    30    29   ar
    36    30    38    1
    37    29    33    1
    38    43    42   ar
    39    43    52    1
    40    42    47    1
    41     4     3   ar
    42    38    39    3
    43    39    40    1
    44    52    53    3
    45    47    48    1
    46    53    54    1
    47     2     3   ar
    48     2     7    1
    49     3    12    1
    50     8     7    1
    51     8     9    1
    52     8    10    1
    53    12    13    3
    54    13    14    1
    55    49    48    1
    56    48    51    1
    57    48    50    1
