@<TRIPOS>MOLECULE
mol_data/opt/m06hf/geoms/mol2/12le4he13hf-13ai-.out
 51 54 0 0 0
SMALL
GASTEIGER

@<TRIPOS>ATOM
      1 C           0.3792    1.6563    0.7462 C.ar    1  LIG1        0.1354
      2 C           1.6037    1.5921    0.1673 C.ar    1  LIG1        0.1736
      3 C           1.9527    2.9431   -0.2049 C.ar    1  LIG1        0.1120
      4 C           0.9033    3.7259    0.1999 C.ar    1  LIG1        0.1556
      5 O          -0.0388    2.9504    0.7646 O.2     1  LIG1       -0.4579
      6 H          -0.2830    0.9273    1.1746 H       1  LIG1        0.1068
      7 O           2.4108    0.5437   -0.0720 O.3     1  LIG1       -0.4907
      8 C           1.9035   -0.7057    0.3621 C.3     1  LIG1        0.0790
      9 H           2.6601   -1.4455    0.1185 H       1  LIG1        0.0660
     10 H           1.7304   -0.6864    1.4416 H       1  LIG1        0.0660
     11 H           0.9708   -0.9357   -0.1597 H       1  LIG1        0.0660
     12 C           3.1312    3.3328   -0.9127 C.1     1  LIG1       -0.0622
     13 C           4.1300    3.6662   -1.4939 C.1     1  LIG1       -0.1137
     14 H           5.0073    3.9490   -2.0281 H       1  LIG1        0.1232
     15 C           1.5374    6.1725    0.3995 C.ar    1  LIG1        0.0361
     16 C           1.1233    7.5112    0.3153 C.ar    1  LIG1       -0.0300
     17 C           0.5957    5.1614    0.1053 C.ar    1  LIG1        0.0404
     18 C          -0.1724    7.8733   -0.0340 C.ar    1  LIG1        0.0174
     19 H           1.8287    8.2993    0.5537 H       1  LIG1        0.0643
     20 C          -0.7075    5.5232   -0.2230 C.ar    1  LIG1       -0.0332
     21 C          -1.1142    6.8519   -0.3050 C.ar    1  LIG1        0.0346
     22 H          -1.4283    4.7422   -0.4271 H       1  LIG1        0.0638
     23 N           2.8037    5.8901    0.8377 N.pl3   1  LIG1       -0.3574
     24 H           3.2210    5.0038    0.5987 H       1  LIG1        0.1423
     25 H           3.4463    6.6644    0.8900 H       1  LIG1        0.1423
     26 C          -2.4862    7.1013   -0.6808 C.1     1  LIG1       -0.0690
     27 C          -3.6431    7.2512   -0.9843 C.1     1  LIG1       -0.1139
     28 H          -4.6650    7.3518   -1.2688 H       1  LIG1        0.1232
     29 C          -0.4956    9.3054   -0.0895 C.ar    1  LIG1        0.0728
     30 C           0.3551   10.3976   -0.2171 C.ar    1  LIG1        0.0930
     31 C          -0.4551   11.5542   -0.1693 C.ar    1  LIG1        0.1649
     32 C          -1.7650   11.1573   -0.0104 C.ar    1  LIG1        0.1072
     33 N          -1.7708    9.7934    0.0170 N.ar    1  LIG1       -0.3486
     34 H          -2.5819    9.2159    0.1814 H       1  LIG1        0.1661
     35 N           1.7627   10.4012   -0.3789 N.pl3   1  LIG1       -0.3535
     36 H           2.0334    9.9442   -1.2458 H       1  LIG1        0.1425
     37 H           2.0939   11.3611   -0.3984 H       1  LIG1        0.1425
     38 O           0.0306   12.8231   -0.2977 O.3     1  LIG1       -0.5030
     39 H          -0.7111   13.4184   -0.4696 H       1  LIG1        0.2923
     40 C          -2.9663   11.9846    0.0003 C.ar    1  LIG1        0.0668
     41 C          -3.2270   13.1840    0.6301 C.ar    1  LIG1       -0.0320
     42 C          -4.5404   13.5952    0.2489 C.ar    1  LIG1       -0.0325
     43 C          -5.0256   12.6252   -0.5942 C.ar    1  LIG1        0.0051
     44 N          -4.0696   11.6585   -0.7396 N.ar    1  LIG1       -0.3592
     45 H          -4.1122   10.8674   -1.3630 H       1  LIG1        0.1654
     46 H          -5.9770   12.5543   -1.0937 H       1  LIG1        0.0809
     47 H          -2.5683   13.6762    1.3290 H       1  LIG1        0.0642
     48 C          -5.2677   14.8386    0.6997 C.3     1  LIG1       -0.0383
     49 H          -6.2573   14.8826    0.2449 H       1  LIG1        0.0278
     50 H          -4.7148   15.7336    0.4114 H       1  LIG1        0.0278
     51 H          -5.3861   14.8439    1.7842 H       1  LIG1        0.0278
@<TRIPOS>BOND
     1    14    13    1
     2    13    12    3
     3    45    44    1
     4    28    27    1
     5    36    35    1
     6    46    43    1
     7    27    26    3
     8    12     3    1
     9    44    43   ar
    10    44    40   ar
    11    26    21    1
    12    43    42   ar
    13    39    38    1
    14    22    20    1
    15    37    35    1
    16    35    30    1
    17    21    20   ar
    18    21    18   ar
    19    38    31    1
    20    20    17   ar
    21    30    31   ar
    22    30    29   ar
    23     3     2   ar
    24     3     4   ar
    25    31    32   ar
    26    11     8    1
    27    29    18    1
    28    29    33   ar
    29     7     2    1
    30     7     8    1
    31    18    16   ar
    32    32    40    1
    33    32    33   ar
    34    40    41   ar
    35    33    34    1
    36    17     4    1
    37    17    15   ar
    38     9     8    1
    39     2     1   ar
    40     4     5   ar
    41    49    48    1
    42    42    41   ar
    43    42    48    1
    44    16    15   ar
    45    16    19    1
    46     8    10    1
    47    15    23    1
    48    50    48    1
    49    24    23    1
    50    41    47    1
    51    48    51    1
    52     1     5   ar
    53     1     6    1
    54    23    25    1
