@<TRIPOS>MOLECULE
mol_data/opt/m06hf/geoms/mol2/12le12le12le.out
 41 43 0 0 0
SMALL
GASTEIGER

@<TRIPOS>ATOM
      1 C          -3.6653   -2.1468    0.5994 C.ar    1  LIG1        0.1355
      2 C          -4.4651   -1.1534    0.1330 C.ar    1  LIG1        0.1737
      3 C          -3.5967   -0.0623   -0.2436 C.ar    1  LIG1        0.1152
      4 C          -2.3325   -0.5002    0.0457 C.ar    1  LIG1        0.1924
      5 O          -2.3688   -1.7426    0.5488 O.2     1  LIG1       -0.4547
      6 H          -3.8482   -3.1359    0.9751 H       1  LIG1        0.1068
      7 O          -5.8011   -1.0969   -0.0052 O.3     1  LIG1       -0.4907
      8 C          -6.4837   -2.2839    0.3593 C.3     1  LIG1        0.0790
      9 H          -7.5385   -2.0983    0.1812 H       1  LIG1        0.0660
     10 H          -6.1394   -3.1191   -0.2563 H       1  LIG1        0.0660
     11 H          -6.3148   -2.5064    1.4164 H       1  LIG1        0.0660
     12 C          -3.9958    1.1718   -0.8394 C.1     1  LIG1       -0.0621
     13 C          -4.3313    2.2085   -1.3445 C.1     1  LIG1       -0.1137
     14 H          -4.6167    3.1252   -1.8051 H       1  LIG1        0.1232
     15 C          -1.0269    0.1224   -0.0798 C.ar    1  LIG1        0.2146
     16 C          -0.6077    1.4191   -0.1490 C.ar    1  LIG1        0.1849
     17 C           0.8285    1.3786   -0.2764 C.ar    1  LIG1        0.1159
     18 C           1.1546    0.0484   -0.2654 C.ar    1  LIG1        0.1934
     19 O           0.0477   -0.7020   -0.1439 O.2     1  LIG1       -0.4434
     20 O          -1.3337    2.5542   -0.1074 O.3     1  LIG1       -0.4901
     21 C          -1.8954    2.8469    1.1738 C.3     1  LIG1        0.0790
     22 H          -2.4145    3.7945    1.0614 H       1  LIG1        0.0660
     23 H          -2.6029    2.0688    1.4638 H       1  LIG1        0.0660
     24 H          -1.0977    2.9331    1.9139 H       1  LIG1        0.0660
     25 C           1.6816    2.5160   -0.4088 C.1     1  LIG1       -0.0620
     26 C           2.3836    3.4838   -0.5201 C.1     1  LIG1       -0.1137
     27 H           3.0124    4.3353   -0.6392 H       1  LIG1        0.1232
     28 C           2.4180   -0.6638   -0.3272 C.ar    1  LIG1        0.2136
     29 C           3.7104   -0.2997   -0.0845 C.ar    1  LIG1        0.1842
     30 C           4.5078   -1.4855   -0.2906 C.ar    1  LIG1        0.1047
     31 C           3.6239   -2.4571   -0.6465 C.ar    1  LIG1        0.1118
     32 O           2.3751   -1.9748   -0.6681 O.2     1  LIG1       -0.4547
     33 H           3.7541   -3.4944   -0.8985 H       1  LIG1        0.1043
     34 O           4.1938    0.9040    0.2864 O.3     1  LIG1       -0.4901
     35 C           4.0134    1.1988    1.6736 C.3     1  LIG1        0.0790
     36 H           4.4529    2.1798    1.8301 H       1  LIG1        0.0660
     37 H           2.9497    1.2256    1.9155 H       1  LIG1        0.0660
     38 H           4.5245    0.4489    2.2802 H       1  LIG1        0.0660
     39 C           5.9252   -1.5931   -0.1243 C.1     1  LIG1       -0.0628
     40 C           7.1131   -1.6731    0.0312 C.1     1  LIG1       -0.1137
     41 H           8.1674   -1.7423    0.1683 H       1  LIG1        0.1232
@<TRIPOS>BOND
     1    14    13    1
     2    13    12    3
     3    33    31    1
     4    12     3    1
     5    32    31   ar
     6    32    28   ar
     7    31    30   ar
     8    27    26    1
     9    26    25    3
    10    25    17    1
    11    28    18    1
    12    28    29   ar
    13    30    39    1
    14    30    29   ar
    15    17    18   ar
    16    17    16   ar
    17    18    19   ar
    18    10     8    1
    19     3     4   ar
    20     3     2   ar
    21    16    20    1
    22    16    15   ar
    23    19    15   ar
    24    39    40    3
    25    20    21    1
    26    29    34    1
    27    15     4    1
    28     7     2    1
    29     7     8    1
    30    40    41    1
    31     4     5   ar
    32     2     1   ar
    33     9     8    1
    34    34    35    1
    35     8    11    1
    36     5     1   ar
    37     1     6    1
    38    22    21    1
    39    21    23    1
    40    21    24    1
    41    35    36    1
    42    35    37    1
    43    35    38    1
