@<TRIPOS>MOLECULE
mol_data/opt/m06hf/geoms/mol2/12lf12lf12lf.out
 38 40 0 0 0
SMALL
GASTEIGER

@<TRIPOS>ATOM
      1 C           0.2121    1.2910   -0.4721 C.ar    1  LIG1        0.1381
      2 C           1.4988    1.3046   -0.0346 C.ar    1  LIG1        0.2002
      3 C           1.7775    2.6602    0.3683 C.ar    1  LIG1        0.2086
      4 C           0.6259    3.3523    0.1318 C.ar    1  LIG1        0.2184
      5 O          -0.3239    2.5314   -0.3786 O.2     1  LIG1       -0.4521
      6 H          -0.4268    0.5175   -0.8565 H       1  LIG1        0.1069
      7 O           2.4142    0.3199    0.0547 O.3     1  LIG1       -0.4888
      8 C           1.9588   -0.9483   -0.3770 C.3     1  LIG1        0.0791
      9 H           2.7904   -1.6346   -0.2470 H       1  LIG1        0.0660
     10 H           1.1079   -1.2715    0.2297 H       1  LIG1        0.0660
     11 H           1.6669   -0.9071   -1.4303 H       1  LIG1        0.0660
     12 O           2.9554    3.0565    0.8780 O.3     1  LIG1       -0.5007
     13 H           2.9549    4.0254    0.9895 H       1  LIG1        0.2924
     14 C           0.3256    4.7577    0.3097 C.ar    1  LIG1        0.2196
     15 C           1.1616    5.8064    0.5503 C.ar    1  LIG1        0.2117
     16 C           0.3388    6.9759    0.6594 C.ar    1  LIG1        0.2094
     17 C          -0.9404    6.5329    0.4756 C.ar    1  LIG1        0.2194
     18 O          -0.9483    5.1881    0.2682 O.2     1  LIG1       -0.4407
     19 O           2.5202    5.7427    0.6740 O.3     1  LIG1       -0.4883
     20 C           3.2160    6.3086   -0.4465 C.3     1  LIG1        0.0791
     21 H           4.2756    6.2179   -0.2228 H       1  LIG1        0.0660
     22 H           2.9635    5.7494   -1.3486 H       1  LIG1        0.0660
     23 H           2.9344    7.3564   -0.5487 H       1  LIG1        0.0660
     24 O           0.8185    8.2118    0.8878 O.3     1  LIG1       -0.5007
     25 H           0.0951    8.8640    0.8120 H       1  LIG1        0.2924
     26 C          -2.1902    7.2627    0.4590 C.ar    1  LIG1        0.2186
     27 C          -2.4132    8.6028    0.3860 C.ar    1  LIG1        0.2109
     28 C          -3.8374    8.7801    0.4440 C.ar    1  LIG1        0.1979
     29 C          -4.3618    7.5338    0.5496 C.ar    1  LIG1        0.1379
     30 O          -3.3615    6.6134    0.5679 O.2     1  LIG1       -0.4521
     31 H          -5.3677    7.1617    0.6198 H       1  LIG1        0.1069
     32 O          -1.4590    9.5754    0.2745 O.3     1  LIG1       -0.4883
     33 C          -1.4190   10.1795   -1.0273 C.3     1  LIG1        0.0791
     34 H          -0.6206   10.9162   -0.9955 H       1  LIG1        0.0660
     35 H          -1.2098    9.4134   -1.7752 H       1  LIG1        0.0660
     36 H          -2.3755   10.6616   -1.2270 H       1  LIG1        0.0660
     37 O          -4.4229   10.0033    0.3747 O.3     1  LIG1       -0.5012
     38 H          -5.3816    9.9238    0.4196 H       1  LIG1        0.2924
@<TRIPOS>BOND
     1    35    33    1
     2    11     8    1
     3    22    20    1
     4    36    33    1
     5    33    34    1
     6    33    32    1
     7     6     1    1
     8    23    20    1
     9     1     5   ar
    10     1     2   ar
    11    20    21    1
    12    20    19    1
    13     5     4   ar
    14     8     9    1
    15     8     7    1
    16     8    10    1
    17     2     7    1
    18     2     3   ar
    19     4    14    1
    20     4     3   ar
    21    18    14   ar
    22    18    17   ar
    23    32    27    1
    24    14    15   ar
    25     3    12    1
    26    37    38    1
    27    37    28    1
    28    27    28   ar
    29    27    26   ar
    30    28    29   ar
    31    26    17    1
    32    26    30   ar
    33    17    16   ar
    34    29    30   ar
    35    29    31    1
    36    15    16   ar
    37    15    19    1
    38    16    24    1
    39    25    24    1
    40    12    13    1
