@<TRIPOS>MOLECULE
mol_data/opt/m06hf/geoms/mol2/12lf12lf12lf-12lf.out
 50 53 0 0 0
SMALL
GASTEIGER

@<TRIPOS>ATOM
      1 C           0.1467    1.3152   -0.0662 C.ar    1  LIG1        0.1381
      2 C           1.4462    1.5113    0.2801 C.ar    1  LIG1        0.2002
      3 C           1.6045    2.9305    0.4833 C.ar    1  LIG1        0.2086
      4 C           0.3781    3.4708    0.2345 C.ar    1  LIG1        0.2184
      5 O          -0.5098    2.5015   -0.1009 O.2     1  LIG1       -0.4521
      6 H          -0.4282    0.4391   -0.3025 H       1  LIG1        0.1069
      7 O           2.4589    0.6385    0.4422 O.3     1  LIG1       -0.4888
      8 C           2.0937   -0.7207    0.2921 C.3     1  LIG1        0.0791
      9 H           2.9921   -1.3033    0.4729 H       1  LIG1        0.0660
     10 H           1.3212   -0.9855    1.0191 H       1  LIG1        0.0660
     11 H           1.7269   -0.9049   -0.7220 H       1  LIG1        0.0660
     12 O           2.7575    3.5064    0.8621 O.3     1  LIG1       -0.5007
     13 H           2.6428    4.4731    0.9045 H       1  LIG1        0.2924
     14 C          -0.0730    4.8446    0.2678 C.ar    1  LIG1        0.2196
     15 C           0.6164    6.0109    0.4008 C.ar    1  LIG1        0.2117
     16 C          -0.3527    7.0724    0.3846 C.ar    1  LIG1        0.2094
     17 C          -1.5614    6.4495    0.2429 C.ar    1  LIG1        0.2195
     18 O          -1.3943    5.1034    0.1886 O.2     1  LIG1       -0.4407
     19 O           1.9703    6.1296    0.5266 O.3     1  LIG1       -0.4883
     20 C           2.5916    6.7418   -0.6135 C.3     1  LIG1        0.0791
     21 H           3.6528    6.7953   -0.3864 H       1  LIG1        0.0660
     22 H           2.4171    6.1240   -1.4955 H       1  LIG1        0.0660
     23 H           2.1785    7.7405   -0.7530 H       1  LIG1        0.0660
     24 O          -0.0295    8.3774    0.4715 O.3     1  LIG1       -0.5007
     25 H          -0.8160    8.9384    0.5990 H       1  LIG1        0.2924
     26 C          -2.8661    7.0675    0.1656 C.ar    1  LIG1        0.2197
     27 C          -4.1837    6.7522   -0.0019 C.ar    1  LIG1        0.2117
     28 C          -4.9117    7.9981    0.0431 C.ar    1  LIG1        0.2094
     29 C          -3.9946    8.9795    0.2338 C.ar    1  LIG1        0.2194
     30 O          -2.7606    8.4142    0.3055 O.2     1  LIG1       -0.4407
     31 O          -4.8743    5.6073   -0.1910 O.3     1  LIG1       -0.4883
     32 C          -4.1699    4.5045   -0.7644 C.3     1  LIG1        0.0791
     33 H          -4.9311    3.7825   -1.0465 H       1  LIG1        0.0660
     34 H          -3.6162    4.8394   -1.6436 H       1  LIG1        0.0660
     35 H          -3.4825    4.0733   -0.0390 H       1  LIG1        0.0660
     36 O          -6.2466    8.0987   -0.1044 O.3     1  LIG1       -0.5007
     37 H          -6.5956    7.2088   -0.2494 H       1  LIG1        0.2924
     38 C          -3.9775   10.4209    0.3210 C.ar    1  LIG1        0.2186
     39 C          -2.9026   11.2563    0.3846 C.ar    1  LIG1        0.2109
     40 C          -3.4486   12.5874    0.4356 C.ar    1  LIG1        0.1979
     41 C          -4.7969   12.4449    0.4095 C.ar    1  LIG1        0.1379
     42 O          -5.1201   11.1261    0.3483 O.2     1  LIG1       -0.4521
     43 H          -5.6129   13.1440    0.4342 H       1  LIG1        0.1069
     44 O          -1.5843   10.9149    0.3985 O.3     1  LIG1       -0.4883
     45 C          -0.9148   11.2308   -0.8292 C.3     1  LIG1        0.0791
     46 H           0.1238   10.9426   -0.6891 H       1  LIG1        0.0660
     47 H          -1.3626   10.6558   -1.6424 H       1  LIG1        0.0660
     48 H          -0.9940   12.3002   -1.0260 H       1  LIG1        0.0660
     49 O          -2.6641   13.6953    0.4805 O.3     1  LIG1       -0.5012
     50 H          -3.1982   14.4830    0.6277 H       1  LIG1        0.2924
@<TRIPOS>BOND
     1    34    32    1
     2    47    45    1
     3    22    20    1
     4    33    32    1
     5    48    45    1
     6    45    46    1
     7    45    44    1
     8    32    31    1
     9    32    35    1
    10    23    20    1
    11    11     8    1
    12    20    21    1
    13    20    19    1
    14     6     1    1
    15    37    36    1
    16    31    27    1
    17    36    28    1
    18     5     1   ar
    19     5     4   ar
    20     1     2   ar
    21    27    28   ar
    22    27    26   ar
    23    28    29   ar
    24    26    17    1
    25    26    30   ar
    26    18    17   ar
    27    18    14   ar
    28    29    30   ar
    29    29    38    1
    30     4    14    1
    31     4     3   ar
    32    17    16   ar
    33    14    15   ar
    34     2     7    1
    35     2     3   ar
    36     8     7    1
    37     8     9    1
    38     8    10    1
    39    38    42   ar
    40    38    39   ar
    41    42    41   ar
    42    39    44    1
    43    39    40   ar
    44    16    15   ar
    45    16    24    1
    46    15    19    1
    47    41    43    1
    48    41    40   ar
    49    40    49    1
    50    24    25    1
    51    49    50    1
    52     3    12    1
    53    12    13    1
