@<TRIPOS>MOLECULE
mol_data/opt/m06hf/geoms/mol2/12lf6eh-12hi-13id-.out
 51 54 0 0 0
SMALL
GASTEIGER

@<TRIPOS>ATOM
      1 C           0.3293    1.5225   -0.3870 C.ar    1  LIG1        0.1379
      2 C           1.6522    1.6717   -0.1058 C.ar    1  LIG1        0.2001
      3 C           1.8565    3.0831    0.0752 C.ar    1  LIG1        0.2054
      4 C           0.6439    3.6739   -0.1137 C.ar    1  LIG1        0.1825
      5 O          -0.2813    2.7304   -0.3849 O.2     1  LIG1       -0.4553
      6 H          -0.2899    0.6703   -0.5966 H       1  LIG1        0.1069
      7 O           2.6426    0.7648    0.0006 O.3     1  LIG1       -0.4888
      8 C           2.2515   -0.5678   -0.2760 C.3     1  LIG1        0.0791
      9 H           3.1456   -1.1771   -0.1834 H       1  LIG1        0.0660
     10 H           1.4979   -0.8982    0.4445 H       1  LIG1        0.0660
     11 H           1.8512   -0.6397   -1.2909 H       1  LIG1        0.0660
     12 O           3.0567    3.6609    0.3627 O.3     1  LIG1       -0.5008
     13 H           2.9412    4.3045    1.0728 H       1  LIG1        0.2924
     14 C          -0.9395    5.5972    0.3669 C.ar    1  LIG1        0.1248
     15 C           0.2899    5.0973   -0.0974 C.ar    1  LIG1        0.0566
     16 C           1.2262    6.0141   -0.5748 C.ar    1  LIG1       -0.0254
     17 C           0.9358    7.3725   -0.5736 C.ar    1  LIG1        0.0548
     18 C          -0.3069    7.7754   -0.0405 C.ar    1  LIG1        0.1298
     19 N          -1.2099    6.8999    0.3868 N.ar    1  LIG1       -0.2327
     20 H           2.1636    5.6519   -0.9826 H       1  LIG1        0.0644
     21 C          -1.9657    4.7198    0.8924 C.1     1  LIG1       -0.0491
     22 C          -2.8145    4.0015    1.3439 C.1     1  LIG1       -0.1124
     23 H          -3.5673    3.3626    1.7432 H       1  LIG1        0.1232
     24 N           1.8304    8.3258   -1.0746 N.pl3   1  LIG1       -0.3562
     25 H           2.5614    7.9311   -1.6531 H       1  LIG1        0.1424
     26 H           1.3524    9.0902   -1.5454 H       1  LIG1        0.1424
     27 C          -0.6691    9.1964    0.0496 C.ar    1  LIG1        0.1765
     28 C           0.0135   10.3242    0.4285 C.ar    1  LIG1        0.0762
     29 C          -0.9574   11.3949    0.4666 C.ar    1  LIG1        0.0181
     30 C          -2.1344   10.8231    0.0955 C.ar    1  LIG1        0.1568
     31 O          -1.9816    9.5074   -0.1472 O.2     1  LIG1       -0.4496
     32 N           1.3283   10.4574    0.8550 N.pl3   1  LIG1       -0.3548
     33 H           1.9468    9.7200    0.5304 H       1  LIG1        0.1424
     34 H           1.7128   11.3802    0.7040 H       1  LIG1        0.1424
     35 C          -0.7006   12.7901    0.9690 C.3     1  LIG1       -0.0343
     36 H          -1.6465   13.2738    1.2108 H       1  LIG1        0.0279
     37 H          -0.1753   13.3986    0.2290 H       1  LIG1        0.0279
     38 H          -0.0930   12.7384    1.8744 H       1  LIG1        0.0279
     39 C          -3.4954   11.3325   -0.0326 C.ar    1  LIG1        0.0866
     40 C          -3.9938   12.5291   -0.4974 C.ar    1  LIG1       -0.0048
     41 C          -5.4139   12.4260   -0.3710 C.ar    1  LIG1        0.0726
     42 C          -5.7176   11.1804    0.1413 C.ar    1  LIG1        0.0200
     43 N          -4.5502   10.5351    0.3395 N.ar    1  LIG1       -0.3569
     44 H          -4.4356    9.5931    0.6858 H       1  LIG1        0.1655
     45 H          -6.6719   10.7365    0.3647 H       1  LIG1        0.0820
     46 C          -3.2365   13.6855   -1.0971 C.3     1  LIG1       -0.0364
     47 H          -3.7634   14.0449   -1.9812 H       1  LIG1        0.0279
     48 H          -2.2370   13.3605   -1.3863 H       1  LIG1        0.0279
     49 H          -3.1527   14.5129   -0.3903 H       1  LIG1        0.0279
     50 N          -7.0993   14.2636   -1.0450 N.1     1  LIG1       -0.1908
     51 C          -6.3607   13.4380   -0.7410 C.1     1  LIG1        0.1009
@<TRIPOS>BOND
     1    47    46    1
     2    25    24    1
     3    26    24    1
     4    48    46    1
     5    11     8    1
     6    46    40    1
     7    46    49    1
     8    24    17    1
     9    50    51    3
    10    20    16    1
    11    51    41    1
    12     6     1    1
    13    16    17   ar
    14    16    15   ar
    15    17    18   ar
    16    40    41   ar
    17    40    39   ar
    18     1     5   ar
    19     1     2   ar
    20     5     4   ar
    21    41    42   ar
    22     8     9    1
    23     8     7    1
    24     8    10    1
    25    31    27   ar
    26    31    30   ar
    27     4    15    1
    28     4     3   ar
    29     2     7    1
    30     2     3   ar
    31    15    14   ar
    32    18    27    1
    33    18    19   ar
    34    39    30    1
    35    39    43   ar
    36    27    28   ar
    37     3    12    1
    38    30    29   ar
    39    42    43   ar
    40    42    45    1
    41    37    35    1
    42    43    44    1
    43    12    13    1
    44    14    19   ar
    45    14    21    1
    46    28    29   ar
    47    28    32    1
    48    29    35    1
    49    33    32    1
    50    34    32    1
    51    21    22    3
    52    35    36    1
    53    35    38    1
    54    22    23    1
