@<TRIPOS>MOLECULE
mol_data/opt/m06hf/geoms/mol2/12lf12lf-12lf-12lf-.out
 50 53 0 0 0
SMALL
GASTEIGER

@<TRIPOS>ATOM
      1 C          -0.4285    2.0523   -0.5523 C.ar    1  LIG1        0.1381
      2 C           0.9197    1.8865   -0.6199 C.ar    1  LIG1        0.2002
      3 C           1.4933    3.2037   -0.5058 C.ar    1  LIG1        0.2086
      4 C           0.4358    4.0520   -0.3823 C.ar    1  LIG1        0.2184
      5 O          -0.7303    3.3657   -0.4028 O.2     1  LIG1       -0.4521
      6 H          -1.2576    1.3703   -0.5944 H       1  LIG1        0.1069
      7 O           1.6656    0.7741   -0.7613 O.3     1  LIG1       -0.4888
      8 C           0.9178   -0.4225   -0.8722 C.3     1  LIG1        0.0791
      9 H           1.6383   -1.2278   -0.9819 H       1  LIG1        0.0660
     10 H           0.3167   -0.5773    0.0283 H       1  LIG1        0.0660
     11 H           0.2672   -0.3803   -1.7500 H       1  LIG1        0.0660
     12 O           2.8163    3.4571   -0.5271 O.3     1  LIG1       -0.5007
     13 H           2.9690    4.4006   -0.3837 H       1  LIG1        0.2924
     14 C           0.4176    5.4860   -0.2216 C.ar    1  LIG1        0.2196
     15 C          -0.5737    6.4132   -0.1135 C.ar    1  LIG1        0.2117
     16 C           0.0848    7.6813    0.0751 C.ar    1  LIG1        0.2094
     17 C           1.4238    7.4224    0.0357 C.ar    1  LIG1        0.2195
     18 O           1.6315    6.0863   -0.1485 O.2     1  LIG1       -0.4407
     19 O          -1.9104    6.2124   -0.1670 O.3     1  LIG1       -0.4883
     20 C          -2.5079    6.0503    1.1210 C.3     1  LIG1        0.0791
     21 H          -3.5769    5.9547    0.9489 H       1  LIG1        0.0660
     22 H          -2.1181    5.1479    1.5945 H       1  LIG1        0.0660
     23 H          -2.3023    6.9253    1.7400 H       1  LIG1        0.0660
     24 O          -0.5711    8.8397    0.2659 O.3     1  LIG1       -0.5007
     25 H           0.0558    9.5856    0.2693 H       1  LIG1        0.2924
     26 C           2.5503    8.3196    0.1214 C.ar    1  LIG1        0.2197
     27 C           2.5841    9.6750   -0.0036 C.ar    1  LIG1        0.2117
     28 C           3.9361   10.0772    0.2384 C.ar    1  LIG1        0.2094
     29 C           4.6303    8.9298    0.4688 C.ar    1  LIG1        0.2194
     30 O           3.7834    7.8624    0.3975 O.2     1  LIG1       -0.4407
     31 O           1.5391   10.5125   -0.2973 O.3     1  LIG1       -0.4883
     32 C           1.3372   10.6719   -1.7155 C.3     1  LIG1        0.0791
     33 H           1.1114    9.7023   -2.1594 H       1  LIG1        0.0660
     34 H           0.4956   11.3503   -1.8280 H       1  LIG1        0.0660
     35 H           2.2387   11.0932   -2.1605 H       1  LIG1        0.0660
     36 O           4.4030   11.3485    0.2302 O.3     1  LIG1       -0.5007
     37 H           3.6553   11.9477    0.3507 H       1  LIG1        0.2924
     38 C           6.0377    8.7041    0.7208 C.ar    1  LIG1        0.2186
     39 C           7.1260    9.4049    0.3038 C.ar    1  LIG1        0.2109
     40 C           8.2634    8.7520    0.9028 C.ar    1  LIG1        0.1979
     41 C           7.7696    7.7034    1.6056 C.ar    1  LIG1        0.1379
     42 O           6.4178    7.6682    1.4983 O.2     1  LIG1       -0.4521
     43 H           8.2321    6.9297    2.1918 H       1  LIG1        0.1069
     44 O           7.1388   10.4597   -0.5402 O.3     1  LIG1       -0.4883
     45 C           7.5159   11.6893    0.0853 C.3     1  LIG1        0.0791
     46 H           7.5084   12.4386   -0.7024 H       1  LIG1        0.0660
     47 H           6.7849   11.9430    0.8535 H       1  LIG1        0.0660
     48 H           8.5164   11.5984    0.5107 H       1  LIG1        0.0660
     49 O           9.5370    9.1890    0.7207 O.3     1  LIG1       -0.5012
     50 H          10.1648    8.5698    1.1074 H       1  LIG1        0.2924
@<TRIPOS>BOND
     1    35    32    1
     2    33    32    1
     3    34    32    1
     4    11     8    1
     5    32    31    1
     6     9     8    1
     7     8     7    1
     8     8    10    1
     9     7     2    1
    10    46    45    1
    11     2     1   ar
    12     2     3   ar
    13     6     1    1
    14     1     5   ar
    15    44    45    1
    16    44    39    1
    17    12     3    1
    18    12    13    1
    19     3     4   ar
    20     5     4   ar
    21     4    14    1
    22    31    27    1
    23    14    18   ar
    24    14    15   ar
    25    19    15    1
    26    19    20    1
    27    18    17   ar
    28    15    16   ar
    29    27    26   ar
    30    27    28   ar
    31    17    16   ar
    32    17    26    1
    33    16    24    1
    34    45    48    1
    35    45    47    1
    36    26    30   ar
    37    36    28    1
    38    36    37    1
    39    28    29   ar
    40    24    25    1
    41    39    38   ar
    42    39    40   ar
    43    30    29   ar
    44    29    38    1
    45    49    40    1
    46    49    50    1
    47    38    42   ar
    48    40    41   ar
    49    21    20    1
    50    20    22    1
    51    20    23    1
    52    42    41   ar
    53    41    43    1
