@<TRIPOS>MOLECULE
mol_data/opt/m06hf/geoms/mol2/12lf12lf-12lf12lf.out
 50 53 0 0 0
SMALL
GASTEIGER

@<TRIPOS>ATOM
      1 C          -0.1151    1.8028   -0.0472 C.ar    1  LIG1        0.1381
      2 C           1.2056    2.0314   -0.2690 C.ar    1  LIG1        0.2002
      3 C           1.3849    3.4636   -0.2419 C.ar    1  LIG1        0.2086
      4 C           0.1443    3.9747    0.0004 C.ar    1  LIG1        0.2184
      5 O          -0.7707    2.9827    0.1178 O.2     1  LIG1       -0.4521
      6 H          -0.7076    0.9096    0.0218 H       1  LIG1        0.1069
      7 O           2.2233    1.1752   -0.4783 O.3     1  LIG1       -0.4888
      8 C           1.8556   -0.1915   -0.4532 C.3     1  LIG1        0.0791
      9 H           2.7655   -0.7587   -0.6259 H       1  LIG1        0.0660
     10 H           1.4310   -0.4501    0.5208 H       1  LIG1        0.0660
     11 H           1.1284   -0.4008   -1.2428 H       1  LIG1        0.0660
     12 O           2.5717    4.0690   -0.4222 O.3     1  LIG1       -0.5007
     13 H           2.4819    5.0377   -0.4422 H       1  LIG1        0.2924
     14 C          -0.2118    5.3652    0.1612 C.ar    1  LIG1        0.2196
     15 C          -1.3144    6.1384    0.3715 C.ar    1  LIG1        0.2117
     16 C          -0.8515    7.5024    0.4396 C.ar    1  LIG1        0.2094
     17 C           0.4955    7.4641    0.2657 C.ar    1  LIG1        0.2195
     18 O           0.8731    6.1684    0.0920 O.2     1  LIG1       -0.4407
     19 O          -2.6290    5.8401    0.5237 O.3     1  LIG1       -0.4883
     20 C          -3.2003    5.0767   -0.5450 C.3     1  LIG1        0.0791
     21 H          -4.2575    4.9817   -0.3121 H       1  LIG1        0.0660
     22 H          -3.0629    5.6054   -1.4895 H       1  LIG1        0.0660
     23 H          -2.7324    4.0935   -0.5904 H       1  LIG1        0.0660
     24 O          -1.6522    8.5661    0.6435 O.3     1  LIG1       -0.5007
     25 H          -2.5463    8.2319    0.7979 H       1  LIG1        0.2924
     26 C           1.5968    8.3946    0.2297 C.ar    1  LIG1        0.2197
     27 C           2.9254    8.1331    0.0529 C.ar    1  LIG1        0.2117
     28 C           3.5920    9.4037    0.1315 C.ar    1  LIG1        0.2094
     29 C           2.6033   10.3261    0.3312 C.ar    1  LIG1        0.2194
     30 O           1.3897    9.7140    0.3805 O.2     1  LIG1       -0.4407
     31 O           3.5081    6.9208   -0.1500 O.3     1  LIG1       -0.4883
     32 C           4.2848    6.4766    0.9718 C.3     1  LIG1        0.0791
     33 H           4.7099    5.5196    0.6806 H       1  LIG1        0.0660
     34 H           5.0692    7.2029    1.1842 H       1  LIG1        0.0660
     35 H           3.6294    6.3524    1.8361 H       1  LIG1        0.0660
     36 O           4.9262    9.5570    0.0472 O.3     1  LIG1       -0.5007
     37 H           5.1471   10.5085    0.0081 H       1  LIG1        0.2924
     38 C           2.6812   11.7652    0.4613 C.ar    1  LIG1        0.2186
     39 C           3.7191   12.6049    0.1963 C.ar    1  LIG1        0.2109
     40 C           3.2670   13.9263    0.5310 C.ar    1  LIG1        0.1979
     41 C           1.9931   13.7810    0.9732 C.ar    1  LIG1        0.1379
     42 O           1.6414   12.4680    0.9413 O.2     1  LIG1       -0.4521
     43 H           1.2520   14.4752    1.3246 H       1  LIG1        0.1069
     44 O           4.9423   12.2483   -0.2983 O.3     1  LIG1       -0.4883
     45 C           5.1127   12.5954   -1.6818 C.3     1  LIG1        0.0791
     46 H           6.1123   12.2687   -1.9560 H       1  LIG1        0.0660
     47 H           4.3607   12.0779   -2.2789 H       1  LIG1        0.0660
     48 H           5.0179   13.6750   -1.7931 H       1  LIG1        0.0660
     49 O           4.0456   15.0261    0.3658 O.3     1  LIG1       -0.5012
     50 H           3.6051   15.8102    0.7102 H       1  LIG1        0.2924
@<TRIPOS>BOND
     1    47    45    1
     2    46    45    1
     3    48    45    1
     4    45    44    1
     5    22    20    1
     6    11     8    1
     7     9     8    1
     8    23    20    1
     9    20    21    1
    10    20    19    1
    11     7     8    1
    12     7     2    1
    13     8    10    1
    14    13    12    1
    15    12     3    1
    16    44    39    1
    17     2     3   ar
    18     2     1   ar
    19     3     4   ar
    20    31    27    1
    21    31    32    1
    22     1     6    1
    23     1     5   ar
    24     4     5   ar
    25     4    14    1
    26    37    36    1
    27    36    28    1
    28    27    28   ar
    29    27    26   ar
    30    18    14   ar
    31    18    17   ar
    32    28    29   ar
    33    14    15   ar
    34    39    38   ar
    35    39    40   ar
    36    26    17    1
    37    26    30   ar
    38    17    16   ar
    39    29    30   ar
    40    29    38    1
    41    49    40    1
    42    49    50    1
    43    15    16   ar
    44    15    19    1
    45    16    24    1
    46    38    42   ar
    47    40    41   ar
    48    24    25    1
    49    33    32    1
    50    42    41   ar
    51    32    34    1
    52    32    35    1
    53    41    43    1
