@<TRIPOS>MOLECULE
mol_data/opt/m06hf/geoms/mol2/12lf12lf-12lf12lf-.out
 50 53 0 0 0
SMALL
GASTEIGER

@<TRIPOS>ATOM
      1 C          -0.3005    1.8235   -0.4043 C.ar    1  LIG1        0.1381
      2 C           1.0582    1.8356   -0.4553 C.ar    1  LIG1        0.2002
      3 C           1.4511    3.2216   -0.4208 C.ar    1  LIG1        0.2086
      4 C           0.2867    3.9258   -0.3534 C.ar    1  LIG1        0.2184
      5 O          -0.7774    3.0917   -0.3415 O.2     1  LIG1       -0.4521
      6 H          -1.0295    1.0343   -0.4077 H       1  LIG1        0.1069
      7 O           1.9479    0.8259   -0.5235 O.3     1  LIG1       -0.4888
      8 C           1.3687   -0.4647   -0.5598 C.3     1  LIG1        0.0791
      9 H           2.1927   -1.1691   -0.6304 H       1  LIG1        0.0660
     10 H           0.7960   -0.6481    0.3535 H       1  LIG1        0.0660
     11 H           0.7171   -0.5618   -1.4328 H       1  LIG1        0.0660
     12 O           2.7301    3.6449   -0.4485 O.3     1  LIG1       -0.5007
     13 H           2.7593    4.6125   -0.4514 H       1  LIG1        0.2924
     14 C           0.1064    5.3552   -0.2734 C.ar    1  LIG1        0.2196
     15 C          -0.9565    6.2061   -0.2260 C.ar    1  LIG1        0.2117
     16 C          -0.4003    7.5342   -0.1181 C.ar    1  LIG1        0.2094
     17 C           0.9520    7.3746   -0.1351 C.ar    1  LIG1        0.2195
     18 O           1.2667    6.0567   -0.2273 O.2     1  LIG1       -0.4407
     19 O          -2.2704    5.8897   -0.2792 O.3     1  LIG1       -0.4883
     20 C          -2.9038    5.9178    1.0011 C.3     1  LIG1        0.0791
     21 H          -3.9509    5.6859    0.8256 H       1  LIG1        0.0660
     22 H          -2.4525    5.1636    1.6486 H       1  LIG1        0.0660
     23 H          -2.8059    6.9094    1.4459 H       1  LIG1        0.0660
     24 O          -1.1356    8.6590   -0.0142 O.3     1  LIG1       -0.5007
     25 H          -0.5601    9.4304    0.1040 H       1  LIG1        0.2924
     26 C           1.9941    8.3592   -0.0585 C.ar    1  LIG1        0.2197
     27 C           3.3548    8.3310   -0.0255 C.ar    1  LIG1        0.2117
     28 C           3.7725    9.7102    0.0742 C.ar    1  LIG1        0.2094
     29 C           2.6321   10.4523    0.0835 C.ar    1  LIG1        0.2194
     30 O           1.5493    9.6362   -0.0078 O.2     1  LIG1       -0.4407
     31 O           4.1432    7.2317   -0.0931 O.3     1  LIG1       -0.4883
     32 C           4.8803    6.9866    1.1096 C.3     1  LIG1        0.0791
     33 H           5.4698    6.0929    0.9233 H       1  LIG1        0.0660
     34 H           5.5315    7.8343    1.3257 H       1  LIG1        0.0660
     35 H           4.1872    6.8189    1.9359 H       1  LIG1        0.0660
     36 O           5.0591   10.1150    0.1478 O.3     1  LIG1       -0.5007
     37 H           5.0923   11.0802    0.1864 H       1  LIG1        0.2924
     38 C           2.3849   11.8694    0.1438 C.ar    1  LIG1        0.2186
     39 C           1.2298   12.5834    0.1542 C.ar    1  LIG1        0.2109
     40 C           1.6314   13.9699    0.2147 C.ar    1  LIG1        0.1979
     41 C           2.9849   13.9800    0.2474 C.ar    1  LIG1        0.1379
     42 O           3.4532   12.6963    0.2114 O.2     1  LIG1       -0.4521
     43 H           3.7165   14.7658    0.2972 H       1  LIG1        0.1069
     44 O          -0.0334   12.0906    0.1307 O.3     1  LIG1       -0.4883
     45 C          -0.7312   12.3791   -1.0866 C.3     1  LIG1        0.0791
     46 H          -1.7232   11.9496   -0.9739 H       1  LIG1        0.0660
     47 H          -0.7984   13.4577   -1.2299 H       1  LIG1        0.0660
     48 H          -0.2096   11.9138   -1.9252 H       1  LIG1        0.0660
     49 O           0.7307   14.9834    0.2237 O.3     1  LIG1       -0.5012
     50 H           1.1730   15.8347    0.3095 H       1  LIG1        0.2924
@<TRIPOS>BOND
     1    48    45    1
     2    11     8    1
     3    47    45    1
     4    45    46    1
     5    45    44    1
     6     9     8    1
     7     8     7    1
     8     8    10    1
     9     7     2    1
    10     2     3   ar
    11     2     1   ar
    12    13    12    1
    13    12     3    1
    14     3     4   ar
    15     6     1    1
    16     1     5   ar
    17     4     5   ar
    18     4    14    1
    19    19    15    1
    20    19    20    1
    21    14    18   ar
    22    14    15   ar
    23    18    17   ar
    24    15    16   ar
    25    17    16   ar
    26    17    26    1
    27    16    24    1
    28    31    27    1
    29    31    32    1
    30    26    27   ar
    31    26    30   ar
    32    27    28   ar
    33    24    25    1
    34    30    29   ar
    35    28    29   ar
    36    28    36    1
    37    29    38    1
    38    44    39    1
    39    38    39   ar
    40    38    42   ar
    41    36    37    1
    42    39    40   ar
    43    42    41   ar
    44    40    49    1
    45    40    41   ar
    46    49    50    1
    47    41    43    1
    48    21    20    1
    49    33    32    1
    50    20    23    1
    51    20    22    1
    52    32    34    1
    53    32    35    1
