@<TRIPOS>MOLECULE
mol_data/opt/m06hf/geoms/mol2/12lf12lf-12lf-12lf.out
 50 53 0 0 0
SMALL
GASTEIGER

@<TRIPOS>ATOM
      1 C          -0.1571    1.9460   -0.1854 C.ar    1  LIG1        0.1381
      2 C           1.2020    1.9948   -0.2173 C.ar    1  LIG1        0.2002
      3 C           1.5587    3.3756   -0.0205 C.ar    1  LIG1        0.2086
      4 C           0.3776    4.0423    0.1123 C.ar    1  LIG1        0.2184
      5 O          -0.6644    3.1880    0.0117 O.2     1  LIG1       -0.4521
      6 H          -0.8668    1.1449   -0.2806 H       1  LIG1        0.1069
      7 O           2.1208    1.0236   -0.3865 O.3     1  LIG1       -0.4888
      8 C           1.5850   -0.2813   -0.5066 C.3     1  LIG1        0.0791
      9 H           2.4321   -0.9513   -0.6232 H       1  LIG1        0.0660
     10 H           1.0205   -0.5408    0.3929 H       1  LIG1        0.0660
     11 H           0.9352   -0.3440   -1.3842 H       1  LIG1        0.0660
     12 O           2.8281    3.8325    0.0161 O.3     1  LIG1       -0.5007
     13 H           2.8245    4.7772    0.2268 H       1  LIG1        0.2924
     14 C           0.1735    5.4579    0.3157 C.ar    1  LIG1        0.2196
     15 C          -0.8842    6.2803    0.5611 C.ar    1  LIG1        0.2117
     16 C          -0.3384    7.6141    0.6749 C.ar    1  LIG1        0.2094
     17 C           1.0068    7.4860    0.5034 C.ar    1  LIG1        0.2195
     18 O           1.3219    6.1803    0.2870 O.2     1  LIG1       -0.4407
     19 O          -2.1787    5.9256    0.7142 O.3     1  LIG1       -0.4883
     20 C          -3.0403    6.4625   -0.2918 C.3     1  LIG1        0.0791
     21 H          -4.0397    6.1126   -0.0482 H       1  LIG1        0.0660
     22 H          -3.0041    7.5525   -0.2716 H       1  LIG1        0.0660
     23 H          -2.7383    6.0899   -1.2723 H       1  LIG1        0.0660
     24 O          -1.0770    8.7148    0.9094 O.3     1  LIG1       -0.5007
     25 H          -0.4946    9.4944    0.9662 H       1  LIG1        0.2924
     26 C           2.0859    8.4413    0.4877 C.ar    1  LIG1        0.2197
     27 C           2.0830    9.8028    0.5249 C.ar    1  LIG1        0.2117
     28 C           3.4597   10.2088    0.4760 C.ar    1  LIG1        0.2094
     29 C           4.1809    9.0544    0.4235 C.ar    1  LIG1        0.2194
     30 O           3.3498    7.9805    0.4359 O.2     1  LIG1       -0.4407
     31 O           0.9721   10.5933    0.5962 O.3     1  LIG1       -0.4883
     32 C           0.7489   11.3620   -0.5963 C.3     1  LIG1        0.0791
     33 H          -0.1383   11.9604   -0.4074 H       1  LIG1        0.0660
     34 H           1.6113   12.0021   -0.7785 H       1  LIG1        0.0660
     35 H           0.5865   10.6857   -1.4369 H       1  LIG1        0.0660
     36 O           3.8831   11.4920    0.4644 O.3     1  LIG1       -0.5007
     37 H           4.8487   11.5081    0.4188 H       1  LIG1        0.2924
     38 C           5.6034    8.8310    0.3376 C.ar    1  LIG1        0.2186
     39 C           6.3687    7.7120    0.4151 C.ar    1  LIG1        0.2109
     40 C           7.7306    8.1588    0.2253 C.ar    1  LIG1        0.1979
     41 C           7.6816    9.5024    0.0729 C.ar    1  LIG1        0.1379
     42 O           6.3818    9.9232    0.1400 O.2     1  LIG1       -0.4521
     43 H           8.4306   10.2567   -0.0841 H       1  LIG1        0.1069
     44 O           5.9567    6.4479    0.6562 O.3     1  LIG1       -0.4883
     45 C           5.8165    5.6473   -0.5221 C.3     1  LIG1        0.0791
     46 H           5.4818    4.6688   -0.1877 H       1  LIG1        0.0660
     47 H           5.0696    6.0947   -1.1812 H       1  LIG1        0.0660
     48 H           6.7764    5.5669   -1.0346 H       1  LIG1        0.0660
     49 O           8.7746    7.2963    0.2195 O.3     1  LIG1       -0.5012
     50 H           9.6081    7.7695    0.1270 H       1  LIG1        0.2924
@<TRIPOS>BOND
     1    35    32    1
     2    11     8    1
     3    23    20    1
     4    47    45    1
     5    48    45    1
     6    34    32    1
     7     9     8    1
     8    32    33    1
     9    32    31    1
    10    45    46    1
    11    45    44    1
    12     8     7    1
    13     8    10    1
    14     7     2    1
    15    20    22    1
    16    20    21    1
    17    20    19    1
    18     6     1    1
    19     2     1   ar
    20     2     3   ar
    21     1     5   ar
    22    43    41    1
    23     3    12    1
    24     3     4   ar
    25     5     4   ar
    26    12    13    1
    27    41    42   ar
    28    41    40   ar
    29     4    14    1
    30    50    49    1
    31    42    38   ar
    32    49    40    1
    33    40    39   ar
    34    18    14   ar
    35    18    17   ar
    36    14    15   ar
    37    38    39   ar
    38    38    29    1
    39    39    44    1
    40    37    36    1
    41    29    30   ar
    42    29    28   ar
    43    30    26   ar
    44    36    28    1
    45    28    27   ar
    46    26    17    1
    47    26    27   ar
    48    17    16   ar
    49    27    31    1
    50    15    16   ar
    51    15    19    1
    52    16    24    1
    53    24    25    1
