@<TRIPOS>MOLECULE
mol_data/opt/m06hf/geoms/mol2/12lf12lf12lf12lf-.out
 50 53 0 0 0
SMALL
GASTEIGER

@<TRIPOS>ATOM
      1 C           0.6904    1.1855    0.9173 C.ar    1  LIG1        0.1381
      2 C           1.9650    1.2816    0.4540 C.ar    1  LIG1        0.2002
      3 C           2.1177    2.6275   -0.0410 C.ar    1  LIG1        0.2086
      4 C           0.9136    3.2306    0.1740 C.ar    1  LIG1        0.2184
      5 O           0.0459    2.3661    0.7552 O.2     1  LIG1       -0.4521
      6 H           0.1277    0.3868    1.3646 H       1  LIG1        0.1069
      7 O           2.9590    0.3735    0.4093 O.3     1  LIG1       -0.4888
      8 C           2.6081   -0.9031    0.9089 C.3     1  LIG1        0.0791
      9 H           3.4901   -1.5281    0.8055 H       1  LIG1        0.0660
     10 H           2.3204   -0.8322    1.9618 H       1  LIG1        0.0660
     11 H           1.7820   -1.3220    0.3271 H       1  LIG1        0.0660
     12 O           3.2453    3.0946   -0.6023 O.3     1  LIG1       -0.5007
     13 H           3.1683    4.0565   -0.7397 H       1  LIG1        0.2924
     14 C           0.4838    4.5875   -0.0858 C.ar    1  LIG1        0.2196
     15 C           1.2137    5.6977   -0.3884 C.ar    1  LIG1        0.2117
     16 C           0.2803    6.7733   -0.5628 C.ar    1  LIG1        0.2094
     17 C          -0.9495    6.2189   -0.3478 C.ar    1  LIG1        0.2195
     18 O          -0.8275    4.8921   -0.0684 O.2     1  LIG1       -0.4407
     19 O           2.5716    5.7534   -0.5095 O.3     1  LIG1       -0.4883
     20 C           3.2048    6.5130    0.5310 C.3     1  LIG1        0.0791
     21 H           4.2700    6.4864    0.3186 H       1  LIG1        0.0660
     22 H           2.8329    7.5368    0.5009 H       1  LIG1        0.0660
     23 H           2.9925    6.0514    1.4961 H       1  LIG1        0.0660
     24 O           0.6321    8.0366   -0.8614 O.3     1  LIG1       -0.5007
     25 H          -0.1609    8.6069   -0.8664 H       1  LIG1        0.2924
     26 C          -2.2661    6.8116   -0.3529 C.ar    1  LIG1        0.2197
     27 C          -2.6559    8.1147   -0.4113 C.ar    1  LIG1        0.2117
     28 C          -4.0913    8.1123   -0.4069 C.ar    1  LIG1        0.2094
     29 C          -4.4574    6.7996   -0.3502 C.ar    1  LIG1        0.2194
     30 O          -3.3510    6.0122   -0.3242 O.2     1  LIG1       -0.4407
     31 O          -1.8244    9.1963   -0.4643 O.3     1  LIG1       -0.4883
     32 C          -1.8906   10.0185    0.7127 C.3     1  LIG1        0.0791
     33 H          -1.2166   10.8522    0.5362 H       1  LIG1        0.0660
     34 H          -2.9128   10.3718    0.8440 H       1  LIG1        0.0660
     35 H          -1.5691    9.4366    1.5776 H       1  LIG1        0.0660
     36 O          -4.8518    9.2275   -0.4276 O.3     1  LIG1       -0.5007
     37 H          -5.7829    8.9717   -0.3642 H       1  LIG1        0.2924
     38 C          -5.7873    6.2271   -0.2894 C.ar    1  LIG1        0.2186
     39 C          -6.3699    4.9963   -0.3310 C.ar    1  LIG1        0.2109
     40 C          -7.7901    5.2161   -0.1829 C.ar    1  LIG1        0.1979
     41 C          -7.9766    6.5459   -0.0713 C.ar    1  LIG1        0.1379
     42 O          -6.7645    7.1716   -0.1373 O.2     1  LIG1       -0.4521
     43 H          -8.8479    7.1611    0.0484 H       1  LIG1        0.1069
     44 O          -5.9424    3.7249   -0.4691 O.3     1  LIG1       -0.4883
     45 C          -4.6494    3.4912   -1.0304 C.3     1  LIG1        0.0791
     46 H          -4.6324    2.4381   -1.2965 H       1  LIG1        0.0660
     47 H          -4.5164    4.1106   -1.9192 H       1  LIG1        0.0660
     48 H          -3.8723    3.7148   -0.3020 H       1  LIG1        0.0660
     49 O          -8.7013    4.2194   -0.1751 O.3     1  LIG1       -0.5012
     50 H          -8.2225    3.3849   -0.2711 H       1  LIG1        0.2924
@<TRIPOS>BOND
     1    47    45    1
     2    46    45    1
     3    45    44    1
     4    45    48    1
     5    25    24    1
     6    24    16    1
     7    13    12    1
     8    12     3    1
     9    16    15   ar
    10    16    17   ar
    11    19    15    1
    12    19    20    1
    13    44    39    1
    14    31    27    1
    15    31    32    1
    16    36    28    1
    17    36    37    1
    18    27    28   ar
    19    27    26   ar
    20    28    29   ar
    21    15    14   ar
    22    26    17    1
    23    26    30   ar
    24    29    30   ar
    25    29    38    1
    26    17    18   ar
    27    39    38   ar
    28    39    40   ar
    29    38    42   ar
    30    50    49    1
    31    40    49    1
    32    40    41   ar
    33    42    41   ar
    34    14    18   ar
    35    14     4    1
    36    41    43    1
    37     3     4   ar
    38     3     2   ar
    39     4     5   ar
    40    21    20    1
    41    11     8    1
    42     7     2    1
    43     7     8    1
    44     2     1   ar
    45    22    20    1
    46    20    23    1
    47    33    32    1
    48    32    34    1
    49    32    35    1
    50     5     1   ar
    51     9     8    1
    52     8    10    1
    53     1     6    1
