@<TRIPOS>MOLECULE
mol_data/opt/m06hf/geoms/mol2/12lf12lf12lf12lf.out
 50 53 0 0 0
SMALL
GASTEIGER

@<TRIPOS>ATOM
      1 C           0.6595    1.1483   -0.7871 C.ar    1  LIG1        0.1381
      2 C           1.9708    1.2109   -0.4330 C.ar    1  LIG1        0.2002
      3 C           2.2071    2.5603    0.0166 C.ar    1  LIG1        0.2086
      4 C           1.0082    3.1990   -0.1118 C.ar    1  LIG1        0.2184
      5 O           0.0695    2.3523   -0.5993 O.2     1  LIG1       -0.4521
      6 H           0.0356    0.3601   -1.1661 H       1  LIG1        0.1069
      7 O           2.9355    0.2696   -0.4512 O.3     1  LIG1       -0.4888
      8 C           2.4991   -1.0056   -0.8812 C.3     1  LIG1        0.0791
      9 H           3.3630   -1.6620   -0.8285 H       1  LIG1        0.0660
     10 H           1.7075   -1.3752   -0.2230 H       1  LIG1        0.0660
     11 H           2.1302   -0.9535   -1.9097 H       1  LIG1        0.0660
     12 O           3.3933    3.0018    0.4691 O.3     1  LIG1       -0.5007
     13 H           3.3461    3.9640    0.6202 H       1  LIG1        0.2924
     14 C           0.6442    4.5760    0.1464 C.ar    1  LIG1        0.2196
     15 C           1.4325    5.6650    0.3696 C.ar    1  LIG1        0.2117
     16 C           0.5526    6.7796    0.5679 C.ar    1  LIG1        0.2094
     17 C          -0.7090    6.2663    0.4506 C.ar    1  LIG1        0.2195
     18 O          -0.6518    4.9298    0.2010 O.2     1  LIG1       -0.4407
     19 O           2.7974    5.6735    0.4071 O.3     1  LIG1       -0.4883
     20 C           3.3921    6.3356   -0.7184 C.3     1  LIG1        0.0791
     21 H           4.4668    6.2784   -0.5690 H       1  LIG1        0.0660
     22 H           3.1033    5.8204   -1.6357 H       1  LIG1        0.0660
     23 H           3.0612    7.3735   -0.7365 H       1  LIG1        0.0660
     24 O           0.9730    8.0349    0.8064 O.3     1  LIG1       -0.5007
     25 H           0.2178    8.6511    0.7475 H       1  LIG1        0.2924
     26 C          -1.9980    6.9152    0.5346 C.ar    1  LIG1        0.2197
     27 C          -2.3127    8.2408    0.5001 C.ar    1  LIG1        0.2117
     28 C          -3.7333    8.3320    0.6812 C.ar    1  LIG1        0.2094
     29 C          -4.1630    7.0412    0.8047 C.ar    1  LIG1        0.2194
     30 O          -3.1118    6.1841    0.7223 O.2     1  LIG1       -0.4407
     31 O          -1.4243    9.2669    0.3529 O.3     1  LIG1       -0.4883
     32 C          -1.6825   10.0938   -0.7922 C.3     1  LIG1        0.0791
     33 H          -0.9344   10.8815   -0.7693 H       1  LIG1        0.0660
     34 H          -1.5862    9.4963   -1.6993 H       1  LIG1        0.0660
     35 H          -2.6850   10.5114   -0.7092 H       1  LIG1        0.0660
     36 O          -4.4216    9.4897    0.7048 O.3     1  LIG1       -0.5007
     37 H          -5.3797    9.3042    0.6438 H       1  LIG1        0.2924
     38 C          -5.5021    6.5196    0.9757 C.ar    1  LIG1        0.2186
     39 C          -6.6991    7.1304    0.7658 C.ar    1  LIG1        0.2109
     40 C          -7.7101    6.1774    1.1309 C.ar    1  LIG1        0.1979
     41 C          -7.0427    5.0673    1.5341 C.ar    1  LIG1        0.1379
     42 O          -5.7027    5.2799    1.4525 O.2     1  LIG1       -0.4521
     43 H          -7.3616    4.1038    1.8876 H       1  LIG1        0.1069
     44 O          -6.8814    8.4013    0.2975 O.3     1  LIG1       -0.4883
     45 C          -7.3791    8.4426   -1.0489 C.3     1  LIG1        0.0791
     46 H          -7.4713    9.4940   -1.3070 H       1  LIG1        0.0660
     47 H          -6.6708    7.9416   -1.7100 H       1  LIG1        0.0660
     48 H          -8.3515    7.9520   -1.0848 H       1  LIG1        0.0660
     49 O          -9.0363    6.4446    1.0198 O.3     1  LIG1       -0.5012
     50 H          -9.5615    5.7096    1.3536 H       1  LIG1        0.2924
@<TRIPOS>BOND
     1    11     8    1
     2    47    45    1
     3    34    32    1
     4    22    20    1
     5    46    45    1
     6     6     1    1
     7    48    45    1
     8    45    44    1
     9     8     9    1
    10     8     7    1
    11     8    10    1
    12    32    33    1
    13    32    35    1
    14    32    31    1
    15     1     5   ar
    16     1     2   ar
    17    23    20    1
    18    20    21    1
    19    20    19    1
    20     5     4   ar
    21     7     2    1
    22     2     3   ar
    23     4     3   ar
    24     4    14    1
    25     3    12    1
    26    14    18   ar
    27    14    15   ar
    28    18    17   ar
    29    44    39    1
    30    31    27    1
    31    15    19    1
    32    15    16   ar
    33    17    26    1
    34    17    16   ar
    35    12    13    1
    36    27    26   ar
    37    27    28   ar
    38    26    30   ar
    39    16    24    1
    40    37    36    1
    41    28    36    1
    42    28    29   ar
    43    30    29   ar
    44    25    24    1
    45    39    38   ar
    46    39    40   ar
    47    29    38    1
    48    38    42   ar
    49    49    40    1
    50    49    50    1
    51    40    41   ar
    52    42    41   ar
    53    41    43    1
