@<TRIPOS>MOLECULE
mol_data/opt/m06hf/geoms/mol2/12lf12lf12lf-12lf-.out
 50 53 0 0 0
SMALL
GASTEIGER

@<TRIPOS>ATOM
      1 C          -6.1370    0.2806    0.1928 C.ar    1  LIG1        0.1381
      2 C          -5.7255   -0.9775   -0.1208 C.ar    1  LIG1        0.2002
      3 C          -4.2867   -0.9289   -0.1695 C.ar    1  LIG1        0.2086
      4 C          -3.9570    0.3592    0.1286 C.ar    1  LIG1        0.2184
      5 O          -5.0662    1.0988    0.3414 O.2     1  LIG1       -0.4521
      6 H          -7.1047    0.7239    0.3385 H       1  LIG1        0.1069
      7 O          -6.4284   -2.1023   -0.3563 O.3     1  LIG1       -0.4888
      8 C          -7.8322   -1.9480   -0.2548 C.3     1  LIG1        0.0791
      9 H          -8.2654   -2.9205   -0.4689 H       1  LIG1        0.0660
     10 H          -8.1046   -1.6293    0.7552 H       1  LIG1        0.0660
     11 H          -8.1841   -1.2125   -0.9836 H       1  LIG1        0.0660
     12 O          -3.4996   -1.9875   -0.4593 O.3     1  LIG1       -0.5007
     13 H          -2.5949   -1.6877   -0.6267 H       1  LIG1        0.2924
     14 C          -2.6412    0.9469    0.2109 C.ar    1  LIG1        0.2196
     15 C          -2.1231    2.1829    0.4519 C.ar    1  LIG1        0.2117
     16 C          -0.6876    2.0401    0.3538 C.ar    1  LIG1        0.2094
     17 C          -0.4553    0.7305    0.0753 C.ar    1  LIG1        0.2195
     18 O          -1.6361    0.0590   -0.0068 O.2     1  LIG1       -0.4407
     19 O          -2.7966    3.3159    0.7464 O.3     1  LIG1       -0.4883
     20 C          -2.7431    4.2921   -0.2974 C.3     1  LIG1        0.0791
     21 H          -3.2286    3.8991   -1.1922 H       1  LIG1        0.0660
     22 H          -3.2815    5.1596    0.0745 H       1  LIG1        0.0660
     23 H          -1.7062    4.5546   -0.5111 H       1  LIG1        0.0660
     24 O           0.1853    3.0540    0.5144 O.3     1  LIG1       -0.5007
     25 H           1.0891    2.7383    0.3770 H       1  LIG1        0.2924
     26 C           0.7500   -0.0289   -0.1083 C.ar    1  LIG1        0.2197
     27 C           0.9718   -1.3535   -0.3211 C.ar    1  LIG1        0.2117
     28 C           2.3953   -1.4984   -0.4557 C.ar    1  LIG1        0.2094
     29 C           2.9350   -0.2613   -0.2951 C.ar    1  LIG1        0.2194
     30 O           1.9238    0.6368   -0.0755 O.2     1  LIG1       -0.4407
     31 O           0.0826   -2.3781   -0.4287 O.3     1  LIG1       -0.4883
     32 C          -0.4318   -2.8315    0.8340 C.3     1  LIG1        0.0791
     33 H          -1.0776   -3.6767    0.6103 H       1  LIG1        0.0660
     34 H           0.3928   -3.1366    1.4803 H       1  LIG1        0.0660
     35 H          -1.0074   -2.0334    1.3042 H       1  LIG1        0.0660
     36 O           3.0428   -2.6624   -0.6867 O.3     1  LIG1       -0.5007
     37 H           2.3883   -3.3235   -0.9492 H       1  LIG1        0.2924
     38 C           4.2916    0.2447   -0.3396 C.ar    1  LIG1        0.2186
     39 C           5.5087   -0.3065   -0.0693 C.ar    1  LIG1        0.2109
     40 C           6.4843    0.7045   -0.3765 C.ar    1  LIG1        0.1979
     41 C           5.7938    1.7898   -0.7938 C.ar    1  LIG1        0.1379
     42 O           4.4635    1.5159   -0.7717 O.2     1  LIG1       -0.4521
     43 H           6.0918    2.7709   -1.1112 H       1  LIG1        0.1069
     44 O           5.8929   -1.5165    0.4040 O.3     1  LIG1       -0.4883
     45 C           5.2050   -1.9769    1.5693 C.3     1  LIG1        0.0791
     46 H           5.7875   -2.8130    1.9480 H       1  LIG1        0.0660
     47 H           5.1598   -1.1771    2.3105 H       1  LIG1        0.0660
     48 H           4.2047   -2.3139    1.3036 H       1  LIG1        0.0660
     49 O           7.8201    0.5423   -0.2344 O.3     1  LIG1       -0.5012
     50 H           7.9713   -0.3634    0.0668 H       1  LIG1        0.2924
@<TRIPOS>BOND
     1    21    20    1
     2    43    41    1
     3    11     8    1
     4    37    36    1
     5    41    42   ar
     6    41    40   ar
     7    42    38   ar
     8    36    28    1
     9    13    12    1
    10    23    20    1
    11     9     8    1
    12    12     3    1
    13    28    27   ar
    14    28    29   ar
    15    31    27    1
    16    31    32    1
    17    40    49    1
    18    40    39   ar
    19     7     8    1
    20     7     2    1
    21    38    29    1
    22    38    39   ar
    23    27    26   ar
    24    20    22    1
    25    20    19    1
    26    29    30   ar
    27     8    10    1
    28    49    50    1
    29     3     2   ar
    30     3     4   ar
    31     2     1   ar
    32    26    30   ar
    33    26    17    1
    34    39    44    1
    35    18    17   ar
    36    18    14   ar
    37    17    16   ar
    38     4    14    1
    39     4     5   ar
    40     1     6    1
    41     1     5   ar
    42    14    15   ar
    43    16    15   ar
    44    16    24    1
    45    25    24    1
    46    44    45    1
    47    15    19    1
    48    33    32    1
    49    32    35    1
    50    32    34    1
    51    48    45    1
    52    45    46    1
    53    45    47    1
