@<TRIPOS>MOLECULE
mol_data/opt/m06hf/geoms/mol2/12lf12id4ea-6id.out
 50 53 0 0 0
SMALL
GASTEIGER

@<TRIPOS>ATOM
      1 C           0.7145    1.7130    0.8593 C.ar    1  LIG1        0.1381
      2 C           1.6754    1.7142   -0.1028 C.ar    1  LIG1        0.2002
      3 C           1.7458    3.0686   -0.5873 C.ar    1  LIG1        0.2085
      4 C           0.8348    3.7729    0.1337 C.ar    1  LIG1        0.2149
      5 O           0.1994    2.9567    1.0073 O.2     1  LIG1       -0.4522
      6 H           0.3068    0.9440    1.4894 H       1  LIG1        0.1069
      7 O           2.4476    0.7247   -0.5887 O.3     1  LIG1       -0.4888
      8 C           2.2203   -0.5436    0.0007 C.3     1  LIG1        0.0791
      9 H           2.9051   -1.2338   -0.4822 H       1  LIG1        0.0660
     10 H           2.4249   -0.5025    1.0740 H       1  LIG1        0.0660
     11 H           1.1870   -0.8594   -0.1698 H       1  LIG1        0.0660
     12 O           2.5727    3.4782   -1.5752 O.3     1  LIG1       -0.5007
     13 H           2.2678    4.3267   -1.9206 H       1  LIG1        0.2924
     14 C           0.4988    5.1854    0.0705 C.ar    1  LIG1        0.1785
     15 C           1.2893    6.2842   -0.0616 C.ar    1  LIG1        0.0165
     16 C           0.3660    7.3906   -0.1381 C.ar    1  LIG1        0.1010
     17 C          -0.8959    6.8765   -0.0166 C.ar    1  LIG1        0.1546
     18 O          -0.8110    5.5398    0.0910 O.2     1  LIG1       -0.4500
     19 C           2.7925    6.3755   -0.0785 C.3     1  LIG1       -0.0348
     20 H           3.1176    7.0998    0.6687 H       1  LIG1        0.0279
     21 H           3.1458    6.7165   -1.0535 H       1  LIG1        0.0279
     22 H           3.2310    5.4042    0.1465 H       1  LIG1        0.0279
     23 N           1.1400    9.8078   -0.6006 N.1     1  LIG1       -0.1907
     24 C           0.7581    8.7478   -0.3813 C.1     1  LIG1        0.1033
     25 C          -2.5927    8.6388    0.5995 C.ar    1  LIG1        0.0359
     26 C          -3.9052    9.1176    0.5153 C.ar    1  LIG1       -0.0379
     27 C          -2.2562    7.4398   -0.0472 C.ar    1  LIG1        0.0340
     28 C          -4.8818    8.4101   -0.1785 C.ar    1  LIG1       -0.0149
     29 H          -4.1577   10.0385    1.0248 H       1  LIG1        0.0636
     30 C          -3.2446    6.7237   -0.7300 C.ar    1  LIG1       -0.0493
     31 C          -4.5436    7.2019   -0.7980 C.ar    1  LIG1       -0.0532
     32 H          -2.9766    5.7942   -1.2145 H       1  LIG1        0.0625
     33 C          -1.6422    9.3728    1.3969 C.1     1  LIG1       -0.0689
     34 C          -0.8793   10.0082    2.0728 C.1     1  LIG1       -0.1139
     35 H          -0.1803   10.5731    2.6463 H       1  LIG1        0.1232
     36 H          -5.2962    6.6526   -1.3488 H       1  LIG1        0.0624
     37 C          -7.3845    8.2373    0.2071 C.ar    1  LIG1        0.0460
     38 C          -6.2701    8.9529   -0.2708 C.ar    1  LIG1        0.0044
     39 C          -6.4810   10.2063   -0.8354 C.ar    1  LIG1       -0.0335
     40 C          -7.7827   10.6928   -0.9258 C.ar    1  LIG1        0.0704
     41 C          -8.8286    9.9051   -0.4446 C.ar    1  LIG1        0.0452
     42 N          -8.6260    8.7185    0.1096 N.ar    1  LIG1       -0.2583
     43 H          -5.6485   10.7878   -1.2113 H       1  LIG1        0.0637
     44 H          -9.8513   10.2552   -0.5079 H       1  LIG1        0.0843
     45 C          -7.2585    6.8859    0.8802 C.3     1  LIG1       -0.0218
     46 H          -6.3059    6.7891    1.3986 H       1  LIG1        0.0293
     47 H          -7.3367    6.0908    0.1355 H       1  LIG1        0.0293
     48 H          -8.0860    6.7842    1.5788 H       1  LIG1        0.0293
     49 N          -8.2773   13.0130   -1.9729 N.1     1  LIG1       -0.1908
     50 C          -8.0571   11.9868   -1.5101 C.1     1  LIG1        0.1007
@<TRIPOS>BOND
     1    49    50    3
     2    13    12    1
     3    12     3    1
     4    50    40    1
     5    36    31    1
     6    32    30    1
     7    43    39    1
     8    21    19    1
     9    40    39   ar
    10    40    41   ar
    11    39    38   ar
    12    31    30   ar
    13    31    28   ar
    14    30    27   ar
    15    23    24    3
    16     7     2    1
    17     7     8    1
    18     3     2   ar
    19     3     4   ar
    20    44    41    1
    21     9     8    1
    22    41    42   ar
    23    24    16    1
    24    38    28    1
    25    38    37   ar
    26    28    26   ar
    27    11     8    1
    28    16    15   ar
    29    16    17   ar
    30     2     1   ar
    31    19    15    1
    32    19    22    1
    33    19    20    1
    34    15    14   ar
    35    27    17    1
    36    27    25   ar
    37    17    18   ar
    38     8    10    1
    39    14    18   ar
    40    14     4    1
    41    42    37   ar
    42     4     5   ar
    43    47    45    1
    44    37    45    1
    45    26    25   ar
    46    26    29    1
    47    25    33    1
    48     1     5   ar
    49     1     6    1
    50    45    46    1
    51    45    48    1
    52    33    34    3
    53    34    35    1
