@<TRIPOS>MOLECULE
mol_data/opt/m06hf/geoms/mol2/12lf12lf-.out
 26 27 0 0 0
SMALL
GASTEIGER

@<TRIPOS>ATOM
      1 C           0.0675    1.8216    0.0000 C.ar    1  LIG1        0.1381
      2 C           1.4274    1.8145    0.0000 C.ar    1  LIG1        0.2002
      3 C           1.8353    3.1956   -0.0001 C.ar    1  LIG1        0.2086
      4 C           0.6830    3.9187   -0.0001 C.ar    1  LIG1        0.2184
      5 O          -0.3909    3.0979   -0.0000 O.2     1  LIG1       -0.4521
      6 H          -0.6726    1.0435    0.0001 H       1  LIG1        0.1069
      7 O           2.3072    0.7936    0.0000 O.3     1  LIG1       -0.4888
      8 C           1.7144   -0.4910    0.0001 C.3     1  LIG1        0.0791
      9 H           2.5308   -1.2074    0.0001 H       1  LIG1        0.0660
     10 H           1.0996   -0.6230    0.8953 H       1  LIG1        0.0660
     11 H           1.0996   -0.6230   -0.8951 H       1  LIG1        0.0660
     12 O           3.1214    3.6059   -0.0001 O.3     1  LIG1       -0.5007
     13 H           3.1438    4.5713   -0.0001 H       1  LIG1        0.2924
     14 C           0.5062    5.3547   -0.0001 C.ar    1  LIG1        0.2186
     15 C          -0.5776    6.1769   -0.0000 C.ar    1  LIG1        0.2109
     16 C          -0.0405    7.5289   -0.0001 C.ar    1  LIG1        0.1979
     17 C           1.3063    7.3997   -0.0003 C.ar    1  LIG1        0.1379
     18 O           1.6478    6.0871   -0.0003 O.2     1  LIG1       -0.4521
     19 H           2.0942    8.1289   -0.0004 H       1  LIG1        0.1069
     20 O          -1.8531    5.7138    0.0001 O.3     1  LIG1       -0.4883
     21 C          -2.8983    6.6628   -0.0002 C.3     1  LIG1        0.0791
     22 H          -3.8224    6.0915   -0.0004 H       1  LIG1        0.0660
     23 H          -2.8649    7.2793    0.9044 H       1  LIG1        0.0660
     24 H          -2.8644    7.2793   -0.9048 H       1  LIG1        0.0660
     25 O          -0.6691    8.7381   -0.0001 O.3     1  LIG1       -0.5012
     26 H          -1.6222    8.6380    0.0005 H       1  LIG1        0.2924
@<TRIPOS>BOND
     1    24    21    1
     2    11     8    1
     3    22    21    1
     4    19    17    1
     5    18    17   ar
     6    18    14   ar
     7    17    16   ar
     8    21    20    1
     9    21    23    1
    10    13    12    1
    11    14     4    1
    12    14    15   ar
    13    12     3    1
    14    16    25    1
    15    16    15   ar
    16     4     3   ar
    17     4     5   ar
    18     3     2   ar
    19    25    26    1
    20    15    20    1
    21     5     1   ar
    22     2     1   ar
    23     2     7    1
    24     1     6    1
    25     7     8    1
    26     8     9    1
    27     8    10    1
