@<TRIPOS>MOLECULE
mol_data/opt/m06hf/geoms/mol2/12lf12lf.out
 26 27 0 0 0
SMALL
GASTEIGER

@<TRIPOS>ATOM
      1 C           0.0417    1.5727   -0.3357 C.ar    1  LIG1        0.1381
      2 C           1.2902    1.5642    0.2014 C.ar    1  LIG1        0.2002
      3 C           1.6217    2.9394    0.4810 C.ar    1  LIG1        0.2086
      4 C           0.5369    3.6616    0.0825 C.ar    1  LIG1        0.2184
      5 O          -0.4209    2.8436   -0.4179 O.2     1  LIG1       -0.4521
      6 H          -0.6133    0.7975   -0.6880 H       1  LIG1        0.1069
      7 O           2.1302    0.5458    0.4721 O.3     1  LIG1       -0.4888
      8 C           1.6254   -0.7347    0.1443 C.3     1  LIG1        0.0791
      9 H           2.3936   -1.4498    0.4244 H       1  LIG1        0.0660
     10 H           0.7066   -0.9338    0.7042 H       1  LIG1        0.0660
     11 H           1.4253   -0.8000   -0.9291 H       1  LIG1        0.0660
     12 O           2.7805    3.3290    1.0399 O.3     1  LIG1       -0.5007
     13 H           2.8434    4.3015    1.0190 H       1  LIG1        0.2924
     14 C           0.3119    5.0935    0.0984 C.ar    1  LIG1        0.2186
     15 C           1.1979    6.1121    0.2615 C.ar    1  LIG1        0.2109
     16 C           0.4323    7.3273    0.2161 C.ar    1  LIG1        0.1979
     17 C          -0.8557    6.9466    0.0305 C.ar    1  LIG1        0.1379
     18 O          -0.9306    5.5899   -0.0305 O.2     1  LIG1       -0.4521
     19 H          -1.7779    7.4897   -0.0706 H       1  LIG1        0.1069
     20 O           2.5476    5.9915    0.4336 O.3     1  LIG1       -0.4883
     21 C           3.2985    6.3069   -0.7486 C.3     1  LIG1        0.0791
     22 H           4.3451    6.1804   -0.4853 H       1  LIG1        0.0660
     23 H           3.0169    5.6219   -1.5494 H       1  LIG1        0.0660
     24 H           3.0969    7.3388   -1.0356 H       1  LIG1        0.0660
     25 O           1.0059    8.5529    0.3229 O.3     1  LIG1       -0.5012
     26 H           0.3349    9.2428    0.3575 H       1  LIG1        0.2924
@<TRIPOS>BOND
     1    23    21    1
     2    24    21    1
     3    11     8    1
     4    21    22    1
     5    21    20    1
     6     6     1    1
     7     5     1   ar
     8     5     4   ar
     9     1     2   ar
    10    19    17    1
    11    18    17   ar
    12    18    14   ar
    13    17    16   ar
    14     4    14    1
    15     4     3   ar
    16    14    15   ar
    17     8     9    1
    18     8     7    1
    19     8    10    1
    20     2     7    1
    21     2     3   ar
    22    16    15   ar
    23    16    25    1
    24    15    20    1
    25    25    26    1
    26     3    12    1
    27    13    12    1
