@<TRIPOS>MOLECULE
mol_data/opt/m06hf/geoms/mol2/12lf.out
 14 14 0 0 0
SMALL
GASTEIGER

@<TRIPOS>ATOM
      1 C           0.0623    1.9447    0.0000 C.ar    1  LIG1        0.1370
      2 C           1.4190    1.8877    0.0000 C.ar    1  LIG1        0.1994
      3 C           1.8756    3.2564   -0.0000 C.ar    1  LIG1        0.1971
      4 C           0.7600    4.0226   -0.0001 C.ar    1  LIG1        0.1368
      5 O          -0.3428    3.2372   -0.0001 O.2     1  LIG1       -0.4635
      6 H          -0.7069    1.1945    0.0000 H       1  LIG1        0.1069
      7 H           0.6045    5.0869   -0.0001 H       1  LIG1        0.1069
      8 O           2.2646    0.8377    0.0001 O.3     1  LIG1       -0.4888
      9 C           1.6297   -0.4275    0.0001 C.3     1  LIG1        0.0791
     10 H           2.4228   -1.1697    0.0001 H       1  LIG1        0.0660
     11 H           1.0111   -0.5406    0.8948 H       1  LIG1        0.0660
     12 H           1.0111   -0.5406   -0.8947 H       1  LIG1        0.0660
     13 O           3.1917    3.5863   -0.0000 O.3     1  LIG1       -0.5012
     14 H           3.2953    4.5435   -0.0000 H       1  LIG1        0.2924
@<TRIPOS>BOND
     1    12     9    1
     2     5     4   ar
     3     5     1   ar
     4     7     4    1
     5     4     3   ar
     6     3    13    1
     7     3     2   ar
     8    14    13    1
     9     1     2   ar
    10     1     6    1
    11     2     8    1
    12     8     9    1
    13     9    10    1
    14     9    11    1
