@<TRIPOS>MOLECULE
mol_data/opt/m06hf/geoms/mol2/12lf12lf-12lf.out
 38 40 0 0 0
SMALL
GASTEIGER

@<TRIPOS>ATOM
      1 C          -0.1170    1.8154    0.1401 C.ar    1  LIG1        0.1381
      2 C           1.1983    1.9224   -0.1876 C.ar    1  LIG1        0.2002
      3 C           1.4972    3.3325   -0.2097 C.ar    1  LIG1        0.2086
      4 C           0.3263    3.9518    0.1138 C.ar    1  LIG1        0.2184
      5 O          -0.6557    3.0473    0.3200 O.2     1  LIG1       -0.4521
      6 H          -0.7762    0.9783    0.2760 H       1  LIG1        0.1069
      7 O           2.1218    0.9777   -0.4520 O.3     1  LIG1       -0.4888
      8 C           1.6450   -0.3520   -0.3629 C.3     1  LIG1        0.0791
      9 H           2.4893   -0.9979   -0.5851 H       1  LIG1        0.0660
     10 H           1.2734   -0.5528    0.6459 H       1  LIG1        0.0660
     11 H           0.8462   -0.5166   -1.0918 H       1  LIG1        0.0660
     12 O           2.7111    3.8418   -0.4995 O.3     1  LIG1       -0.5007
     13 H           2.6638    4.8062   -0.5901 H       1  LIG1        0.2924
     14 C           0.0839    5.3686    0.2381 C.ar    1  LIG1        0.2196
     15 C          -0.9643    6.1838    0.5433 C.ar    1  LIG1        0.2117
     16 C          -0.4549    7.5337    0.4587 C.ar    1  LIG1        0.2094
     17 C           0.8583    7.4247    0.1251 C.ar    1  LIG1        0.2194
     18 O           1.1880    6.1139   -0.0038 O.2     1  LIG1       -0.4407
     19 O          -2.2251    5.8247    0.8752 O.3     1  LIG1       -0.4883
     20 C          -3.1590    6.0158   -0.1892 C.3     1  LIG1        0.0791
     21 H          -4.1319    5.7389    0.2080 H       1  LIG1        0.0660
     22 H          -3.1625    7.0620   -0.4996 H       1  LIG1        0.0660
     23 H          -2.8949    5.3718   -1.0299 H       1  LIG1        0.0660
     24 O          -1.2003    8.6371    0.6838 O.3     1  LIG1       -0.5007
     25 H          -0.6466    9.4241    0.5983 H       1  LIG1        0.2924
     26 C           1.9291    8.3709   -0.0516 C.ar    1  LIG1        0.2186
     27 C           3.2438    8.1782   -0.3314 C.ar    1  LIG1        0.2109
     28 C           3.8340    9.4965   -0.3444 C.ar    1  LIG1        0.1979
     29 C           2.8322   10.3708   -0.0885 C.ar    1  LIG1        0.1379
     30 O           1.6606    9.6878    0.0857 O.2     1  LIG1       -0.4521
     31 H           2.7883   11.4412   -0.0052 H       1  LIG1        0.1069
     32 O           3.8659    6.9929   -0.5560 O.3     1  LIG1       -0.4883
     33 C           4.6936    6.5723    0.5356 C.3     1  LIG1        0.0791
     34 H           5.1514    5.6374    0.2229 H       1  LIG1        0.0660
     35 H           5.4576    7.3254    0.7315 H       1  LIG1        0.0660
     36 H           4.0752    6.4133    1.4209 H       1  LIG1        0.0660
     37 O           5.1561    9.6936   -0.5695 O.3     1  LIG1       -0.5012
     38 H           5.3652   10.6339   -0.5781 H       1  LIG1        0.2924
@<TRIPOS>BOND
     1    11     8    1
     2    23    20    1
     3    13    12    1
     4     9     8    1
     5    38    37    1
     6    37    28    1
     7    32    27    1
     8    32    33    1
     9    22    20    1
    10    12     3    1
    11     7     8    1
    12     7     2    1
    13     8    10    1
    14    28    27   ar
    15    28    29   ar
    16    27    26   ar
    17     3     2   ar
    18     3     4   ar
    19    20    21    1
    20    20    19    1
    21     2     1   ar
    22    29    31    1
    23    29    30   ar
    24    26    30   ar
    25    26    17    1
    26    18    17   ar
    27    18    14   ar
    28     4    14    1
    29     4     5   ar
    30    17    16   ar
    31     1     6    1
    32     1     5   ar
    33    34    33    1
    34    14    15   ar
    35    16    15   ar
    36    16    24    1
    37    33    35    1
    38    33    36    1
    39    15    19    1
    40    25    24    1
