@<TRIPOS>MOLECULE
mol_data/opt/m06hf/geoms/mol2/12lf13dh13lh12ae-.out
 58 61 0 0 0
SMALL
GASTEIGER

@<TRIPOS>ATOM
      1 C           0.7368    1.7060    0.9928 C.ar    1  LIG1        0.0993
      2 C           1.6089    1.6510   -0.0452 C.ar    1  LIG1        0.0297
      3 C           1.7594    3.0322   -0.4516 C.ar    1  LIG1        0.1717
      4 C           0.9806    3.7829    0.3768 C.ar    1  LIG1        0.2149
      5 O           0.3511    2.9622    1.2578 O.2     1  LIG1       -0.4556
      6 H           0.3130    0.9305    1.6083 H       1  LIG1        0.1033
      7 C           2.1903    0.3905   -0.6401 C.3     1  LIG1       -0.0332
      8 H           3.2737    0.3501   -0.5232 H       1  LIG1        0.0280
      9 H           1.9479    0.3197   -1.7010 H       1  LIG1        0.0280
     10 H           1.7602   -0.4740   -0.1341 H       1  LIG1        0.0280
     11 O           2.4857    3.5572   -1.4708 O.3     1  LIG1       -0.4909
     12 C           3.7306    2.9330   -1.7555 C.3     1  LIG1        0.0790
     13 H           4.2900    3.6432   -2.3601 H       1  LIG1        0.0660
     14 H           4.2743    2.7223   -0.8311 H       1  LIG1        0.0660
     15 H           3.5843    2.0106   -2.3183 H       1  LIG1        0.0660
     16 C           0.6578    5.2056    0.4198 C.ar    1  LIG1        0.2158
     17 C           1.3519    6.3627    0.6292 C.ar    1  LIG1        0.1723
     18 C           0.4196    7.4533    0.5146 C.ar    1  LIG1        0.0378
     19 C          -0.7771    6.8669    0.2393 C.ar    1  LIG1        0.1426
     20 O          -0.6488    5.5253    0.1842 O.2     1  LIG1       -0.4475
     21 O           2.6397    6.6004    0.9420 O.3     1  LIG1       -0.4909
     22 C           3.4649    5.4668    1.1590 C.3     1  LIG1        0.0790
     23 H           4.4282    5.8564    1.4775 H       1  LIG1        0.0660
     24 H           3.0354    4.8301    1.9362 H       1  LIG1        0.0660
     25 H           3.5670    4.9025    0.2301 H       1  LIG1        0.0660
     26 C           0.7567    8.8967    0.7722 C.3     1  LIG1       -0.0326
     27 H          -0.1474    9.4542    1.0171 H       1  LIG1        0.0280
     28 H           1.2344    9.3485   -0.0991 H       1  LIG1        0.0280
     29 H           1.4518    8.9525    1.6098 H       1  LIG1        0.0280
     30 C          -2.4463    8.4784   -0.7515 C.ar    1  LIG1       -0.0392
     31 C          -3.7776    8.9004   -0.8134 C.ar    1  LIG1       -0.0501
     32 C          -2.1484    7.3980    0.0868 C.ar    1  LIG1        0.0209
     33 C          -4.7869    8.2773   -0.0842 C.ar    1  LIG1       -0.0114
     34 H          -4.0425    9.7250   -1.4665 H       1  LIG1        0.0627
     35 C          -3.1657    6.7611    0.8097 C.ar    1  LIG1       -0.0473
     36 C          -4.4874    7.1825    0.7465 C.ar    1  LIG1       -0.0420
     37 H          -2.8983    5.9226    1.4417 H       1  LIG1        0.0627
     38 C          -1.4081    9.1628   -1.6228 C.3     1  LIG1       -0.0390
     39 H          -1.8630    9.4543   -2.5696 H       1  LIG1        0.0278
     40 H          -0.5719    8.4926   -1.8202 H       1  LIG1        0.0278
     41 H          -1.0257   10.0623   -1.1367 H       1  LIG1        0.0278
     42 C          -5.5673    6.5049    1.5700 C.3     1  LIG1       -0.0391
     43 H          -5.1285    5.7299    2.1967 H       1  LIG1        0.0278
     44 H          -6.3179    6.0532    0.9178 H       1  LIG1        0.0278
     45 H          -6.0666    7.2362    2.2077 H       1  LIG1        0.0278
     46 C          -7.1551    8.0101   -0.9341 C.ar    1  LIG1        0.1240
     47 C          -6.1914    8.7704   -0.2152 C.ar    1  LIG1        0.0231
     48 C          -6.5994    9.9766    0.3118 C.ar    1  LIG1       -0.0319
     49 C          -7.9282   10.3931    0.1445 C.ar    1  LIG1        0.0705
     50 C          -8.7947    9.5638   -0.5624 C.ar    1  LIG1        0.0471
     51 N          -8.4200    8.4078   -1.0916 N.ar    1  LIG1       -0.2388
     52 H          -5.8964   10.5931    0.8579 H       1  LIG1        0.0638
     53 H          -9.8280    9.8542   -0.7079 H       1  LIG1        0.0843
     54 N          -6.8174    6.8179   -1.4867 N.pl3   1  LIG1       -0.3427
     55 H          -7.4996    6.3855   -2.0890 H       1  LIG1        0.1437
     56 H          -5.8445    6.5696   -1.5782 H       1  LIG1        0.1437
     57 N          -8.7695   12.6429    1.1131 N.1     1  LIG1       -0.1908
     58 C          -8.3962   11.6453    0.6846 C.1     1  LIG1        0.1007
@<TRIPOS>BOND
     1    39    38    1
     2    13    12    1
     3    15    12    1
     4    55    54    1
     5    40    38    1
     6    12    11    1
     7    12    14    1
     8     9     7    1
     9    38    41    1
    10    38    30    1
    11    56    54    1
    12    54    46    1
    13    11     3    1
    14    34    31    1
    15    51    46   ar
    16    51    50   ar
    17    46    47   ar
    18    31    30   ar
    19    31    33   ar
    20    30    32   ar
    21    53    50    1
    22     7     8    1
    23     7    10    1
    24     7     2    1
    25    50    49   ar
    26     3     2   ar
    27     3     4   ar
    28    47    33    1
    29    47    48   ar
    30    28    26    1
    31    33    36   ar
    32     2     1   ar
    33    32    19    1
    34    32    35   ar
    35    49    48   ar
    36    49    58    1
    37    20    19   ar
    38    20    16   ar
    39    25    22    1
    40    19    18   ar
    41    48    52    1
    42     4    16    1
    43     4     5   ar
    44    16    17   ar
    45    18    17   ar
    46    18    26    1
    47    17    21    1
    48    58    57    3
    49    36    35   ar
    50    36    42    1
    51    26    27    1
    52    26    29    1
    53    35    37    1
    54    44    42    1
    55    21    22    1
    56     1     5   ar
    57     1     6    1
    58    22    23    1
    59    22    24    1
    60    42    43    1
    61    42    45    1
