@<TRIPOS>MOLECULE
mol_data/opt/m06hf/geoms/mol2/12lh13dl-4ld12fh-12ll-12ff-6ia13fa.out
 98 105 0 0 0
SMALL
GASTEIGER

@<TRIPOS>ATOM
      1 C           1.8582    3.4023    3.6852 C.ar    1  LIG1        0.1361
      2 C           3.1898    3.6268    3.7882 C.ar    1  LIG1        0.1789
      3 C           3.5116    4.7509    2.9357 C.ar    1  LIG1        0.1148
      4 C           2.3214    5.1053    2.3688 C.ar    1  LIG1        0.1765
      5 O           1.3152    4.2940    2.8223 O.2     1  LIG1       -0.4558
      6 H           1.1929    2.6828    4.1264 H       1  LIG1        0.1068
      7 O           4.1545    3.0085    4.5019 O.3     1  LIG1       -0.4901
      8 C           3.7057    1.9161    5.2855 C.3     1  LIG1        0.0790
      9 H           4.5792    1.5214    5.7956 H       1  LIG1        0.0660
     10 H           2.9674    2.2577    6.0153 H       1  LIG1        0.0660
     11 H           3.2674    1.1489    4.6416 H       1  LIG1        0.0660
     12 N           4.7726    5.3017    2.8876 N.pl3   1  LIG1       -0.3521
     13 H           5.4825    4.6952    3.2748 H       1  LIG1        0.1425
     14 H           5.0500    5.7578    2.0289 H       1  LIG1        0.1425
     15 C           1.8986    6.1573    1.4668 C.ar    1  LIG1        0.1057
     16 C           2.5808    6.9422    0.5475 C.ar    1  LIG1        0.1222
     17 C           1.6395    7.8428   -0.0352 C.ar    1  LIG1        0.1634
     18 C           0.4051    7.5760    0.5287 C.ar    1  LIG1        0.0941
     19 N           0.6054    6.5455    1.4278 N.ar    1  LIG1       -0.3476
     20 H          -0.0927    6.1784    2.0587 H       1  LIG1        0.1661
     21 N           5.0607    6.6695   -0.0939 N.1     1  LIG1       -0.1907
     22 C           3.9528    6.8126    0.1801 C.1     1  LIG1        0.1051
     23 O           1.9989    8.7535   -0.9651 O.3     1  LIG1       -0.4917
     24 C           1.3110    8.6632   -2.2132 C.3     1  LIG1        0.0789
     25 H           1.8165    9.3559   -2.8806 H       1  LIG1        0.0660
     26 H           1.3826    7.6448   -2.5990 H       1  LIG1        0.0660
     27 H           0.2689    8.9572   -2.0951 H       1  LIG1        0.0660
     28 C          -1.1686    9.4918    0.0457 C.ar    1  LIG1        0.1300
     29 C          -2.4527    9.9881   -0.1130 C.ar    1  LIG1       -0.0073
     30 C          -0.9453    8.1342    0.3425 C.ar    1  LIG1        0.0448
     31 C          -3.5756    9.1655    0.0375 C.ar    1  LIG1        0.0418
     32 H          -2.5708   11.0353   -0.3590 H       1  LIG1        0.0662
     33 C          -2.0635    7.3152    0.4818 C.ar    1  LIG1       -0.0309
     34 C          -3.3608    7.8117    0.3465 C.ar    1  LIG1        0.0634
     35 H          -1.9397    6.2556    0.6681 H       1  LIG1        0.0638
     36 O          -0.1249   10.3424   -0.1597 O.3     1  LIG1       -0.4944
     37 C           0.5667   10.7703    1.0177 C.3     1  LIG1        0.0788
     38 H           1.4436   11.3063    0.6673 H       1  LIG1        0.0660
     39 H          -0.0815   11.4278    1.6004 H       1  LIG1        0.0660
     40 H           0.8730    9.9111    1.6153 H       1  LIG1        0.0660
     41 N          -5.2048    6.0239    0.7109 N.1     1  LIG1       -0.1908
     42 C          -4.4318    6.8532    0.5331 C.1     1  LIG1        0.0999
     43 C          -4.8937    9.7554   -0.1411 C.ar    1  LIG1        0.1803
     44 C          -5.2915   11.0345   -0.4084 C.ar    1  LIG1        0.1846
     45 C          -6.7166   11.0267   -0.5096 C.ar    1  LIG1        0.1170
     46 C          -7.0896    9.7350   -0.2728 C.ar    1  LIG1        0.1986
     47 O          -6.0056    8.9739   -0.0521 O.2     1  LIG1       -0.4458
     48 O          -4.5526   12.1495   -0.5640 O.3     1  LIG1       -0.5020
     49 H          -5.1865   12.8817   -0.6431 H       1  LIG1        0.2924
     50 N          -7.4346   12.2173   -0.7863 N.pl3   1  LIG1       -0.3521
     51 H          -7.7124   12.2598   -1.7637 H       1  LIG1        0.1425
     52 H          -8.2691   12.2718   -0.2070 H       1  LIG1        0.1425
     53 C          -8.3972    9.1140   -0.1986 C.ar    1  LIG1        0.2178
     54 C          -9.6395    9.6428   -0.0068 C.ar    1  LIG1        0.2118
     55 C         -10.5555    8.5349   -0.0438 C.ar    1  LIG1        0.2119
     56 C          -9.7884    7.4234   -0.2282 C.ar    1  LIG1        0.2197
     57 O          -8.4874    7.7713   -0.3234 O.2     1  LIG1       -0.4408
     58 O          -9.9578   10.9489    0.2039 O.3     1  LIG1       -0.4883
     59 C         -10.8945   11.4576   -0.7566 C.3     1  LIG1        0.0791
     60 H         -11.1278   12.4724   -0.4435 H       1  LIG1        0.0660
     61 H         -10.4353   11.4573   -1.7473 H       1  LIG1        0.0660
     62 H         -11.7926   10.8404   -0.7629 H       1  LIG1        0.0660
     63 O         -11.9054    8.6001    0.0624 O.3     1  LIG1       -0.4883
     64 C         -12.3546    8.8251    1.4051 C.3     1  LIG1        0.0791
     65 H         -13.4384    8.8879    1.3514 H       1  LIG1        0.0660
     66 H         -12.0562    7.9849    2.0305 H       1  LIG1        0.0660
     67 H         -11.9365    9.7608    1.7830 H       1  LIG1        0.0660
     68 C         -10.1427    6.0232   -0.3087 C.ar    1  LIG1        0.2193
     69 C         -11.1885    5.3195    0.2050 C.ar    1  LIG1        0.2091
     70 C         -10.9894    3.9659   -0.2091 C.ar    1  LIG1        0.2060
     71 C          -9.8406    3.9366   -0.9397 C.ar    1  LIG1        0.1826
     72 O          -9.3290    5.1867   -1.0005 O.2     1  LIG1       -0.4439
     73 O         -12.1985    5.7612    0.9876 O.3     1  LIG1       -0.5007
     74 H         -12.7476    5.0018    1.2222 H       1  LIG1        0.2924
     75 O         -11.8492    2.9671    0.1461 O.3     1  LIG1       -0.5008
     76 H         -11.3570    2.1509    0.3018 H       1  LIG1        0.2924
     77 C          -7.7510    2.6876   -1.5850 C.ar    1  LIG1        0.0497
     78 C          -9.1547    2.8105   -1.5809 C.ar    1  LIG1        0.0421
     79 C          -9.9190    1.8034   -2.1767 C.ar    1  LIG1       -0.0472
     80 C          -9.2946    0.7063   -2.7462 C.ar    1  LIG1       -0.0334
     81 C          -7.8980    0.6695   -2.7090 C.ar    1  LIG1        0.0910
     82 N          -7.1616    1.6369   -2.1461 N.ar    1  LIG1       -0.2496
     83 H         -10.9987    1.8995   -2.2010 H       1  LIG1        0.0626
     84 C          -6.8476    3.7239   -0.9510 C.3     1  LIG1       -0.0216
     85 H          -7.1896    3.9836    0.0508 H       1  LIG1        0.0293
     86 H          -6.8422    4.6425   -1.5383 H       1  LIG1        0.0293
     87 H          -5.8412    3.3165   -0.9015 H       1  LIG1        0.0293
     88 H          -9.8422   -0.0964   -3.2190 H       1  LIG1        0.0640
     89 C          -7.1338   -0.4347   -3.2827 C.ar    1  LIG1        0.1069
     90 C          -7.4961   -1.6002   -3.9297 C.ar    1  LIG1        0.1435
     91 C          -6.3120   -2.3014   -4.2683 C.ar    1  LIG1       -0.0021
     92 C          -5.2600   -1.5299   -3.8107 C.ar    1  LIG1        0.0058
     93 N          -5.7664   -0.4239   -3.2255 N.ar    1  LIG1       -0.3565
     94 H          -5.2767    0.3444   -2.7883 H       1  LIG1        0.1655
     95 H          -4.1998   -1.7036   -3.8683 H       1  LIG1        0.0808
     96 O          -8.7923   -1.9644   -4.1654 O.3     1  LIG1       -0.5046
     97 H          -8.8118   -2.7458   -4.7258 H       1  LIG1        0.2922
     98 H          -6.2393   -3.2477   -4.7781 H       1  LIG1        0.0669
@<TRIPOS>BOND
     1    98    91    1
     2    97    96    1
     3    91    90   ar
     4    91    92   ar
     5    96    90    1
     6    90    89   ar
     7    95    92    1
     8    92    93   ar
     9    89    93   ar
    10    89    81    1
    11    93    94    1
    12    88    80    1
    13    25    24    1
    14    80    81   ar
    15    80    79   ar
    16    81    82   ar
    17    26    24    1
    18    24    27    1
    19    24    23    1
    20    83    79    1
    21    79    78   ar
    22    82    77   ar
    23    51    50    1
    24    61    59    1
    25    77    78   ar
    26    77    84    1
    27    78    71    1
    28    86    84    1
    29    72    71   ar
    30    72    68   ar
    31    23    17    1
    32    84    87    1
    33    84    85    1
    34    71    70   ar
    35    50    45    1
    36    50    52    1
    37    62    59    1
    38    59    60    1
    39    59    58    1
    40    49    48    1
    41    48    44    1
    42    45    44   ar
    43    45    46   ar
    44    44    43   ar
    45    32    29    1
    46    57    56   ar
    47    57    53   ar
    48    68    56    1
    49    68    69   ar
    50    46    53    1
    51    46    47   ar
    52    56    55   ar
    53    70    75    1
    54    70    69   ar
    55    53    54   ar
    56    36    28    1
    57    36    37    1
    58    43    47   ar
    59    43    31    1
    60    29    31   ar
    61    29    28   ar
    62    21    22    3
    63    55    54   ar
    64    55    63    1
    65    17    18   ar
    66    17    16   ar
    67    54    58    1
    68    31    34   ar
    69    28    30   ar
    70    63    64    1
    71    75    76    1
    72    22    16    1
    73    69    73    1
    74    30    33   ar
    75    30    18    1
    76    34    33   ar
    77    34    42    1
    78    33    35    1
    79    18    19   ar
    80    42    41    3
    81    16    15   ar
    82    38    37    1
    83    73    74    1
    84    37    39    1
    85    37    40    1
    86    65    64    1
    87    64    67    1
    88    64    66    1
    89    19    15   ar
    90    19    20    1
    91    15     4    1
    92    14    12    1
    93     4     5   ar
    94     4     3   ar
    95     5     1   ar
    96    12     3    1
    97    12    13    1
    98     3     2   ar
    99     1     2   ar
   100     1     6    1
   101     2     7    1
   102     7     8    1
   103    11     8    1
   104     8     9    1
   105     8    10    1
