@<TRIPOS>MOLECULE
mol_data/opt/m06hf/geoms/mol2/12li12li.out
 30 31 0 0 0
SMALL
GASTEIGER

@<TRIPOS>ATOM
      1 C           0.9812    2.0384   -1.1504 C.ar    1  LIG1        0.1345
      2 C           1.5286    1.7239    0.0534 C.ar    1  LIG1        0.1612
      3 C           1.5829    2.9354    0.8293 C.ar    1  LIG1        0.0402
      4 C           1.0530    3.8894    0.0209 C.ar    1  LIG1        0.1799
      5 O           0.6783    3.3608   -1.1695 O.2     1  LIG1       -0.4557
      6 H           0.7500    1.4755   -2.0360 H       1  LIG1        0.1068
      7 O           1.9801    0.5426    0.5291 O.3     1  LIG1       -0.4917
      8 C           1.8299   -0.5488   -0.3592 C.3     1  LIG1        0.0789
      9 H           2.2309   -1.4207    0.1492 H       1  LIG1        0.0660
     10 H           0.7722   -0.7029   -0.5913 H       1  LIG1        0.0660
     11 H           2.3881   -0.3639   -1.2814 H       1  LIG1        0.0660
     12 C           2.1295    3.0694    2.2235 C.3     1  LIG1       -0.0325
     13 H           2.0850    4.1101    2.5399 H       1  LIG1        0.0280
     14 H           3.1619    2.7204    2.2534 H       1  LIG1        0.0280
     15 H           1.5432    2.4622    2.9137 H       1  LIG1        0.0280
     16 C           0.8060    5.3114    0.2596 C.ar    1  LIG1        0.2116
     17 C           1.1145    6.4716   -0.3911 C.ar    1  LIG1        0.1716
     18 C           0.5426    7.5549    0.3682 C.ar    1  LIG1        0.0297
     19 C          -0.0518    6.9568    1.4265 C.ar    1  LIG1        0.0993
     20 O           0.0932    5.6202    1.3827 O.2     1  LIG1       -0.4557
     21 H          -0.5964    7.3526    2.2663 H       1  LIG1        0.1033
     22 O           1.8293    6.7169   -1.5067 O.3     1  LIG1       -0.4909
     23 C           2.6053    5.6438   -2.0234 C.3     1  LIG1        0.0790
     24 H           3.2383    6.0774   -2.7929 H       1  LIG1        0.0660
     25 H           3.2186    5.2100   -1.2292 H       1  LIG1        0.0660
     26 H           1.9579    4.8770   -2.4491 H       1  LIG1        0.0660
     27 C           0.6413    9.0127    0.0107 C.3     1  LIG1       -0.0332
     28 H           0.1568    9.6216    0.7734 H       1  LIG1        0.0280
     29 H           0.1609    9.1968   -0.9505 H       1  LIG1        0.0280
     30 H           1.6879    9.3064   -0.0703 H       1  LIG1        0.0280
@<TRIPOS>BOND
     1    24    23    1
     2    26    23    1
     3     6     1    1
     4    23    22    1
     5    23    25    1
     6    22    17    1
     7    11     8    1
     8     5     1   ar
     9     5     4   ar
    10     1     2   ar
    11    29    27    1
    12    10     8    1
    13    17    16   ar
    14    17    18   ar
    15     8     9    1
    16     8     7    1
    17    30    27    1
    18    27    18    1
    19    27    28    1
    20     4    16    1
    21     4     3   ar
    22     2     7    1
    23     2     3   ar
    24    16    20   ar
    25    18    19   ar
    26     3    12    1
    27    20    19   ar
    28    19    21    1
    29    12    14    1
    30    12    13    1
    31    12    15    1
