@<TRIPOS>MOLECULE
mol_data/opt/m06hf/geoms/mol2/12li12li12li.out
 44 46 0 0 0
SMALL
GASTEIGER

@<TRIPOS>ATOM
      1 C           2.4657    2.5862   -1.3485 C.ar    1  LIG1        0.1345
      2 C           1.2146    2.1284   -1.0844 C.ar    1  LIG1        0.1612
      3 C           0.4295    3.2417   -0.6138 C.ar    1  LIG1        0.0402
      4 C           1.2927    4.2940   -0.6438 C.ar    1  LIG1        0.1799
      5 O           2.5153    3.9172   -1.0793 O.2     1  LIG1       -0.4557
      6 H           3.3686    2.1321   -1.7116 H       1  LIG1        0.1068
      7 O           0.6956    0.8858   -1.1968 O.3     1  LIG1       -0.4917
      8 C           1.6035   -0.0909   -1.6709 C.3     1  LIG1        0.0789
      9 H           1.0578   -1.0290   -1.7134 H       1  LIG1        0.0660
     10 H           1.9619    0.1809   -2.6678 H       1  LIG1        0.0660
     11 H           2.4511   -0.1810   -0.9856 H       1  LIG1        0.0660
     12 C          -1.0171    3.1578   -0.2023 C.3     1  LIG1       -0.0325
     13 H          -1.6399    2.9844   -1.0824 H       1  LIG1        0.0280
     14 H          -1.3354    4.0729    0.2934 H       1  LIG1        0.0280
     15 H          -1.1475    2.3115    0.4727 H       1  LIG1        0.0280
     16 C           1.1390    5.6922   -0.2887 C.ar    1  LIG1        0.2126
     17 C           1.9969    6.7536   -0.2531 C.ar    1  LIG1        0.1723
     18 C           1.2510    7.8947    0.2074 C.ar    1  LIG1        0.0410
     19 C          -0.0106    7.4218    0.4043 C.ar    1  LIG1        0.1809
     20 O          -0.0861    6.1021    0.1118 O.2     1  LIG1       -0.4444
     21 O           3.3101    6.7833   -0.5972 O.3     1  LIG1       -0.4909
     22 C           4.1790    6.2499    0.4024 C.3     1  LIG1        0.0790
     23 H           5.1906    6.3861    0.0283 H       1  LIG1        0.0660
     24 H           4.0480    6.7950    1.3402 H       1  LIG1        0.0660
     25 H           3.9703    5.1901    0.5488 H       1  LIG1        0.0660
     26 C           1.8024    9.2826    0.4014 C.3     1  LIG1       -0.0325
     27 H           1.9511    9.4902    1.4619 H       1  LIG1        0.0280
     28 H           1.1154   10.0259   -0.0007 H       1  LIG1        0.0280
     29 H           2.7599    9.3493   -0.1140 H       1  LIG1        0.0280
     30 C          -1.2408    8.0443    0.8464 C.ar    1  LIG1        0.2116
     31 C          -2.5233    7.5900    0.9255 C.ar    1  LIG1        0.1716
     32 C          -3.3178    8.6655    1.4627 C.ar    1  LIG1        0.0297
     33 C          -2.4395    9.6754    1.6679 C.ar    1  LIG1        0.0993
     34 O          -1.1868    9.3172    1.2989 O.2     1  LIG1       -0.4557
     35 H          -2.5540   10.6722    2.0567 H       1  LIG1        0.1033
     36 O          -3.0080    6.3675    0.5766 O.3     1  LIG1       -0.4909
     37 C          -3.1512    6.1882   -0.8336 C.3     1  LIG1        0.0790
     38 H          -3.6574    5.2352   -0.9684 H       1  LIG1        0.0660
     39 H          -3.7524    6.9977   -1.2535 H       1  LIG1        0.0660
     40 H          -2.1694    6.1623   -1.3084 H       1  LIG1        0.0660
     41 C          -4.7982    8.6083    1.7283 C.3     1  LIG1       -0.0332
     42 H          -5.1394    9.5396    2.1782 H       1  LIG1        0.0280
     43 H          -5.0211    7.7818    2.4028 H       1  LIG1        0.0280
     44 H          -5.3429    8.4453    0.7973 H       1  LIG1        0.0280
@<TRIPOS>BOND
     1    10     8    1
     2     9     8    1
     3     6     1    1
     4     8     7    1
     5     8    11    1
     6     1     2   ar
     7     1     5   ar
     8    40    37    1
     9    39    37    1
    10     7     2    1
    11     2     3   ar
    12    13    12    1
    13     5     4   ar
    14    38    37    1
    15    37    36    1
    16     4     3   ar
    17     4    16    1
    18     3    12    1
    19    21    17    1
    20    21    22    1
    21    16    17   ar
    22    16    20   ar
    23    17    18   ar
    24    12    14    1
    25    12    15    1
    26    29    26    1
    27    28    26    1
    28    23    22    1
    29    20    19   ar
    30    18    26    1
    31    18    19   ar
    32    26    27    1
    33    22    25    1
    34    22    24    1
    35    19    30    1
    36    36    31    1
    37    44    41    1
    38    30    31   ar
    39    30    34   ar
    40    31    32   ar
    41    34    33   ar
    42    32    33   ar
    43    32    41    1
    44    33    35    1
    45    41    42    1
    46    41    43    1
