@<TRIPOS>MOLECULE
mol_data/opt/m06hf/geoms/mol2/12li12li-12li.out
 44 46 0 0 0
SMALL
GASTEIGER

@<TRIPOS>ATOM
      1 C          -0.2191    1.9519    0.1539 C.ar    1  LIG1        0.1345
      2 C           1.0946    1.8936   -0.1858 C.ar    1  LIG1        0.1612
      3 C           1.5943    3.2443   -0.2418 C.ar    1  LIG1        0.0402
      4 C           0.5174    4.0114    0.0829 C.ar    1  LIG1        0.1799
      5 O          -0.5754    3.2526    0.3204 O.2     1  LIG1       -0.4557
      6 H          -0.9854    1.2163    0.3126 H       1  LIG1        0.1068
      7 O           1.8834    0.8291   -0.4517 O.3     1  LIG1       -0.4917
      8 C           1.2334   -0.4243   -0.3543 C.3     1  LIG1        0.0789
      9 H           1.9775   -1.1800   -0.5882 H       1  LIG1        0.0660
     10 H           0.8526   -0.5729    0.6600 H       1  LIG1        0.0660
     11 H           0.4080   -0.4768   -1.0700 H       1  LIG1        0.0660
     12 C           3.0098    3.6213   -0.5932 C.3     1  LIG1       -0.0325
     13 H           3.0987    4.6934   -0.7571 H       1  LIG1        0.0280
     14 H           3.3074    3.0870   -1.4959 H       1  LIG1        0.0280
     15 H           3.6814    3.3187    0.2130 H       1  LIG1        0.0280
     16 C           0.3415    5.4468    0.1988 C.ar    1  LIG1        0.2126
     17 C          -0.7343    6.2442    0.4644 C.ar    1  LIG1        0.1723
     18 C          -0.2787    7.6087    0.4251 C.ar    1  LIG1        0.0410
     19 C           1.0506    7.5174    0.1448 C.ar    1  LIG1        0.1809
     20 O           1.4303    6.2254    0.0051 O.2     1  LIG1       -0.4444
     21 O          -2.0096    5.8688    0.7407 O.3     1  LIG1       -0.4909
     22 C          -2.7650    5.5040   -0.4147 C.3     1  LIG1        0.0790
     23 H          -3.7697    5.2841   -0.0625 H       1  LIG1        0.0660
     24 H          -2.7883    6.3354   -1.1232 H       1  LIG1        0.0660
     25 H          -2.3271    4.6216   -0.8814 H       1  LIG1        0.0660
     26 C          -1.1343    8.8258    0.6586 C.3     1  LIG1       -0.0325
     27 H          -2.0664    8.5087    1.1248 H       1  LIG1        0.0280
     28 H          -1.3574    9.3233   -0.2861 H       1  LIG1        0.0280
     29 H          -0.6210    9.5346    1.3068 H       1  LIG1        0.0280
     30 C           2.0953    8.5062   -0.0205 C.ar    1  LIG1        0.2116
     31 C           3.4442    8.3990   -0.1825 C.ar    1  LIG1        0.1716
     32 C           3.9597    9.7383   -0.3132 C.ar    1  LIG1        0.0297
     33 C           2.8707   10.5382   -0.2252 C.ar    1  LIG1        0.0993
     34 O           1.7424    9.8111   -0.0461 O.2     1  LIG1       -0.4557
     35 H           2.7460   11.6061   -0.2709 H       1  LIG1        0.1033
     36 O           4.2021    7.2697   -0.2197 O.3     1  LIG1       -0.4909
     37 C           4.4238    6.6850    1.0650 C.3     1  LIG1        0.0790
     38 H           5.1354    5.8770    0.9119 H       1  LIG1        0.0660
     39 H           4.8395    7.4299    1.7472 H       1  LIG1        0.0660
     40 H           3.4876    6.2905    1.4625 H       1  LIG1        0.0660
     41 C           5.4064   10.1004   -0.5165 C.3     1  LIG1       -0.0332
     42 H           5.5155   11.1780   -0.6309 H       1  LIG1        0.0280
     43 H           5.7896    9.6049   -1.4083 H       1  LIG1        0.0280
     44 H           6.0011    9.7738    0.3376 H       1  LIG1        0.0280
@<TRIPOS>BOND
     1    14    12    1
     2    43    41    1
     3    24    22    1
     4    11     8    1
     5    25    22    1
     6    13    12    1
     7    42    41    1
     8    12     3    1
     9    12    15    1
    10     9     8    1
    11    41    32    1
    12    41    44    1
    13     7     8    1
    14     7     2    1
    15    22    23    1
    16    22    21    1
    17     8    10    1
    18    32    33   ar
    19    32    31   ar
    20    28    26    1
    21    35    33    1
    22     3     2   ar
    23     3     4   ar
    24    33    34   ar
    25    36    31    1
    26    36    37    1
    27     2     1   ar
    28    31    30   ar
    29    34    30   ar
    30    30    19    1
    31    20    19   ar
    32    20    16   ar
    33     4    16    1
    34     4     5   ar
    35    19    18   ar
    36     1     6    1
    37     1     5   ar
    38    16    17   ar
    39    18    17   ar
    40    18    26    1
    41    17    21    1
    42    26    27    1
    43    26    29    1
    44    38    37    1
    45    37    40    1
    46    37    39    1
