@<TRIPOS>MOLECULE
mol_data/opt/m06hf/geoms/mol2/12li12li-12li-12li.out
 58 61 0 0 0
SMALL
GASTEIGER

@<TRIPOS>ATOM
      1 C          -0.2364    2.1497   -0.2830 C.ar    1  LIG1        0.1345
      2 C           1.1024    2.0791   -0.5021 C.ar    1  LIG1        0.1612
      3 C           1.6411    3.4095   -0.3666 C.ar    1  LIG1        0.0402
      4 C           0.5576    4.1777   -0.0695 C.ar    1  LIG1        0.1799
      5 O          -0.5734    3.4395   -0.0197 O.2     1  LIG1       -0.4557
      6 H          -1.0346    1.4309   -0.2748 H       1  LIG1        0.1068
      7 O           1.8855    1.0182   -0.7957 O.3     1  LIG1       -0.4917
      8 C           1.1950   -0.2122   -0.9009 C.3     1  LIG1        0.0789
      9 H           1.9386   -0.9675   -1.1388 H       1  LIG1        0.0660
     10 H           0.7067   -0.4525    0.0477 H       1  LIG1        0.0660
     11 H           0.4484   -0.1580   -1.6979 H       1  LIG1        0.0660
     12 C           3.0956    3.7660   -0.5334 C.3     1  LIG1       -0.0325
     13 H           3.2664    4.8266   -0.3577 H       1  LIG1        0.0280
     14 H           3.4188    3.5139   -1.5442 H       1  LIG1        0.0280
     15 H           3.6922    3.1753    0.1640 H       1  LIG1        0.0280
     16 C           0.4098    5.5968    0.1955 C.ar    1  LIG1        0.2126
     17 C          -0.6344    6.3700    0.6126 C.ar    1  LIG1        0.1723
     18 C          -0.1530    7.7223    0.7172 C.ar    1  LIG1        0.0410
     19 C           1.1582    7.6496    0.3502 C.ar    1  LIG1        0.1809
     20 O           1.4982    6.3770    0.0317 O.2     1  LIG1       -0.4444
     21 O          -1.8956    5.9776    0.9284 O.3     1  LIG1       -0.4909
     22 C          -2.7454    5.8030   -0.2051 C.3     1  LIG1        0.0790
     23 H          -3.7268    5.5479    0.1877 H       1  LIG1        0.0660
     24 H          -2.8003    6.7300   -0.7802 H       1  LIG1        0.0660
     25 H          -2.3670    4.9934   -0.8295 H       1  LIG1        0.0660
     26 C          -0.9697    8.8906    1.2013 C.3     1  LIG1       -0.0325
     27 H          -1.4820    8.6086    2.1211 H       1  LIG1        0.0280
     28 H          -1.7267    9.1548    0.4592 H       1  LIG1        0.0280
     29 H          -0.3318    9.7548    1.3767 H       1  LIG1        0.0280
     30 C           2.2363    8.6167    0.2370 C.ar    1  LIG1        0.2127
     31 C           2.2978    9.9750    0.1198 C.ar    1  LIG1        0.1723
     32 C           3.6834   10.3439    0.0297 C.ar    1  LIG1        0.0410
     33 C           4.3530    9.1580    0.0965 C.ar    1  LIG1        0.1809
     34 O           3.4952    8.1215    0.2189 O.2     1  LIG1       -0.4444
     35 O           1.2560   10.8520    0.0847 O.3     1  LIG1       -0.4909
     36 C           0.6479   10.9508   -1.2050 C.3     1  LIG1        0.0790
     37 H          -0.1678   11.6631   -1.1035 H       1  LIG1        0.0660
     38 H           1.3774   11.3091   -1.9344 H       1  LIG1        0.0660
     39 H           0.2640    9.9759   -1.5115 H       1  LIG1        0.0660
     40 C           4.2095   11.7485   -0.1120 C.3     1  LIG1       -0.0325
     41 H           3.3770   12.4411    0.0116 H       1  LIG1        0.0280
     42 H           4.6584   11.8946   -1.0948 H       1  LIG1        0.0280
     43 H           4.9647   11.9528    0.6454 H       1  LIG1        0.0280
     44 C           5.7610    8.8213    0.0631 C.ar    1  LIG1        0.2116
     45 C           6.4337    7.6357    0.1230 C.ar    1  LIG1        0.1716
     46 C           7.8379    7.9477    0.0292 C.ar    1  LIG1        0.0297
     47 C           7.8887    9.2956   -0.0860 C.ar    1  LIG1        0.0993
     48 O           6.6477    9.8355   -0.0625 O.2     1  LIG1       -0.4557
     49 H           8.7074    9.9864   -0.1900 H       1  LIG1        0.1033
     50 O           5.9359    6.3767    0.2354 O.3     1  LIG1       -0.4909
     51 C           5.4599    6.0473    1.5433 C.3     1  LIG1        0.0790
     52 H           5.2703    4.9768    1.5354 H       1  LIG1        0.0660
     53 H           6.2203    6.2904    2.2886 H       1  LIG1        0.0660
     54 H           4.5366    6.5885    1.7506 H       1  LIG1        0.0660
     55 C           8.9565    6.9409    0.0441 C.3     1  LIG1       -0.0332
     56 H           9.9184    7.4409   -0.0610 H       1  LIG1        0.0280
     57 H           8.8292    6.2339   -0.7755 H       1  LIG1        0.0280
     58 H           8.9486    6.3822    0.9806 H       1  LIG1        0.0280
@<TRIPOS>BOND
     1    38    36    1
     2    11     8    1
     3    14    12    1
     4    39    36    1
     5    36    37    1
     6    36    35    1
     7     9     8    1
     8    42    40    1
     9     8     7    1
    10     8    10    1
    11    25    22    1
    12     7     2    1
    13    24    22    1
    14    57    55    1
    15    12     3    1
    16    12    13    1
    17    12    15    1
    18     2     3   ar
    19     2     1   ar
    20     3     4   ar
    21     1     6    1
    22     1     5   ar
    23    22    23    1
    24    22    21    1
    25    49    47    1
    26    40    41    1
    27    40    32    1
    28    40    43    1
    29    47    48   ar
    30    47    46   ar
    31     4     5   ar
    32     4    16    1
    33    48    44   ar
    34    56    55    1
    35    46    55    1
    36    46    45   ar
    37    32    33   ar
    38    32    31   ar
    39    20    16   ar
    40    20    19   ar
    41    55    58    1
    42    44    33    1
    43    44    45   ar
    44    35    31    1
    45    33    34   ar
    46    31    30   ar
    47    45    50    1
    48    16    17   ar
    49    34    30   ar
    50    50    51    1
    51    30    19    1
    52    19    18   ar
    53    28    26    1
    54    17    18   ar
    55    17    21    1
    56    18    26    1
    57    26    29    1
    58    26    27    1
    59    52    51    1
    60    51    54    1
    61    51    53    1
