@<TRIPOS>MOLECULE
mol_data/opt/m06hf/geoms/mol2/12li12li-12li12li-.out
 58 61 0 0 0
SMALL
GASTEIGER

@<TRIPOS>ATOM
      1 C          -0.1407    2.1281    0.9066 C.ar    1  LIG1        0.1345
      2 C           1.0651    2.0386    0.2880 C.ar    1  LIG1        0.1612
      3 C           1.4012    3.3501   -0.2049 C.ar    1  LIG1        0.0402
      4 C           0.3527    4.1320    0.1713 C.ar    1  LIG1        0.1799
      5 O          -0.5764    3.4140    0.8443 O.2     1  LIG1       -0.4557
      6 H          -0.7781    1.4251    1.4101 H       1  LIG1        0.1068
      7 O           1.8783    0.9752    0.1075 O.3     1  LIG1       -0.4917
      8 C           1.4011   -0.2342    0.6664 C.3     1  LIG1        0.0789
      9 H           2.1502   -0.9917    0.4534 H       1  LIG1        0.0660
     10 H           1.2741   -0.1247    1.7471 H       1  LIG1        0.0660
     11 H           0.4473   -0.5107    0.2084 H       1  LIG1        0.0660
     12 C           2.6487    3.6950   -0.9742 C.3     1  LIG1       -0.0325
     13 H           2.6762    4.7583   -1.2066 H       1  LIG1        0.0280
     14 H           2.6821    3.1153   -1.8974 H       1  LIG1        0.0280
     15 H           3.5264    3.4324   -0.3809 H       1  LIG1        0.0280
     16 C           0.1210    5.5601    0.0121 C.ar    1  LIG1        0.2126
     17 C          -0.9769    6.3686   -0.0846 C.ar    1  LIG1        0.1723
     18 C          -0.5070    7.7263   -0.1844 C.ar    1  LIG1        0.0410
     19 C           0.8492    7.6235   -0.1502 C.ar    1  LIG1        0.1809
     20 O           1.2376    6.3353   -0.0307 O.2     1  LIG1       -0.4444
     21 O          -2.2948    6.0721   -0.1222 O.3     1  LIG1       -0.4909
     22 C          -2.6644    4.9433   -0.9117 C.3     1  LIG1        0.0790
     23 H          -3.7444    4.9991   -1.0242 H       1  LIG1        0.0660
     24 H          -2.1800    5.0024   -1.8883 H       1  LIG1        0.0660
     25 H          -2.3850    4.0178   -0.4103 H       1  LIG1        0.0660
     26 C          -1.3892    8.9379   -0.3277 C.3     1  LIG1       -0.0325
     27 H          -1.8932    9.1423    0.6188 H       1  LIG1        0.0280
     28 H          -2.1531    8.7366   -1.0789 H       1  LIG1        0.0280
     29 H          -0.8041    9.8087   -0.6191 H       1  LIG1        0.0280
     30 C           1.9181    8.5955   -0.2362 C.ar    1  LIG1        0.2127
     31 C           3.2616    8.4745   -0.4389 C.ar    1  LIG1        0.1723
     32 C           3.8157    9.8026   -0.4494 C.ar    1  LIG1        0.0410
     33 C           2.7430   10.6210   -0.2610 C.ar    1  LIG1        0.1809
     34 O           1.6015    9.9049   -0.1255 O.2     1  LIG1       -0.4444
     35 O           3.9726    7.3321   -0.6287 O.3     1  LIG1       -0.4909
     36 C           4.3356    6.6736    0.5874 C.3     1  LIG1        0.0790
     37 H           4.9945    5.8563    0.3033 H       1  LIG1        0.0660
     38 H           4.8604    7.3697    1.2453 H       1  LIG1        0.0660
     39 H           3.4414    6.2855    1.0771 H       1  LIG1        0.0660
     40 C           5.2685   10.1461   -0.6513 C.3     1  LIG1       -0.0325
     41 H           5.7185   10.4802    0.2843 H       1  LIG1        0.0280
     42 H           5.3731   10.9421   -1.3869 H       1  LIG1        0.0280
     43 H           5.7878    9.2545   -1.0014 H       1  LIG1        0.0280
     44 C           2.5992   12.0598   -0.1854 C.ar    1  LIG1        0.2116
     45 C           1.5092   12.8676   -0.0510 C.ar    1  LIG1        0.1716
     46 C           1.9906   14.2257   -0.0531 C.ar    1  LIG1        0.0297
     47 C           3.3326   14.1172   -0.1971 C.ar    1  LIG1        0.0993
     48 O           3.7138   12.8199   -0.2724 O.2     1  LIG1       -0.4557
     49 H           4.1197   14.8483   -0.2601 H       1  LIG1        0.1033
     50 O           0.2023   12.5042    0.0501 O.3     1  LIG1       -0.4909
     51 C          -0.1757   12.0743    1.3593 C.3     1  LIG1        0.0790
     52 H          -1.2517   11.9192    1.3274 H       1  LIG1        0.0660
     53 H           0.3311   11.1406    1.6051 H       1  LIG1        0.0660
     54 H           0.0719   12.8441    2.0933 H       1  LIG1        0.0660
     55 C           1.1334   15.4578    0.0594 C.3     1  LIG1       -0.0332
     56 H           0.6257   15.4805    1.0244 H       1  LIG1        0.0280
     57 H           0.3766   15.4535   -0.7248 H       1  LIG1        0.0280
     58 H           1.7439   16.3546   -0.0375 H       1  LIG1        0.0280
@<TRIPOS>BOND
     1    14    12    1
     2    24    22    1
     3    42    40    1
     4    13    12    1
     5    28    26    1
     6    23    22    1
     7    43    40    1
     8    12    15    1
     9    12     3    1
    10    22    25    1
    11    22    21    1
    12    57    55    1
    13    40    32    1
    14    40    41    1
    15    35    31    1
    16    35    36    1
    17    29    26    1
    18    32    31   ar
    19    32    33   ar
    20    31    30   ar
    21    26    18    1
    22    26    27    1
    23    48    47   ar
    24    48    44   ar
    25    33    44    1
    26    33    34   ar
    27    49    47    1
    28    30    19    1
    29    30    34   ar
    30     3     4   ar
    31     3     2   ar
    32    47    46   ar
    33    44    45   ar
    34    18    19   ar
    35    18    17   ar
    36    19    20   ar
    37    21    17    1
    38    17    16   ar
    39    46    45   ar
    40    46    55    1
    41    45    50    1
    42    58    55    1
    43    20    16   ar
    44    16     4    1
    45    50    51    1
    46    55    56    1
    47     7     2    1
    48     7     8    1
    49     4     5   ar
    50    11     8    1
    51     2     1   ar
    52    37    36    1
    53     9     8    1
    54    36    39    1
    55    36    38    1
    56     8    10    1
    57     5     1   ar
    58     1     6    1
    59    52    51    1
    60    51    53    1
    61    51    54    1
