@<TRIPOS>MOLECULE
mol_data/opt/m06hf/geoms/mol2/12li12li-.out
 30 31 0 0 0
SMALL
GASTEIGER

@<TRIPOS>ATOM
      1 C          -0.0788    2.0892   -0.1499 C.ar    1  LIG1        0.1345
      2 C           1.2654    1.9780    0.0057 C.ar    1  LIG1        0.1612
      3 C           1.8108    3.3103    0.0671 C.ar    1  LIG1        0.0402
      4 C           0.7283    4.1238   -0.0583 C.ar    1  LIG1        0.1799
      5 O          -0.4107    3.4064   -0.1868 O.2     1  LIG1       -0.4557
      6 H          -0.8827    1.3840   -0.2482 H       1  LIG1        0.1068
      7 O           2.0515    0.8827    0.0935 O.3     1  LIG1       -0.4917
      8 C           1.3592   -0.3495    0.0254 C.3     1  LIG1        0.0789
      9 H           2.1077   -1.1318    0.1145 H       1  LIG1        0.0660
     10 H           0.6401   -0.4230    0.8463 H       1  LIG1        0.0660
     11 H           0.8382   -0.4366   -0.9323 H       1  LIG1        0.0660
     12 C           3.2733    3.6274    0.2279 C.3     1  LIG1       -0.0325
     13 H           3.4427    4.6961    0.1280 H       1  LIG1        0.0280
     14 H           3.8451    3.0910   -0.5299 H       1  LIG1        0.0280
     15 H           3.6169    3.2965    1.2090 H       1  LIG1        0.0280
     16 C           0.5759    5.5698   -0.0804 C.ar    1  LIG1        0.2116
     17 C          -0.4813    6.3824   -0.3648 C.ar    1  LIG1        0.1716
     18 C          -0.0180    7.7413   -0.2308 C.ar    1  LIG1        0.0297
     19 C           1.2851    7.6299    0.1169 C.ar    1  LIG1        0.0993
     20 O           1.6539    6.3316    0.2171 O.2     1  LIG1       -0.4557
     21 H           2.0499    8.3591    0.3204 H       1  LIG1        0.1033
     22 O          -1.7409    6.0300   -0.7346 O.3     1  LIG1       -0.4909
     23 C          -2.5751    5.6450    0.3581 C.3     1  LIG1        0.0790
     24 H          -3.5597    5.4585   -0.0639 H       1  LIG1        0.0660
     25 H          -2.1843    4.7399    0.8224 H       1  LIG1        0.0660
     26 H          -2.6286    6.4520    1.0928 H       1  LIG1        0.0660
     27 C          -0.8435    8.9769   -0.4705 C.3     1  LIG1       -0.0332
     28 H          -1.6683    9.0292    0.2412 H       1  LIG1        0.0280
     29 H          -1.2622    8.9518   -1.4763 H       1  LIG1        0.0280
     30 H          -0.2286    9.8696   -0.3614 H       1  LIG1        0.0280
@<TRIPOS>BOND
     1    29    27    1
     2    11     8    1
     3    22    17    1
     4    22    23    1
     5    14    12    1
     6    27    30    1
     7    27    18    1
     8    27    28    1
     9    17    18   ar
    10    17    16   ar
    11     6     1    1
    12    18    19   ar
    13     5     1   ar
    14     5     4   ar
    15     1     2   ar
    16    16     4    1
    17    16    20   ar
    18    24    23    1
    19     4     3   ar
    20     2     3   ar
    21     2     7    1
    22     8     7    1
    23     8     9    1
    24     8    10    1
    25     3    12    1
    26    19    20   ar
    27    19    21    1
    28    13    12    1
    29    12    15    1
    30    23    25    1
    31    23    26    1
