@<TRIPOS>MOLECULE
mol_data/opt/m06hf/geoms/mol2/12li12li12li-12li-.out
 58 61 0 0 0
SMALL
GASTEIGER

@<TRIPOS>ATOM
      1 C           2.1500    2.1761   -0.6537 C.ar    1  LIG1        0.1345
      2 C           0.9017    1.6783   -0.4542 C.ar    1  LIG1        0.1612
      3 C          -0.0097    2.7925   -0.3903 C.ar    1  LIG1        0.0402
      4 C           0.7856    3.8840   -0.5575 C.ar    1  LIG1        0.1799
      5 O           2.0808    3.5319   -0.7128 O.2     1  LIG1       -0.4557
      6 H           3.1220    1.7343   -0.7692 H       1  LIG1        0.1068
      7 O           0.4748    0.4020   -0.3364 O.3     1  LIG1       -0.4917
      8 C           1.4951   -0.5747   -0.4279 C.3     1  LIG1        0.0789
      9 H           1.0099   -1.5408   -0.3229 H       1  LIG1        0.0660
     10 H           1.9937   -0.5092   -1.3990 H       1  LIG1        0.0660
     11 H           2.2258   -0.4328    0.3733 H       1  LIG1        0.0660
     12 C          -1.4995    2.6764   -0.2028 C.3     1  LIG1       -0.0325
     13 H          -1.9799    3.6485   -0.2980 H       1  LIG1        0.0280
     14 H          -1.7139    2.2616    0.7842 H       1  LIG1        0.0280
     15 H          -1.9033    1.9919   -0.9495 H       1  LIG1        0.0280
     16 C           0.4849    5.3033   -0.5954 C.ar    1  LIG1        0.2126
     17 C           1.1700    6.3998   -1.0307 C.ar    1  LIG1        0.1723
     18 C           0.3273    7.5479   -0.8200 C.ar    1  LIG1        0.0410
     19 C          -0.8139    7.0370   -0.2798 C.ar    1  LIG1        0.1809
     20 O          -0.7250    5.6941   -0.1342 O.2     1  LIG1       -0.4444
     21 O           2.4059    6.4352   -1.5918 O.3     1  LIG1       -0.4909
     22 C           3.4652    6.4966   -0.6367 C.3     1  LIG1        0.0790
     23 H           4.3862    6.5725   -1.2094 H       1  LIG1        0.0660
     24 H           3.3455    7.3759    0.0005 H       1  LIG1        0.0660
     25 H           3.4688    5.5899   -0.0312 H       1  LIG1        0.0660
     26 C           0.6771    8.9718   -1.1652 C.3     1  LIG1       -0.0325
     27 H           0.8793    9.5483   -0.2616 H       1  LIG1        0.0280
     28 H          -0.1449    9.4480   -1.6971 H       1  LIG1        0.0280
     29 H           1.5659    8.9654   -1.7957 H       1  LIG1        0.0280
     30 C          -2.0560    7.6388    0.1529 C.ar    1  LIG1        0.2127
     31 C          -3.2104    7.1103    0.6536 C.ar    1  LIG1        0.1723
     32 C          -4.1023    8.2086    0.9125 C.ar    1  LIG1        0.0410
     33 C          -3.4113    9.3164    0.5196 C.ar    1  LIG1        0.1809
     34 O          -2.1770    8.9811    0.0665 O.2     1  LIG1       -0.4444
     35 O          -3.5077    5.8021    0.8737 O.3     1  LIG1       -0.4909
     36 C          -2.9435    5.2737    2.0765 C.3     1  LIG1        0.0790
     37 H          -3.3598    4.2756    2.1917 H       1  LIG1        0.0660
     38 H          -1.8578    5.2217    1.9855 H       1  LIG1        0.0660
     39 H          -3.2229    5.8992    2.9270 H       1  LIG1        0.0660
     40 C          -5.4770    8.0869    1.5153 C.3     1  LIG1       -0.0325
     41 H          -5.3992    7.7520    2.5509 H       1  LIG1        0.0280
     42 H          -6.0505    7.3425    0.9610 H       1  LIG1        0.0280
     43 H          -5.9945    9.0449    1.4832 H       1  LIG1        0.0280
     44 C          -3.7590   10.7295    0.4801 C.ar    1  LIG1        0.2116
     45 C          -4.9404   11.3917    0.3167 C.ar    1  LIG1        0.1716
     46 C          -4.6524   12.8003    0.3781 C.ar    1  LIG1        0.0297
     47 C          -3.3120   12.8669    0.5660 C.ar    1  LIG1        0.0993
     48 O          -2.7642   11.6346    0.6264 O.2     1  LIG1       -0.4557
     49 H          -2.6333   13.6954    0.6693 H       1  LIG1        0.1033
     50 O          -6.1866   10.8773    0.1244 O.3     1  LIG1       -0.4909
     51 C          -6.3438   10.1785   -1.1129 C.3     1  LIG1        0.0790
     52 H          -7.3832    9.8626   -1.1512 H       1  LIG1        0.0660
     53 H          -6.1182   10.8469   -1.9458 H       1  LIG1        0.0660
     54 H          -5.6838    9.3094   -1.1439 H       1  LIG1        0.0660
     55 C          -5.6643   13.9065    0.2457 C.3     1  LIG1       -0.0332
     56 H          -6.4036   13.8350    1.0435 H       1  LIG1        0.0280
     57 H          -6.1855   13.8258   -0.7088 H       1  LIG1        0.0280
     58 H          -5.1731   14.8770    0.2997 H       1  LIG1        0.0280
@<TRIPOS>BOND
     1    53    51    1
     2    29    26    1
     3    28    26    1
     4    21    17    1
     5    21    22    1
     6    10     8    1
     7    23    22    1
     8    26    18    1
     9    26    27    1
    10    52    51    1
    11    54    51    1
    12    51    50    1
    13    17    18   ar
    14    17    16   ar
    15    15    12    1
    16    18    19   ar
    17     6     1    1
    18     5     1   ar
    19     5     4   ar
    20    57    55    1
    21     1     2   ar
    22    22    25    1
    23    22    24    1
    24    16     4    1
    25    16    20   ar
    26     4     3   ar
    27     2     3   ar
    28     2     7    1
    29     8     7    1
    30     8     9    1
    31     8    11    1
    32     3    12    1
    33    13    12    1
    34    19    20   ar
    35    19    30    1
    36    12    14    1
    37    34    30   ar
    38    34    33   ar
    39    50    45    1
    40    30    31   ar
    41    55    58    1
    42    55    46    1
    43    55    56    1
    44    45    46   ar
    45    45    44   ar
    46    46    47   ar
    47    44    33    1
    48    44    48   ar
    49    33    32   ar
    50    47    48   ar
    51    47    49    1
    52    31    35    1
    53    31    32   ar
    54    35    36    1
    55    32    40    1
    56    42    40    1
    57    43    40    1
    58    40    41    1
    59    38    36    1
    60    36    37    1
    61    36    39    1
