@<TRIPOS>MOLECULE
mol_data/opt/m06hf/geoms/mol2/12li12li12li12li.out
 58 61 0 0 0
SMALL
GASTEIGER

@<TRIPOS>ATOM
      1 C           3.4282    3.5459   -2.0125 C.ar    1  LIG1        0.1345
      2 C           2.6579    3.6334   -3.1280 C.ar    1  LIG1        0.1612
      3 C           1.3828    4.1811   -2.7393 C.ar    1  LIG1        0.0402
      4 C           1.5019    4.3835   -1.3983 C.ar    1  LIG1        0.1799
      5 O           2.7191    4.0063   -0.9483 O.2     1  LIG1       -0.4557
      6 H           4.4285    3.2071   -1.8170 H       1  LIG1        0.1068
      7 O           2.9265    3.2941   -4.4077 O.3     1  LIG1       -0.4917
      8 C           4.2250    2.7739   -4.6224 C.3     1  LIG1        0.0789
      9 H           4.3008    2.5571   -5.6842 H       1  LIG1        0.0660
     10 H           4.9789    3.5124   -4.3355 H       1  LIG1        0.0660
     11 H           4.3656    1.8576   -4.0422 H       1  LIG1        0.0660
     12 C           0.2337    4.4338   -3.6797 C.3     1  LIG1       -0.0325
     13 H           0.4964    5.2365   -4.3719 H       1  LIG1        0.0280
     14 H          -0.6659    4.7070   -3.1311 H       1  LIG1        0.0280
     15 H           0.0465    3.5339   -4.2662 H       1  LIG1        0.0280
     16 C           0.5825    4.9113   -0.4078 C.ar    1  LIG1        0.2126
     17 C           0.6379    5.0511    0.9484 C.ar    1  LIG1        0.1723
     18 C          -0.5997    5.6517    1.3715 C.ar    1  LIG1        0.0410
     19 C          -1.3034    5.8310    0.2190 C.ar    1  LIG1        0.1809
     20 O          -0.6024    5.3898   -0.8528 O.2     1  LIG1       -0.4444
     21 O           1.6540    4.7267    1.7882 O.3     1  LIG1       -0.4909
     22 C           1.7640    3.3280    2.0515 C.3     1  LIG1        0.0790
     23 H           2.5492    3.2206    2.7955 H       1  LIG1        0.0660
     24 H           0.8188    2.9457    2.4431 H       1  LIG1        0.0660
     25 H           2.0359    2.7975    1.1385 H       1  LIG1        0.0660
     26 C          -0.9561    5.9925    2.7949 C.3     1  LIG1       -0.0325
     27 H          -1.7874    6.6947    2.8285 H       1  LIG1        0.0280
     28 H          -0.0839    6.4258    3.2839 H       1  LIG1        0.0280
     29 H          -1.2355    5.0861    3.3373 H       1  LIG1        0.0280
     30 C          -2.5998    6.4029   -0.0726 C.ar    1  LIG1        0.2127
     31 C          -3.2484    6.6812   -1.2401 C.ar    1  LIG1        0.1723
     32 C          -4.5159    7.2701   -0.8978 C.ar    1  LIG1        0.0410
     33 C          -4.5267    7.2893    0.4640 C.ar    1  LIG1        0.1809
     34 O          -3.3816    6.7692    0.9681 O.2     1  LIG1       -0.4444
     35 O          -2.8136    6.4566   -2.5084 O.3     1  LIG1       -0.4909
     36 C          -1.9094    7.4562   -2.9838 C.3     1  LIG1        0.0790
     37 H          -1.7162    7.2188   -4.0273 H       1  LIG1        0.0660
     38 H          -2.3680    8.4437   -2.8989 H       1  LIG1        0.0660
     39 H          -0.9813    7.4188   -2.4114 H       1  LIG1        0.0660
     40 C          -5.5597    7.7393   -1.8774 C.3     1  LIG1       -0.0325
     41 H          -5.5775    8.8288   -1.9253 H       1  LIG1        0.0280
     42 H          -6.5475    7.3925   -1.5775 H       1  LIG1        0.0280
     43 H          -5.3142    7.3409   -2.8613 H       1  LIG1        0.0280
     44 C          -5.4999    7.7388    1.4372 C.ar    1  LIG1        0.2116
     45 C          -5.5212    7.7020    2.8002 C.ar    1  LIG1        0.1716
     46 C          -6.7570    8.3130    3.2176 C.ar    1  LIG1        0.0297
     47 C          -7.3726    8.6716    2.0659 C.ar    1  LIG1        0.0993
     48 O          -6.6290    8.3304    0.9866 O.2     1  LIG1       -0.4557
     49 H          -8.3090    9.1613    1.8626 H       1  LIG1        0.1033
     50 O          -4.5787    7.2015    3.6439 O.3     1  LIG1       -0.4909
     51 C          -4.5856    5.7753    3.7316 C.3     1  LIG1        0.0790
     52 H          -3.8674    5.5168    4.5066 H       1  LIG1        0.0660
     53 H          -5.5816    5.4220    4.0080 H       1  LIG1        0.0660
     54 H          -4.2816    5.3413    2.7781 H       1  LIG1        0.0660
     55 C          -7.2003    8.4999    4.6435 C.3     1  LIG1       -0.0332
     56 H          -8.1645    9.0054    4.6782 H       1  LIG1        0.0280
     57 H          -6.4646    9.0946    5.1850 H       1  LIG1        0.0280
     58 H          -7.2903    7.5332    5.1408 H       1  LIG1        0.0280
@<TRIPOS>BOND
     1     9     8    1
     2     8     7    1
     3     8    10    1
     4     8    11    1
     5     7     2    1
     6    13    12    1
     7    15    12    1
     8    37    36    1
     9    12    14    1
    10    12     3    1
    11     2     3   ar
    12     2     1   ar
    13    36    38    1
    14    36    35    1
    15    36    39    1
    16    43    40    1
    17     3     4   ar
    18    35    31    1
    19     1     6    1
    20     1     5   ar
    21    41    40    1
    22    40    42    1
    23    40    32    1
    24     4     5   ar
    25     4    16    1
    26    31    32   ar
    27    31    30   ar
    28    32    33   ar
    29    20    16   ar
    30    20    19   ar
    31    16    17   ar
    32    30    19    1
    33    30    34   ar
    34    19    18   ar
    35    33    34   ar
    36    33    44    1
    37    17    18   ar
    38    17    21    1
    39    48    44   ar
    40    48    47   ar
    41    25    22    1
    42    18    26    1
    43    44    45   ar
    44    21    22    1
    45    49    47    1
    46    22    24    1
    47    22    23    1
    48    47    46   ar
    49    54    51    1
    50    26    27    1
    51    26    28    1
    52    26    29    1
    53    45    46   ar
    54    45    50    1
    55    46    55    1
    56    50    51    1
    57    51    53    1
    58    51    52    1
    59    55    56    1
    60    55    58    1
    61    55    57    1
