@<TRIPOS>MOLECULE
mol_data/opt/m06hf/geoms/mol2/12li12li-12li-12li-.out
 58 61 0 0 0
SMALL
GASTEIGER

@<TRIPOS>ATOM
      1 C          -0.2258    2.2536   -0.8232 C.ar    1  LIG1        0.1345
      2 C           1.1242    2.1027   -0.8250 C.ar    1  LIG1        0.1612
      3 C           1.7103    3.3939   -0.5675 C.ar    1  LIG1        0.0402
      4 C           0.6416    4.2259   -0.4341 C.ar    1  LIG1        0.1799
      5 O          -0.5241    3.5573   -0.5834 O.2     1  LIG1       -0.4557
      6 H          -1.0557    1.5879   -0.9707 H       1  LIG1        0.1068
      7 O           1.8818    1.0010   -1.0182 O.3     1  LIG1       -0.4917
      8 C           1.1478   -0.1827   -1.2691 C.3     1  LIG1        0.0789
      9 H           1.8754   -0.9785   -1.4021 H       1  LIG1        0.0660
     10 H           0.4963   -0.4083   -0.4203 H       1  LIG1        0.0660
     11 H           0.5478   -0.0682   -2.1761 H       1  LIG1        0.0660
     12 C           3.1897    3.6623   -0.4835 C.3     1  LIG1       -0.0325
     13 H           3.3782    4.7023   -0.2287 H       1  LIG1        0.0280
     14 H           3.6575    3.4303   -1.4413 H       1  LIG1        0.0280
     15 H           3.6327    3.0146    0.2740 H       1  LIG1        0.0280
     16 C           0.5289    5.6490   -0.1680 C.ar    1  LIG1        0.2126
     17 C          -0.5388    6.4809    0.0077 C.ar    1  LIG1        0.1723
     18 C          -0.0193    7.8005    0.2477 C.ar    1  LIG1        0.0410
     19 C           1.3344    7.6570    0.1776 C.ar    1  LIG1        0.1809
     20 O           1.6692    6.3659   -0.0682 O.2     1  LIG1       -0.4444
     21 O          -1.8629    6.1807   -0.0225 O.3     1  LIG1       -0.4909
     22 C          -2.3295    5.5124    1.1503 C.3     1  LIG1        0.0790
     23 H          -3.4060    5.4135    1.0339 H       1  LIG1        0.0660
     24 H          -1.8663    4.5289    1.2282 H       1  LIG1        0.0660
     25 H          -2.1003    6.1087    2.0363 H       1  LIG1        0.0660
     26 C          -0.8657    9.0112    0.5389 C.3     1  LIG1       -0.0325
     27 H          -1.3800    8.8799    1.4923 H       1  LIG1        0.0280
     28 H          -1.6222    9.1162   -0.2401 H       1  LIG1        0.0280
     29 H          -0.2520    9.9094    0.5768 H       1  LIG1        0.0280
     30 C           2.4401    8.5951    0.2923 C.ar    1  LIG1        0.2127
     31 C           2.5530    9.9336    0.0495 C.ar    1  LIG1        0.1723
     32 C           3.9015   10.3174    0.3588 C.ar    1  LIG1        0.0410
     33 C           4.5022    9.1579    0.7505 C.ar    1  LIG1        0.1809
     34 O           3.6345    8.1202    0.7113 O.2     1  LIG1       -0.4444
     35 O           1.5881   10.7904   -0.3866 O.3     1  LIG1       -0.4909
     36 C           1.3012   10.6640   -1.7808 C.3     1  LIG1        0.0790
     37 H           0.5420   11.4094   -2.0049 H       1  LIG1        0.0660
     38 H           2.2046   10.8561   -2.3634 H       1  LIG1        0.0660
     39 H           0.9230    9.6634   -1.9967 H       1  LIG1        0.0660
     40 C           4.4580   11.7142    0.2893 C.3     1  LIG1       -0.0325
     41 H           3.6482   12.4206    0.4689 H       1  LIG1        0.0280
     42 H           4.8898   11.9148   -0.6931 H       1  LIG1        0.0280
     43 H           5.2412   11.8437    1.0346 H       1  LIG1        0.0280
     44 C           5.8704    8.8863    1.1576 C.ar    1  LIG1        0.2116
     45 C           7.0478    9.4711    0.7985 C.ar    1  LIG1        0.1716
     46 C           8.0934    8.8125    1.5361 C.ar    1  LIG1        0.0297
     47 C           7.4487    7.8777    2.2766 C.ar    1  LIG1        0.0993
     48 O           6.1165    7.9108    2.0594 O.2     1  LIG1       -0.4557
     49 H           7.7975    7.1415    2.9800 H       1  LIG1        0.1033
     50 O           7.2391   10.4791   -0.0979 O.3     1  LIG1       -0.4909
     51 C           7.1514   10.0521   -1.4576 C.3     1  LIG1        0.0790
     52 H           7.3793   10.9243   -2.0661 H       1  LIG1        0.0660
     53 H           7.8756    9.2578   -1.6496 H       1  LIG1        0.0660
     54 H           6.1433    9.6930   -1.6734 H       1  LIG1        0.0660
     55 C           9.5612    9.1364    1.4609 C.3     1  LIG1       -0.0332
     56 H           9.7218   10.1887    1.6958 H       1  LIG1        0.0280
     57 H           9.9411    8.9496    0.4557 H       1  LIG1        0.0280
     58 H          10.1206    8.5242    2.1673 H       1  LIG1        0.0280
@<TRIPOS>BOND
     1    38    36    1
     2    11     8    1
     3    52    51    1
     4    37    36    1
     5    39    36    1
     6    36    35    1
     7    54    51    1
     8    53    51    1
     9    51    50    1
    10    14    12    1
    11     9     8    1
    12     8     7    1
    13     8    10    1
    14     7     2    1
    15     6     1    1
    16     2     1   ar
    17     2     3   ar
    18     1     5   ar
    19    42    40    1
    20     5     4   ar
    21     3    12    1
    22     3     4   ar
    23    12    13    1
    24    12    15    1
    25     4    16    1
    26    35    31    1
    27    28    26    1
    28    16    20   ar
    29    16    17   ar
    30    50    45    1
    31    20    19   ar
    32    21    17    1
    33    21    22    1
    34    17    18   ar
    35    31    30   ar
    36    31    32   ar
    37    19    18   ar
    38    19    30    1
    39    18    26    1
    40    40    32    1
    41    40    41    1
    42    40    43    1
    43    30    34   ar
    44    32    33   ar
    45    57    55    1
    46    26    29    1
    47    26    27    1
    48    34    33   ar
    49    33    44    1
    50    45    44   ar
    51    45    46   ar
    52    23    22    1
    53    22    24    1
    54    22    25    1
    55    44    48   ar
    56    55    46    1
    57    55    56    1
    58    55    58    1
    59    46    47   ar
    60    48    47   ar
    61    47    49    1
