@<TRIPOS>MOLECULE
mol_data/opt/m06hf/geoms/mol2/12li.out
 16 16 0 0 0
SMALL
GASTEIGER

@<TRIPOS>ATOM
      1 C           0.0255    1.9187    0.0280 C.ar    1  LIG1        0.1334
      2 C           1.3828    1.8836   -0.0010 C.ar    1  LIG1        0.1605
      3 C           1.8487    3.2483    0.0258 C.ar    1  LIG1        0.0290
      4 C           0.7187    3.9904    0.0687 C.ar    1  LIG1        0.0982
      5 O          -0.3827    3.2126    0.0708 O.2     1  LIG1       -0.4670
      6 H          -0.7412    1.1664    0.0238 H       1  LIG1        0.1067
      7 H           0.5541    5.0539    0.1003 H       1  LIG1        0.1033
      8 O           2.2362    0.8357   -0.0464 O.3     1  LIG1       -0.4917
      9 C           1.6133   -0.4344   -0.0674 C.3     1  LIG1        0.0789
     10 H           2.4109   -1.1715   -0.1034 H       1  LIG1        0.0660
     11 H           1.0134   -0.5758    0.8362 H       1  LIG1        0.0660
     12 H           0.9766   -0.5283   -0.9518 H       1  LIG1        0.0660
     13 C           3.2904    3.6785    0.0076 C.3     1  LIG1       -0.0332
     14 H           3.3616    4.7653    0.0350 H       1  LIG1        0.0280
     15 H           3.7787    3.3124   -0.8957 H       1  LIG1        0.0280
     16 H           3.8150    3.2655    0.8695 H       1  LIG1        0.0280
@<TRIPOS>BOND
     1    12     9    1
     2    15    13    1
     3    10     9    1
     4     9     8    1
     5     9    11    1
     6     8     2    1
     7     2     3   ar
     8     2     1   ar
     9    13     3    1
    10    13    14    1
    11    13    16    1
    12     6     1    1
    13     3     4   ar
    14     1     5   ar
    15     4     5   ar
    16     4     7    1
