@<TRIPOS>MOLECULE
mol_data/opt/m06hf/geoms/mol2/12li12li12li-12li.out
 58 61 0 0 0
SMALL
GASTEIGER

@<TRIPOS>ATOM
      1 C           2.2752    2.0316   -0.8133 C.ar    1  LIG1        0.1345
      2 C           1.2895    1.5892    0.0100 C.ar    1  LIG1        0.1612
      3 C           0.3976    2.6933    0.2598 C.ar    1  LIG1        0.0402
      4 C           0.9330    3.7221   -0.4532 C.ar    1  LIG1        0.1799
      5 O           2.0578    3.3424   -1.0989 O.2     1  LIG1       -0.4557
      6 H           3.1401    1.5766   -1.2589 H       1  LIG1        0.1068
      7 O           1.0865    0.3720    0.5597 O.3     1  LIG1       -0.4917
      8 C           2.0516   -0.6030    0.2121 C.3     1  LIG1        0.0789
      9 H           1.7588   -1.5217    0.7126 H       1  LIG1        0.0660
     10 H           2.0626   -0.7530   -0.8711 H       1  LIG1        0.0660
     11 H           3.0432   -0.2911    0.5521 H       1  LIG1        0.0660
     12 C          -0.8276    2.6273    1.1336 C.3     1  LIG1       -0.0325
     13 H          -1.2507    3.6184    1.2867 H       1  LIG1        0.0280
     14 H          -0.5579    2.1911    2.0958 H       1  LIG1        0.0280
     15 H          -1.5743    1.9798    0.6694 H       1  LIG1        0.0280
     16 C           0.5213    5.1020   -0.6304 C.ar    1  LIG1        0.2126
     17 C           1.0737    6.1751   -1.2671 C.ar    1  LIG1        0.1723
     18 C           0.1800    7.2892   -1.0902 C.ar    1  LIG1        0.0410
     19 C          -0.8520    6.7856   -0.3573 C.ar    1  LIG1        0.1809
     20 O          -0.6556    5.4750   -0.0769 O.2     1  LIG1       -0.4444
     21 O           2.2322    6.2317   -1.9726 O.3     1  LIG1       -0.4909
     22 C           3.4048    6.2665   -1.1593 C.3     1  LIG1        0.0790
     23 H           4.2419    6.3984   -1.8402 H       1  LIG1        0.0660
     24 H           3.3510    7.1048   -0.4613 H       1  LIG1        0.0660
     25 H           3.5078    5.3279   -0.6141 H       1  LIG1        0.0660
     26 C           0.4002    8.6737   -1.6416 C.3     1  LIG1       -0.0325
     27 H          -0.5269    9.2443   -1.6370 H       1  LIG1        0.0280
     28 H           0.7814    8.5925   -2.6593 H       1  LIG1        0.0280
     29 H           1.1444    9.2013   -1.0402 H       1  LIG1        0.0280
     30 C          -2.0846    7.3552    0.1417 C.ar    1  LIG1        0.2127
     31 C          -3.1646    6.8152    0.7766 C.ar    1  LIG1        0.1723
     32 C          -4.1030    7.8808    1.0102 C.ar    1  LIG1        0.0410
     33 C          -3.4974    8.9876    0.4970 C.ar    1  LIG1        0.1809
     34 O          -2.2848    8.6821   -0.0248 O.2     1  LIG1       -0.4444
     35 O          -3.3548    5.5192    1.1403 O.3     1  LIG1       -0.4909
     36 C          -3.7990    4.6876    0.0661 C.3     1  LIG1        0.0790
     37 H          -4.0067    3.7135    0.5026 H       1  LIG1        0.0660
     38 H          -4.7057    5.1048   -0.3773 H       1  LIG1        0.0660
     39 H          -3.0134    4.6030   -0.6863 H       1  LIG1        0.0660
     40 C          -5.4435    7.7391    1.6826 C.3     1  LIG1       -0.0325
     41 H          -5.4811    6.7693    2.1778 H       1  LIG1        0.0280
     42 H          -6.2482    7.7992    0.9488 H       1  LIG1        0.0280
     43 H          -5.5879    8.5310    2.4161 H       1  LIG1        0.0280
     44 C          -3.8899   10.3787    0.4140 C.ar    1  LIG1        0.2116
     45 C          -3.2498   11.4878   -0.0544 C.ar    1  LIG1        0.1716
     46 C          -4.1523   12.5973    0.1168 C.ar    1  LIG1        0.0297
     47 C          -5.2642   12.0574    0.6701 C.ar    1  LIG1        0.0993
     48 O          -5.1199   10.7238    0.8567 O.2     1  LIG1       -0.4557
     49 H          -6.2054   12.4811    0.9744 H       1  LIG1        0.1033
     50 O          -2.0039   11.5764   -0.5933 O.3     1  LIG1       -0.4909
     51 C          -0.9547   11.5357    0.3758 C.3     1  LIG1        0.0790
     52 H          -0.0320   11.7198   -0.1700 H       1  LIG1        0.0660
     53 H          -1.1091   12.3128    1.1278 H       1  LIG1        0.0660
     54 H          -0.9215   10.5533    0.8488 H       1  LIG1        0.0660
     55 C          -3.8675   14.0224   -0.2740 C.3     1  LIG1       -0.0332
     56 H          -4.7259   14.6555   -0.0530 H       1  LIG1        0.0280
     57 H          -3.6476   14.0770   -1.3403 H       1  LIG1        0.0280
     58 H          -3.0015   14.3981    0.2725 H       1  LIG1        0.0280
@<TRIPOS>BOND
     1    28    26    1
     2    21    17    1
     3    21    22    1
     4    23    22    1
     5    26    27    1
     6    26    18    1
     7    26    29    1
     8    57    55    1
     9    17    18   ar
    10    17    16   ar
    11     6     1    1
    12    22    25    1
    13    22    24    1
    14     5     1   ar
    15     5     4   ar
    16    18    19   ar
    17    10     8    1
    18     1     2   ar
    19    39    36    1
    20    16     4    1
    21    16    20   ar
    22    50    45    1
    23    50    51    1
    24     4     3   ar
    25    38    36    1
    26    19    20   ar
    27    19    30    1
    28    55    56    1
    29    55    46    1
    30    55    58    1
    31    52    51    1
    32    45    46   ar
    33    45    44   ar
    34    34    30   ar
    35    34    33   ar
    36     2     3   ar
    37     2     7    1
    38    36    37    1
    39    36    35    1
    40    46    47   ar
    41    30    31   ar
    42     8    11    1
    43     8     7    1
    44     8     9    1
    45     3    12    1
    46    51    54    1
    47    51    53    1
    48    44    33    1
    49    44    48   ar
    50    33    32   ar
    51    15    12    1
    52    47    48   ar
    53    47    49    1
    54    31    32   ar
    55    31    35    1
    56    42    40    1
    57    32    40    1
    58    12    13    1
    59    12    14    1
    60    40    41    1
    61    40    43    1
