@<TRIPOS>MOLECULE
mol_data/opt/m06hf/geoms/mol2/12li12li12li12li-.out
 58 61 0 0 0
SMALL
GASTEIGER

@<TRIPOS>ATOM
      1 C           2.6328    2.2542   -1.1231 C.ar    1  LIG1        0.1345
      2 C           1.4090    1.6679   -1.1810 C.ar    1  LIG1        0.1612
      3 C           0.4211    2.6850   -0.9210 C.ar    1  LIG1        0.0402
      4 C           1.1519    3.8170   -0.7267 C.ar    1  LIG1        0.1799
      5 O           2.4767    3.5751   -0.8439 O.2     1  LIG1       -0.4557
      6 H           3.6402    1.9039   -1.2519 H       1  LIG1        0.1068
      7 O           1.0640    0.3859   -1.4307 O.3     1  LIG1       -0.4917
      8 C           2.1532   -0.4758   -1.7013 C.3     1  LIG1        0.0789
      9 H           1.7324   -1.4587   -1.8943 H       1  LIG1        0.0660
     10 H           2.7020   -0.1239   -2.5793 H       1  LIG1        0.0660
     11 H           2.8239   -0.5183   -0.8388 H       1  LIG1        0.0660
     12 C          -1.0665    2.4472   -0.8990 C.3     1  LIG1       -0.0325
     13 H          -1.6072    3.3637   -0.6729 H       1  LIG1        0.0280
     14 H          -1.2998    1.6890   -0.1496 H       1  LIG1        0.0280
     15 H          -1.3885    2.0672   -1.8693 H       1  LIG1        0.0280
     16 C           0.7737    5.1872   -0.4329 C.ar    1  LIG1        0.2126
     17 C           1.4816    6.3403   -0.2521 C.ar    1  LIG1        0.1723
     18 C           0.5325    7.3906    0.0073 C.ar    1  LIG1        0.0410
     19 C          -0.6845    6.7801   -0.0599 C.ar    1  LIG1        0.1809
     20 O          -0.5444    5.4563   -0.3152 O.2     1  LIG1       -0.4444
     21 O           2.8256    6.5271   -0.3019 O.3     1  LIG1       -0.4909
     22 C           3.5215    6.0542    0.8522 C.3     1  LIG1        0.0790
     23 H           4.5639    6.3288    0.7101 H       1  LIG1        0.0660
     24 H           3.1256    6.5340    1.7502 H       1  LIG1        0.0660
     25 H           3.4236    4.9714    0.9290 H       1  LIG1        0.0660
     26 C           0.8954    8.8212    0.3049 C.3     1  LIG1       -0.0325
     27 H          -0.0014    9.4289    0.4150 H       1  LIG1        0.0280
     28 H           1.5093    9.2160   -0.5062 H       1  LIG1        0.0280
     29 H           1.4815    8.8692    1.2240 H       1  LIG1        0.0280
     30 C          -2.0554    7.2444    0.0680 C.ar    1  LIG1        0.2127
     31 C          -2.6706    8.4536   -0.0835 C.ar    1  LIG1        0.1723
     32 C          -4.0739    8.2620    0.1567 C.ar    1  LIG1        0.0410
     33 C          -4.1913    6.9317    0.4289 C.ar    1  LIG1        0.1809
     34 O          -2.9898    6.3161    0.3782 O.2     1  LIG1       -0.4444
     35 O          -2.1008    9.6426   -0.4250 O.3     1  LIG1       -0.4909
     36 C          -1.7562    9.7233   -1.8106 C.3     1  LIG1        0.0790
     37 H          -1.3151   10.7063   -1.9586 H       1  LIG1        0.0660
     38 H          -1.0358    8.9436   -2.0641 H       1  LIG1        0.0660
     39 H          -2.6544    9.6136   -2.4215 H       1  LIG1        0.0660
     40 C          -5.1323    9.3318    0.0878 C.3     1  LIG1       -0.0325
     41 H          -5.8863    9.0771   -0.6566 H       1  LIG1        0.0280
     42 H          -4.6540   10.2723   -0.1833 H       1  LIG1        0.0280
     43 H          -5.6258    9.4445    1.0528 H       1  LIG1        0.0280
     44 C          -5.3322    6.0953    0.7387 C.ar    1  LIG1        0.2116
     45 C          -5.4851    4.7482    0.8914 C.ar    1  LIG1        0.1716
     46 C          -6.8793    4.5156    1.1736 C.ar    1  LIG1        0.0297
     47 C          -7.4478    5.7441    1.1577 C.ar    1  LIG1        0.0993
     48 O          -6.5293    6.7046    0.9018 O.2     1  LIG1       -0.4557
     49 H          -8.4599    6.0793    1.3057 H       1  LIG1        0.1033
     50 O          -4.5519    3.7672    0.7816 O.3     1  LIG1       -0.4909
     51 C          -3.6809    3.6516    1.9096 C.3     1  LIG1        0.0790
     52 H          -3.1046    2.7431    1.7527 H       1  LIG1        0.0660
     53 H          -3.0150    4.5131    1.9560 H       1  LIG1        0.0660
     54 H          -4.2677    3.5720    2.8273 H       1  LIG1        0.0660
     55 C          -7.5077    3.1676    1.4038 C.3     1  LIG1       -0.0332
     56 H          -7.0666    2.6900    2.2794 H       1  LIG1        0.0280
     57 H          -7.3314    2.5260    0.5407 H       1  LIG1        0.0280
     58 H          -8.5808    3.2700    1.5605 H       1  LIG1        0.0280
@<TRIPOS>BOND
     1    10     8    1
     2    39    36    1
     3    38    36    1
     4    37    36    1
     5     9     8    1
     6    15    12    1
     7    36    35    1
     8     8     7    1
     9     8    11    1
    10     7     2    1
    11     6     1    1
    12     2     1   ar
    13     2     3   ar
    14     1     5   ar
    15     3    12    1
    16     3     4   ar
    17    12    13    1
    18    12    14    1
    19     5     4   ar
    20     4    16    1
    21    41    40    1
    22    28    26    1
    23    16    20   ar
    24    16    17   ar
    25    35    31    1
    26    20    19   ar
    27    21    17    1
    28    21    22    1
    29    17    18   ar
    30    42    40    1
    31    31    30   ar
    32    31    32   ar
    33    19    18   ar
    34    19    30    1
    35    18    26    1
    36    30    34   ar
    37    40    32    1
    38    40    43    1
    39    32    33   ar
    40    26    27    1
    41    26    29    1
    42    34    33   ar
    43    33    44    1
    44    57    55    1
    45    23    22    1
    46    44    45   ar
    47    44    48   ar
    48    50    45    1
    49    50    51    1
    50    22    25    1
    51    22    24    1
    52    45    46   ar
    53    48    47   ar
    54    47    46   ar
    55    47    49    1
    56    46    55    1
    57    55    58    1
    58    55    56    1
    59    52    51    1
    60    51    53    1
    61    51    54    1
