@<TRIPOS>MOLECULE
mol_data/opt/m06hf/geoms/mol2/12li12li-12li12li.out
 58 61 0 0 0
SMALL
GASTEIGER

@<TRIPOS>ATOM
      1 C          -0.1793    2.0231   -0.3980 C.ar    1  LIG1        0.1345
      2 C           1.1684    1.8742   -0.3147 C.ar    1  LIG1        0.1612
      3 C           1.7498    3.1889   -0.2126 C.ar    1  LIG1        0.0402
      4 C           0.6794    4.0297   -0.2392 C.ar    1  LIG1        0.1799
      5 O          -0.4816    3.3473   -0.3520 O.2     1  LIG1       -0.4557
      6 H          -1.0046    1.3414   -0.4855 H       1  LIG1        0.1068
      7 O           1.9295    0.7582   -0.3246 O.3     1  LIG1       -0.4917
      8 C           1.2039   -0.4526   -0.4269 C.3     1  LIG1        0.0789
      9 H           1.9359   -1.2552   -0.4135 H       1  LIG1        0.0660
     10 H           0.5199   -0.5546    0.4203 H       1  LIG1        0.0660
     11 H           0.6390   -0.4765   -1.3630 H       1  LIG1        0.0660
     12 C           3.2260    3.4697   -0.1075 C.3     1  LIG1       -0.0325
     13 H           3.4268    4.5360   -0.1936 H       1  LIG1        0.0280
     14 H           3.7498    2.9328   -0.8989 H       1  LIG1        0.0280
     15 H           3.6011    3.1043    0.8506 H       1  LIG1        0.0280
     16 C           0.5749    5.4752   -0.1723 C.ar    1  LIG1        0.2126
     17 C          -0.4672    6.3498   -0.2780 C.ar    1  LIG1        0.1723
     18 C           0.0660    7.6775   -0.1222 C.ar    1  LIG1        0.0410
     19 C           1.4009    7.4885    0.0728 C.ar    1  LIG1        0.1809
     20 O           1.7150    6.1711    0.0442 O.2     1  LIG1       -0.4444
     21 O          -1.7828    6.0742   -0.4677 O.3     1  LIG1       -0.4909
     22 C          -2.1116    5.7123   -1.8089 C.3     1  LIG1        0.0790
     23 H          -3.1931    5.6066   -1.8377 H       1  LIG1        0.0660
     24 H          -1.7911    6.4974   -2.4972 H       1  LIG1        0.0660
     25 H          -1.6342    4.7666   -2.0671 H       1  LIG1        0.0660
     26 C          -0.7437    8.9473   -0.1613 C.3     1  LIG1       -0.0325
     27 H          -1.6701    8.7932    0.3915 H       1  LIG1        0.0280
     28 H          -1.0006    9.1948   -1.1940 H       1  LIG1        0.0280
     29 H          -0.1861    9.7756    0.2723 H       1  LIG1        0.0280
     30 C           2.5047    8.3905    0.3188 C.ar    1  LIG1        0.2127
     31 C           3.8182    8.1856    0.6250 C.ar    1  LIG1        0.1723
     32 C           4.4310    9.4787    0.7768 C.ar    1  LIG1        0.0410
     33 C           3.4237   10.3639    0.5381 C.ar    1  LIG1        0.1809
     34 O           2.2643    9.7199    0.2606 O.2     1  LIG1       -0.4444
     35 O           4.4651    6.9983    0.7661 O.3     1  LIG1       -0.4909
     36 C           4.2604    6.3886    2.0426 C.3     1  LIG1        0.0790
     37 H           4.8999    5.5093    2.0647 H       1  LIG1        0.0660
     38 H           4.5439    7.0829    2.8365 H       1  LIG1        0.0660
     39 H           3.2148    6.0962    2.1502 H       1  LIG1        0.0660
     40 C           5.8753    9.7314    1.1219 C.3     1  LIG1       -0.0325
     41 H           6.2942   10.4985    0.4722 H       1  LIG1        0.0280
     42 H           6.4288    8.8015    0.9955 H       1  LIG1        0.0280
     43 H           5.9688   10.0674    2.1553 H       1  LIG1        0.0280
     44 C           3.3645   11.8104    0.5195 C.ar    1  LIG1        0.2116
     45 C           2.3610   12.6854    0.2249 C.ar    1  LIG1        0.1716
     46 C           2.8977   14.0116    0.3918 C.ar    1  LIG1        0.0297
     47 C           4.1810   13.8198    0.7796 C.ar    1  LIG1        0.0993
     48 O           4.4765   12.5005    0.8586 O.2     1  LIG1       -0.4557
     49 H           4.9761   14.5010    1.0282 H       1  LIG1        0.1033
     50 O           1.0839   12.4062   -0.1517 O.3     1  LIG1       -0.4909
     51 C           0.9626   12.0044   -1.5175 C.3     1  LIG1        0.0790
     52 H          -0.1037   11.9161   -1.7129 H       1  LIG1        0.0660
     53 H           1.4041   12.7604   -2.1708 H       1  LIG1        0.0660
     54 H           1.4530   11.0417   -1.6682 H       1  LIG1        0.0660
     55 C           2.1375   15.2935    0.1832 C.3     1  LIG1       -0.0332
     56 H           2.7742   16.1513    0.3954 H       1  LIG1        0.0280
     57 H           1.2693   15.3205    0.8418 H       1  LIG1        0.0280
     58 H           1.7861   15.3608   -0.8473 H       1  LIG1        0.0280
@<TRIPOS>BOND
     1    24    22    1
     2    53    51    1
     3    25    22    1
     4    23    22    1
     5    22    21    1
     6    52    51    1
     7    54    51    1
     8    51    50    1
     9    11     8    1
    10    28    26    1
    11    14    12    1
    12    58    55    1
    13     6     1    1
    14    21    17    1
    15     8     9    1
    16     8     7    1
    17     8    10    1
    18     1     5   ar
    19     1     2   ar
    20     5     4   ar
    21     7     2    1
    22     2     3   ar
    23    17    16   ar
    24    17    18   ar
    25     4     3   ar
    26     4    16    1
    27     3    12    1
    28    13    12    1
    29    16    20   ar
    30    26    18    1
    31    26    29    1
    32    26    27    1
    33    50    45    1
    34    18    19   ar
    35    12    15    1
    36    20    19   ar
    37    19    30    1
    38    55    46    1
    39    55    56    1
    40    55    57    1
    41    45    46   ar
    42    45    44   ar
    43    34    30   ar
    44    34    33   ar
    45    30    31   ar
    46    46    47   ar
    47    41    40    1
    48    44    33    1
    49    44    48   ar
    50    33    32   ar
    51    31    35    1
    52    31    32   ar
    53    35    36    1
    54    32    40    1
    55    47    48   ar
    56    47    49    1
    57    42    40    1
    58    40    43    1
    59    36    37    1
    60    36    39    1
    61    36    38    1
