@<TRIPOS>MOLECULE
mol_data/opt/m06hf/geoms/mol2/12ll12ll-12ll12ll.out
 62 65 0 0 0
SMALL
GASTEIGER

@<TRIPOS>ATOM
      1 C          -0.2984    1.8400   -0.5713 C.ar    1  LIG1        0.1381
      2 C           1.0538    1.7518   -0.6783 C.ar    1  LIG1        0.2004
      3 C           1.5705    3.0398   -0.2872 C.ar    1  LIG1        0.2111
      4 C           0.4825    3.8027   -0.0008 C.ar    1  LIG1        0.2186
      5 O          -0.6469    3.0876   -0.1629 O.2     1  LIG1       -0.4521
      6 H          -1.1017    1.1468   -0.7371 H       1  LIG1        0.1069
      7 O           1.8489    0.7305   -1.0577 O.3     1  LIG1       -0.4888
      8 C           1.1643   -0.4790   -1.3337 C.3     1  LIG1        0.0791
      9 H           1.9220   -1.2072   -1.6081 H       1  LIG1        0.0660
     10 H           0.6238   -0.8152   -0.4447 H       1  LIG1        0.0660
     11 H           0.4642   -0.3359   -2.1615 H       1  LIG1        0.0660
     12 O           2.8753    3.3944   -0.1885 O.3     1  LIG1       -0.4883
     13 C           3.4527    3.7775   -1.4397 C.3     1  LIG1        0.0791
     14 H           4.5016    3.9809   -1.2389 H       1  LIG1        0.0660
     15 H           3.3585    2.9610   -2.1570 H       1  LIG1        0.0660
     16 H           2.9553    4.6750   -1.8095 H       1  LIG1        0.0660
     17 C           0.4075    5.1880    0.4224 C.ar    1  LIG1        0.2196
     18 C          -0.4840    5.8861    1.1749 C.ar    1  LIG1        0.2119
     19 C           0.0554    7.2192    1.2943 C.ar    1  LIG1        0.2119
     20 C           1.2371    7.2208    0.6087 C.ar    1  LIG1        0.2197
     21 O           1.4378    5.9820    0.0689 O.2     1  LIG1       -0.4407
     22 O          -1.6111    5.4227    1.7581 O.3     1  LIG1       -0.4883
     23 C          -2.8051    5.9851    1.2083 C.3     1  LIG1        0.0791
     24 H          -3.6280    5.5505    1.7694 H       1  LIG1        0.0660
     25 H          -2.7952    7.0692    1.3271 H       1  LIG1        0.0660
     26 H          -2.8831    5.7173    0.1530 H       1  LIG1        0.0660
     27 O          -0.5809    8.1641    2.0072 O.3     1  LIG1       -0.4883
     28 C           0.1156    9.3874    2.2259 C.3     1  LIG1        0.0791
     29 H          -0.5307    9.9838    2.8629 H       1  LIG1        0.0660
     30 H           1.0656    9.1907    2.7295 H       1  LIG1        0.0660
     31 H           0.2963    9.8944    1.2770 H       1  LIG1        0.0660
     32 C           2.2864    8.2122    0.3913 C.ar    1  LIG1        0.2197
     33 C           3.5968    8.2756    0.7729 C.ar    1  LIG1        0.2119
     34 C           4.1051    9.5166    0.2415 C.ar    1  LIG1        0.2119
     35 C           3.0669   10.1181   -0.3966 C.ar    1  LIG1        0.2196
     36 O           1.9688    9.3347   -0.3175 O.2     1  LIG1       -0.4407
     37 O           4.3782    7.4518    1.4918 O.3     1  LIG1       -0.4883
     38 C           3.7781    6.2769    2.0413 C.3     1  LIG1        0.0791
     39 H           4.5466    5.8236    2.6607 H       1  LIG1        0.0660
     40 H           2.9156    6.5490    2.6543 H       1  LIG1        0.0660
     41 H           3.4735    5.5927    1.2476 H       1  LIG1        0.0660
     42 O           5.3557   10.0110    0.4055 O.3     1  LIG1       -0.4883
     43 C           6.3753    9.2042   -0.1933 C.3     1  LIG1        0.0791
     44 H           7.3162    9.7060    0.0160 H       1  LIG1        0.0660
     45 H           6.3667    8.2086    0.2492 H       1  LIG1        0.0660
     46 H           6.2085    9.1454   -1.2699 H       1  LIG1        0.0660
     47 C           2.9634   11.3973   -1.0876 C.ar    1  LIG1        0.2186
     48 C           3.2818   12.6848   -0.7621 C.ar    1  LIG1        0.2111
     49 C           2.9670   13.4775   -1.9302 C.ar    1  LIG1        0.2004
     50 C           2.4802   12.6142   -2.8510 C.ar    1  LIG1        0.1381
     51 O           2.4649   11.3629   -2.3559 O.2     1  LIG1       -0.4521
     52 H           2.1015   12.7635   -3.8464 H       1  LIG1        0.1069
     53 O           3.7525   13.2597    0.3588 O.3     1  LIG1       -0.4883
     54 C           3.7073   12.4999    1.5625 C.3     1  LIG1        0.0791
     55 H           3.8993   13.2107    2.3621 H       1  LIG1        0.0660
     56 H           2.7143   12.0591    1.6841 H       1  LIG1        0.0660
     57 H           4.4719   11.7237    1.5501 H       1  LIG1        0.0660
     58 O           3.0953   14.8224   -2.0459 O.3     1  LIG1       -0.4888
     59 C           4.4449   15.2752   -1.9309 C.3     1  LIG1        0.0791
     60 H           4.4099   16.3566   -2.0361 H       1  LIG1        0.0660
     61 H           4.8510   15.0014   -0.9571 H       1  LIG1        0.0660
     62 H           5.0511   14.8385   -2.7273 H       1  LIG1        0.0660
@<TRIPOS>BOND
     1    52    50    1
     2    50    51   ar
     3    50    49   ar
     4    62    59    1
     5    51    47   ar
     6    11     8    1
     7    15    13    1
     8    58    59    1
     9    58    49    1
    10    60    59    1
    11    59    61    1
    12    49    48   ar
    13    16    13    1
    14     9     8    1
    15    13    14    1
    16    13    12    1
    17     8     7    1
    18     8    10    1
    19    46    43    1
    20    47    48   ar
    21    47    35    1
    22     7     2    1
    23    48    53    1
    24     6     1    1
    25     2     1   ar
    26     2     3   ar
    27     1     5   ar
    28    35    36   ar
    29    35    34   ar
    30    36    32   ar
    31     3    12    1
    32     3     4   ar
    33    43    44    1
    34    43    45    1
    35    43    42    1
    36     5     4   ar
    37     4    17    1
    38    21    17   ar
    39    21    20   ar
    40    26    23    1
    41    34    42    1
    42    34    33   ar
    43    53    54    1
    44    32    20    1
    45    32    33   ar
    46    17    18   ar
    47    20    19   ar
    48    33    37    1
    49    18    19   ar
    50    18    22    1
    51    23    25    1
    52    23    22    1
    53    23    24    1
    54    41    38    1
    55    31    28    1
    56    19    27    1
    57    37    38    1
    58    57    54    1
    59    54    56    1
    60    54    55    1
    61    27    28    1
    62    38    40    1
    63    38    39    1
    64    28    30    1
    65    28    29    1
