@<TRIPOS>MOLECULE
mol_data/opt/m06hf/geoms/mol2/12ll12ll.out
 32 33 0 0 0
SMALL
GASTEIGER

@<TRIPOS>ATOM
      1 C           0.2289    1.7243    0.5885 C.ar    1  LIG1        0.1381
      2 C           1.5340    1.6298    0.2212 C.ar    1  LIG1        0.2004
      3 C           1.9427    2.9671   -0.1346 C.ar    1  LIG1        0.2111
      4 C           0.8571    3.7607    0.0585 C.ar    1  LIG1        0.2186
      5 O          -0.1795    3.0118    0.5033 O.2     1  LIG1       -0.4521
      6 H          -0.4988    1.0070    0.9209 H       1  LIG1        0.1069
      7 O           2.3630    0.5640    0.1563 O.3     1  LIG1       -0.4888
      8 C           1.7886   -0.6568    0.5908 C.3     1  LIG1        0.0791
      9 H           2.5634   -1.4125    0.5011 H       1  LIG1        0.0660
     10 H           1.4671   -0.5687    1.6319 H       1  LIG1        0.0660
     11 H           0.9347   -0.9177   -0.0407 H       1  LIG1        0.0660
     12 O           3.1762    3.3609   -0.5353 O.3     1  LIG1       -0.4883
     13 C           3.6053    2.7475   -1.7542 C.3     1  LIG1        0.0791
     14 H           4.5987    3.1397   -1.9548 H       1  LIG1        0.0660
     15 H           3.6398    1.6645   -1.6325 H       1  LIG1        0.0660
     16 H           2.9215    3.0180   -2.5600 H       1  LIG1        0.0660
     17 C           0.6527    5.1924   -0.1336 C.ar    1  LIG1        0.2186
     18 C           1.2702    6.3191    0.3274 C.ar    1  LIG1        0.2111
     19 C           0.5911    7.4307   -0.3013 C.ar    1  LIG1        0.2004
     20 C          -0.3781    6.8901   -1.0747 C.ar    1  LIG1        0.1381
     21 O          -0.3583    5.5480   -0.9776 O.2     1  LIG1       -0.4521
     22 H          -1.1331    7.3351   -1.6972 H       1  LIG1        0.1069
     23 O           2.2739    6.5241    1.1992 O.3     1  LIG1       -0.4883
     24 C           2.7285    5.4047    1.9537 C.3     1  LIG1        0.0791
     25 H           3.4013    5.8131    2.7034 H       1  LIG1        0.0660
     26 H           1.8804    4.9148    2.4373 H       1  LIG1        0.0660
     27 H           3.2567    4.7026    1.3080 H       1  LIG1        0.0660
     28 O           0.8513    8.7475   -0.1074 O.3     1  LIG1       -0.4888
     29 C           2.1761    9.1267   -0.4822 C.3     1  LIG1        0.0791
     30 H           2.2504   10.1937   -0.2887 H       1  LIG1        0.0660
     31 H           2.9062    8.5805    0.1155 H       1  LIG1        0.0660
     32 H           2.3334    8.9246   -1.5439 H       1  LIG1        0.0660
@<TRIPOS>BOND
     1    16    13    1
     2    14    13    1
     3    13    15    1
     4    13    12    1
     5    22    20    1
     6    32    29    1
     7    20    21   ar
     8    20    19   ar
     9    21    17   ar
    10    12     3    1
    11    29    30    1
    12    29    28    1
    13    29    31    1
    14    19    28    1
    15    19    18   ar
    16     3     4   ar
    17     3     2   ar
    18    17     4    1
    19    17    18   ar
    20    11     8    1
    21     4     5   ar
    22     7     2    1
    23     7     8    1
    24     2     1   ar
    25    18    23    1
    26     9     8    1
    27     5     1   ar
    28     1     6    1
    29     8    10    1
    30    23    24    1
    31    27    24    1
    32    24    26    1
    33    24    25    1
