@<TRIPOS>MOLECULE
mol_data/opt/m06hf/geoms/mol2/12ll4df-13dl6el.out
 57 60 0 0 0
SMALL
GASTEIGER

@<TRIPOS>ATOM
      1 C           0.2535    1.4286    0.2518 C.ar    1  LIG1        0.1379
      2 C           1.5134    1.4272   -0.2547 C.ar    1  LIG1        0.2003
      3 C           1.8967    2.8163   -0.3856 C.ar    1  LIG1        0.2079
      4 C           0.8375    3.5379    0.0740 C.ar    1  LIG1        0.1814
      5 O          -0.1677    2.7025    0.4384 O.2     1  LIG1       -0.4553
      6 H          -0.4334    0.6478    0.5212 H       1  LIG1        0.1069
      7 O           2.3129    0.4002   -0.6122 O.3     1  LIG1       -0.4888
      8 C           1.7285   -0.8844   -0.4758 C.3     1  LIG1        0.0791
      9 H           2.4753   -1.5981   -0.8104 H       1  LIG1        0.0660
     10 H           1.4728   -1.0726    0.5702 H       1  LIG1        0.0660
     11 H           0.8332   -0.9559   -1.0988 H       1  LIG1        0.0660
     12 O           3.0081    3.3212   -0.9482 O.3     1  LIG1       -0.4884
     13 C           4.2457    2.7469   -0.5049 C.3     1  LIG1        0.0791
     14 H           5.0241    3.3698   -0.9357 H       1  LIG1        0.0660
     15 H           4.3020    2.7901    0.5829 H       1  LIG1        0.0660
     16 H           4.3226    1.7212   -0.8605 H       1  LIG1        0.0660
     17 C           1.5445    5.9367    0.3806 C.ar    1  LIG1        0.0634
     18 C           1.2343    7.2953    0.3522 C.ar    1  LIG1       -0.0310
     19 C           0.5622    4.9757    0.1042 C.ar    1  LIG1        0.0418
     20 C          -0.0545    7.7417    0.0630 C.ar    1  LIG1        0.0423
     21 H           2.0178    8.0067    0.5743 H       1  LIG1        0.0638
     22 C          -0.7361    5.4133   -0.1480 C.ar    1  LIG1       -0.0075
     23 C          -1.0433    6.7665   -0.1596 C.ar    1  LIG1        0.1267
     24 H          -1.5076    4.6783   -0.3443 H       1  LIG1        0.0662
     25 N           3.9283    5.3133    1.1892 N.1     1  LIG1       -0.1908
     26 C           2.8765    5.5577    0.8004 C.1     1  LIG1        0.0999
     27 O          -2.3158    7.1901   -0.3952 O.3     1  LIG1       -0.5061
     28 H          -2.8948    6.4570   -0.6286 H       1  LIG1        0.2922
     29 C          -0.3496    9.1853    0.0082 C.ar    1  LIG1        0.0717
     30 C           0.5146   10.2764   -0.0924 C.ar    1  LIG1        0.1192
     31 C          -0.2841   11.4466   -0.0905 C.ar    1  LIG1        0.1632
     32 C          -1.6076   11.0553    0.0168 C.ar    1  LIG1        0.0933
     33 N          -1.6019    9.6893    0.0669 N.ar    1  LIG1       -0.3500
     34 H          -2.4337    9.1126    0.1342 H       1  LIG1        0.1661
     35 N           3.0862   10.3201   -0.2752 N.1     1  LIG1       -0.1907
     36 C           1.9399   10.2862   -0.2055 C.1     1  LIG1        0.1050
     37 O           0.1894   12.7178   -0.1918 O.3     1  LIG1       -0.4917
     38 C           0.6338   13.2639    1.0556 C.3     1  LIG1        0.0789
     39 H           0.9873   14.2682    0.8362 H       1  LIG1        0.0660
     40 H          -0.1977   13.2948    1.7619 H       1  LIG1        0.0660
     41 H           1.4483   12.6599    1.4567 H       1  LIG1        0.0660
     42 C          -4.0687   11.4616    0.4999 C.ar    1  LIG1        0.1226
     43 C          -2.8171   11.8927    0.0415 C.ar    1  LIG1        0.0392
     44 C          -2.7097   13.2145   -0.4208 C.ar    1  LIG1       -0.0065
     45 C          -3.8263   14.0310   -0.3866 C.ar    1  LIG1        0.1388
     46 C          -5.0372   13.4980    0.0920 C.ar    1  LIG1        0.0706
     47 N          -5.1480   12.2578    0.5136 N.ar    1  LIG1       -0.2424
     48 H          -1.7538   13.5561   -0.7919 H       1  LIG1        0.0662
     49 H          -5.9158   14.1302    0.1155 H       1  LIG1        0.0867
     50 C          -4.2892   10.1201    1.0076 C.1     1  LIG1       -0.0491
     51 C          -4.4831    9.0121    1.4333 C.1     1  LIG1       -0.1124
     52 H          -4.6641    8.0430    1.8374 H       1  LIG1        0.1232
     53 O          -3.8562   15.3177   -0.7857 O.3     1  LIG1       -0.4936
     54 C          -2.6467   15.8902   -1.2557 C.3     1  LIG1        0.0789
     55 H          -2.8797   16.9249   -1.4883 H       1  LIG1        0.0660
     56 H          -1.8757   15.8454   -0.4822 H       1  LIG1        0.0660
     57 H          -2.3019   15.3742   -2.1549 H       1  LIG1        0.0660
@<TRIPOS>BOND
     1    57    54    1
     2    55    54    1
     3    54    53    1
     4    54    56    1
     5    11     8    1
     6    12    13    1
     7    12     3    1
     8    14    13    1
     9    16    13    1
    10     9     8    1
    11    48    44    1
    12    53    45    1
    13    28    27    1
    14     7     8    1
    15     7     2    1
    16    13    15    1
    17     8    10    1
    18    44    45   ar
    19    44    43   ar
    20    27    23    1
    21    45    46   ar
    22     3     2   ar
    23     3     4   ar
    24    24    22    1
    25    35    36    3
    26     2     1   ar
    27    36    30    1
    28    37    31    1
    29    37    38    1
    30    23    22   ar
    31    23    20   ar
    32    22    19   ar
    33    30    31   ar
    34    30    29   ar
    35    31    32   ar
    36    29    20    1
    37    29    33   ar
    38    32    43    1
    39    32    33   ar
    40    43    42   ar
    41    20    18   ar
    42    33    34    1
    43     4    19    1
    44     4     5   ar
    45    46    49    1
    46    46    47   ar
    47    19    17   ar
    48     1     5   ar
    49     1     6    1
    50    18    17   ar
    51    18    21    1
    52    17    26    1
    53    42    47   ar
    54    42    50    1
    55    26    25    3
    56    39    38    1
    57    50    51    3
    58    38    41    1
    59    38    40    1
    60    51    52    1
