@<TRIPOS>MOLECULE
mol_data/opt/m06hf/geoms/mol2/12ll12ll-12ll.out
 47 49 0 0 0
SMALL
GASTEIGER

@<TRIPOS>ATOM
      1 C          -0.1791    1.7091   -0.2537 C.ar    1  LIG1        0.1381
      2 C           1.1687    1.6127   -0.1046 C.ar    1  LIG1        0.2004
      3 C           1.6520    2.9631    0.0474 C.ar    1  LIG1        0.2111
      4 C           0.5556    3.7605   -0.0476 C.ar    1  LIG1        0.2186
      5 O          -0.5526    3.0145   -0.2206 O.2     1  LIG1       -0.4521
      6 H          -0.9644    0.9878   -0.3835 H       1  LIG1        0.1069
      7 O           1.9840    0.5380   -0.0809 O.3     1  LIG1       -0.4888
      8 C           1.3170   -0.7071   -0.1910 C.3     1  LIG1        0.0791
      9 H           2.0845   -1.4743   -0.1503 H       1  LIG1        0.0660
     10 H           0.6172   -0.8318    0.6395 H       1  LIG1        0.0660
     11 H           0.7795   -0.7639   -1.1417 H       1  LIG1        0.0660
     12 O           2.9304    3.3476    0.2805 O.3     1  LIG1       -0.4883
     13 C           3.7523    3.3228   -0.8888 C.3     1  LIG1        0.0791
     14 H           4.7512    3.6012   -0.5618 H       1  LIG1        0.0660
     15 H           3.7619    2.3187   -1.3149 H       1  LIG1        0.0660
     16 H           3.3760    4.0449   -1.6148 H       1  LIG1        0.0660
     17 C           0.4449    5.2057    0.0135 C.ar    1  LIG1        0.2196
     18 C          -0.5470    6.0431    0.4189 C.ar    1  LIG1        0.2119
     19 C          -0.0147    7.3776    0.2910 C.ar    1  LIG1        0.2119
     20 C           1.2630    7.2422   -0.1719 C.ar    1  LIG1        0.2196
     21 O           1.5314    5.9141   -0.3502 O.2     1  LIG1       -0.4407
     22 O          -1.7602    5.7093    0.9122 O.3     1  LIG1       -0.4883
     23 C          -2.8367    6.0339    0.0301 C.3     1  LIG1        0.0791
     24 H          -3.7488    5.7537    0.5506 H       1  LIG1        0.0660
     25 H          -2.8358    7.1040   -0.1817 H       1  LIG1        0.0660
     26 H          -2.7363    5.4615   -0.8937 H       1  LIG1        0.0660
     27 O          -0.7426    8.4566    0.6259 O.3     1  LIG1       -0.4883
     28 C          -0.0487    9.6990    0.6926 C.3     1  LIG1        0.0791
     29 H          -0.7809   10.4277    1.0284 H       1  LIG1        0.0660
     30 H           0.7742    9.6309    1.4074 H       1  LIG1        0.0660
     31 H           0.3387    9.9700   -0.2909 H       1  LIG1        0.0660
     32 C           2.3460    8.1830   -0.4442 C.ar    1  LIG1        0.2186
     33 C           3.5255    8.4463    0.1901 C.ar    1  LIG1        0.2111
     34 C           4.1542    9.5135   -0.5572 C.ar    1  LIG1        0.2004
     35 C           3.3099    9.8054   -1.5741 C.ar    1  LIG1        0.1381
     36 O           2.2203    9.0159   -1.5201 O.2     1  LIG1       -0.4521
     37 H           3.3606   10.5348   -2.3623 H       1  LIG1        0.1069
     38 O           4.0979    7.9183    1.2867 O.3     1  LIG1       -0.4883
     39 C           3.4333    6.8217    1.9161 C.3     1  LIG1        0.0791
     40 H           4.0436    6.5693    2.7784 H       1  LIG1        0.0660
     41 H           2.4341    7.1206    2.2404 H       1  LIG1        0.0660
     42 H           3.3637    5.9726    1.2335 H       1  LIG1        0.0660
     43 O           5.3272   10.1275   -0.2666 O.3     1  LIG1       -0.4888
     44 C           6.4514    9.2457   -0.2576 C.3     1  LIG1        0.0791
     45 H           7.3125    9.8607   -0.0095 H       1  LIG1        0.0660
     46 H           6.3113    8.4677    0.4923 H       1  LIG1        0.0660
     47 H           6.5790    8.7991   -1.2456 H       1  LIG1        0.0660
@<TRIPOS>BOND
     1    37    35    1
     2    16    13    1
     3    35    36   ar
     4    35    34   ar
     5    36    32   ar
     6    15    13    1
     7    47    44    1
     8    11     8    1
     9    26    23    1
    10    13    14    1
    11    13    12    1
    12    34    43    1
    13    34    33   ar
    14    32    20    1
    15    32    33   ar
    16     6     1    1
    17    21    20   ar
    18    21    17   ar
    19    31    28    1
    20    43    44    1
    21    44    45    1
    22    44    46    1
    23     1     5   ar
    24     1     2   ar
    25     5     4   ar
    26     8     9    1
    27     8     7    1
    28     8    10    1
    29    25    23    1
    30    20    19   ar
    31     2     7    1
    32     2     3   ar
    33     4    17    1
    34     4     3   ar
    35    17    18   ar
    36    23    24    1
    37    23    22    1
    38     3    12    1
    39    33    38    1
    40    19    18   ar
    41    19    27    1
    42    18    22    1
    43    27    28    1
    44    28    29    1
    45    28    30    1
    46    42    39    1
    47    38    39    1
    48    39    41    1
    49    39    40    1
