@<TRIPOS>MOLECULE
mol_data/opt/m06hf/geoms/mol2/12ll12ll12ll.out
 47 49 0 0 0
SMALL
GASTEIGER

@<TRIPOS>ATOM
      1 C           0.6256    1.7404    1.0489 C.ar    1  LIG1        0.1381
      2 C           1.5227    1.6890    0.0291 C.ar    1  LIG1        0.2004
      3 C           1.7855    3.0597   -0.3367 C.ar    1  LIG1        0.2111
      4 C           1.0365    3.8253    0.4997 C.ar    1  LIG1        0.2186
      5 O           0.3398    3.0301    1.3432 O.2     1  LIG1       -0.4521
      6 H           0.1307    0.9900    1.6377 H       1  LIG1        0.1069
      7 O           2.0970    0.6359   -0.5940 O.3     1  LIG1       -0.4888
      8 C           1.7066   -0.6291   -0.0874 C.3     1  LIG1        0.0791
      9 H           2.2423   -1.3743   -0.6681 H       1  LIG1        0.0660
     10 H           1.9793   -0.7097    0.9681 H       1  LIG1        0.0660
     11 H           0.6282   -0.7649   -0.2049 H       1  LIG1        0.0660
     12 O           2.6326    3.4963   -1.3005 O.3     1  LIG1       -0.4883
     13 C           2.2691    3.0703   -2.6172 C.3     1  LIG1        0.0791
     14 H           3.0201    3.4843   -3.2848 H       1  LIG1        0.0660
     15 H           2.2715    1.9814   -2.6679 H       1  LIG1        0.0660
     16 H           1.2818    3.4622   -2.8676 H       1  LIG1        0.0660
     17 C           0.8544    5.2693    0.5966 C.ar    1  LIG1        0.2196
     18 C           1.6986    6.3407    0.6780 C.ar    1  LIG1        0.2119
     19 C           0.8514    7.5078    0.6768 C.ar    1  LIG1        0.2119
     20 C          -0.4284    7.0592    0.5946 C.ar    1  LIG1        0.2196
     21 O          -0.4331    5.7106    0.5398 O.2     1  LIG1       -0.4407
     22 O           3.0326    6.4566    0.7966 O.3     1  LIG1       -0.4883
     23 C           3.7714    5.2799    1.1164 C.3     1  LIG1        0.0791
     24 H           4.7699    5.6247    1.3722 H       1  LIG1        0.0660
     25 H           3.3165    4.7769    1.9726 H       1  LIG1        0.0660
     26 H           3.8085    4.6124    0.2556 H       1  LIG1        0.0660
     27 O           1.2646    8.7974    0.7297 O.3     1  LIG1       -0.4883
     28 C           1.8684    9.1520    1.9779 C.3     1  LIG1        0.0791
     29 H           2.1591   10.1951    1.8851 H       1  LIG1        0.0660
     30 H           1.1408    9.0316    2.7819 H       1  LIG1        0.0660
     31 H           2.7427    8.5266    2.1559 H       1  LIG1        0.0660
     32 C          -1.7107    7.7563    0.5983 C.ar    1  LIG1        0.2186
     33 C          -2.2600    8.7728   -0.1289 C.ar    1  LIG1        0.2111
     34 C          -3.5667    9.0092    0.4453 C.ar    1  LIG1        0.2004
     35 C          -3.7030    8.1166    1.4527 C.ar    1  LIG1        0.1381
     36 O          -2.5929    7.3648    1.5621 O.2     1  LIG1       -0.4521
     37 H          -4.5023    7.9328    2.1477 H       1  LIG1        0.1069
     38 O          -1.8343    9.4756   -1.1936 O.3     1  LIG1       -0.4883
     39 C          -0.6511    9.0251   -1.8469 C.3     1  LIG1        0.0791
     40 H          -0.5743    9.6205   -2.7529 H       1  LIG1        0.0660
     41 H           0.2178    9.1893   -1.2093 H       1  LIG1        0.0660
     42 H          -0.7449    7.9659   -2.0985 H       1  LIG1        0.0660
     43 O          -4.4592    9.9535    0.0551 O.3     1  LIG1       -0.4888
     44 C          -4.9451    9.7614   -1.2738 C.3     1  LIG1        0.0791
     45 H          -5.6417   10.5744   -1.4619 H       1  LIG1        0.0660
     46 H          -4.1188    9.7985   -1.9839 H       1  LIG1        0.0660
     47 H          -5.4600    8.8009   -1.3441 H       1  LIG1        0.0660
@<TRIPOS>BOND
     1    14    13    1
     2    16    13    1
     3    40    39    1
     4    15    13    1
     5    13    12    1
     6    42    39    1
     7    46    44    1
     8    39    41    1
     9    39    38    1
    10    45    44    1
    11    47    44    1
    12    12     3    1
    13    44    43    1
    14    38    33    1
    15     9     8    1
    16     7     8    1
    17     7     2    1
    18     3     2   ar
    19     3     4   ar
    20    11     8    1
    21    33    34   ar
    22    33    32   ar
    23     8    10    1
    24     2     1   ar
    25    43    34    1
    26    26    23    1
    27    34    35   ar
    28     4    17    1
    29     4     5   ar
    30    21    20   ar
    31    21    17   ar
    32    20    32    1
    33    20    19   ar
    34    17    18   ar
    35    32    36   ar
    36    19    18   ar
    37    19    27    1
    38    18    22    1
    39    27    28    1
    40    22    23    1
    41     1     5   ar
    42     1     6    1
    43    23    24    1
    44    23    25    1
    45    35    36   ar
    46    35    37    1
    47    29    28    1
    48    28    31    1
    49    28    30    1
