@<TRIPOS>MOLECULE
mol_data/opt/m06hf/geoms/mol2/12ll6ea13ii-13dh-.out
 53 56 0 0 0
SMALL
GASTEIGER

@<TRIPOS>ATOM
      1 C           0.1918    1.5761   -0.8236 C.ar    1  LIG1        0.1379
      2 C           1.5071    1.5884   -0.4810 C.ar    1  LIG1        0.2003
      3 C           1.8294    2.9642   -0.1982 C.ar    1  LIG1        0.2079
      4 C           0.6791    3.6721   -0.3867 C.ar    1  LIG1        0.1827
      5 O          -0.3038    2.8339   -0.7752 O.2     1  LIG1       -0.4553
      6 H          -0.4894    0.7994   -1.1184 H       1  LIG1        0.1069
      7 O           2.4090    0.5855   -0.3946 O.3     1  LIG1       -0.4888
      8 C           1.9036   -0.6931   -0.7396 C.3     1  LIG1        0.0791
      9 H           2.7284   -1.3908   -0.6304 H       1  LIG1        0.0660
     10 H           1.0864   -0.9683   -0.0673 H       1  LIG1        0.0660
     11 H           1.5491   -0.6886   -1.7736 H       1  LIG1        0.0660
     12 O           3.0406    3.4608    0.1558 O.3     1  LIG1       -0.4884
     13 C           3.5611    2.9026    1.3667 C.3     1  LIG1        0.0791
     14 H           4.5182    3.3891    1.5351 H       1  LIG1        0.0660
     15 H           2.8784    3.1143    2.1914 H       1  LIG1        0.0660
     16 H           3.6943    1.8273    1.2510 H       1  LIG1        0.0660
     17 C          -0.8342    5.6758   -0.0447 C.ar    1  LIG1        0.1246
     18 C           0.4298    5.1131   -0.2884 C.ar    1  LIG1        0.0549
     19 C           1.5037    5.9988   -0.4402 C.ar    1  LIG1       -0.0462
     20 C           1.2974    7.3626   -0.3503 C.ar    1  LIG1       -0.0335
     21 C          -0.0031    7.8280   -0.1181 C.ar    1  LIG1        0.0888
     22 N          -1.0315    6.9914    0.0280 N.ar    1  LIG1       -0.2362
     23 H           2.4905    5.5968   -0.6285 H       1  LIG1        0.0626
     24 C          -2.0149    4.8624    0.1776 C.1     1  LIG1       -0.0491
     25 C          -3.0070    4.2201    0.3871 C.1     1  LIG1       -0.1124
     26 H          -3.8834    3.6427    0.5701 H       1  LIG1        0.1232
     27 H           2.1147    8.0550   -0.4767 H       1  LIG1        0.0640
     28 C          -0.3503    9.2531   -0.0232 C.ar    1  LIG1        0.0687
     29 C           0.3815   10.4329   -0.0485 C.ar    1  LIG1       -0.0201
     30 C          -0.5513   11.5009    0.0816 C.ar    1  LIG1       -0.0202
     31 C          -1.8092   10.9262    0.1684 C.ar    1  LIG1        0.0679
     32 N          -1.6655    9.5738    0.1132 N.ar    1  LIG1       -0.3514
     33 H          -2.3865    8.8652    0.0793 H       1  LIG1        0.1660
     34 C           1.8777   10.5954   -0.1791 C.3     1  LIG1       -0.0374
     35 H           2.1394   11.6486   -0.0867 H       1  LIG1        0.0278
     36 H           2.2279   10.2510   -1.1548 H       1  LIG1        0.0278
     37 H           2.4078   10.0449    0.6010 H       1  LIG1        0.0278
     38 C          -0.2355   12.9746    0.1576 C.3     1  LIG1       -0.0374
     39 H          -1.0816   13.5167    0.5803 H       1  LIG1        0.0278
     40 H          -0.0303   13.3854   -0.8323 H       1  LIG1        0.0278
     41 H           0.6318   13.1423    0.7982 H       1  LIG1        0.0278
     42 C          -3.1249   11.5421    0.3194 C.ar    1  LIG1        0.0826
     43 C          -3.6878   12.6379   -0.3181 C.ar    1  LIG1        0.0990
     44 C          -5.0149   12.8144    0.1872 C.ar    1  LIG1        0.0604
     45 C          -5.2150   11.8159    1.1070 C.ar    1  LIG1        0.0243
     46 N          -4.0640   11.0598    1.1656 N.ar    1  LIG1       -0.3568
     47 H          -3.8955   10.3059    1.8131 H       1  LIG1        0.1655
     48 H          -6.0690   11.5964    1.7217 H       1  LIG1        0.0826
     49 N          -2.6523   14.0687   -2.1966 N.1     1  LIG1       -0.1907
     50 C          -3.0923   13.4163   -1.3584 C.1     1  LIG1        0.1032
     51 N          -5.8840   13.8486   -0.1790 N.pl3   1  LIG1       -0.3558
     52 H          -5.6178   14.2874   -1.0521 H       1  LIG1        0.1424
     53 H          -6.8563   13.5709   -0.2000 H       1  LIG1        0.1424
@<TRIPOS>BOND
     1    49    50    3
     2    11     8    1
     3    50    43    1
     4    36    34    1
     5     6     1    1
     6    52    51    1
     7    40    38    1
     8     1     5   ar
     9     1     2   ar
    10     5     4   ar
    11     8     9    1
    12     8     7    1
    13     8    10    1
    14    23    19    1
    15     2     7    1
    16     2     3   ar
    17    27    20    1
    18    19    20   ar
    19    19    18   ar
    20     4    18    1
    21     4     3   ar
    22    20    21   ar
    23    43    44   ar
    24    43    42   ar
    25    18    17   ar
    26    53    51    1
    27     3    12    1
    28    34    35    1
    29    34    29    1
    30    34    37    1
    31    51    44    1
    32    21    28    1
    33    21    22   ar
    34    29    28   ar
    35    29    30   ar
    36    17    22   ar
    37    17    24    1
    38    28    32   ar
    39    33    32    1
    40    30    38    1
    41    30    31   ar
    42    32    31   ar
    43    12    13    1
    44    38    39    1
    45    38    41    1
    46    31    42    1
    47    24    25    3
    48    44    45   ar
    49    42    46   ar
    50    25    26    1
    51    45    46   ar
    52    45    48    1
    53    46    47    1
    54    16    13    1
    55    13    14    1
    56    13    15    1
