@<TRIPOS>MOLECULE
mol_data/opt/m06hf/geoms/mol2/12ll12ll-.out
 32 33 0 0 0
SMALL
GASTEIGER

@<TRIPOS>ATOM
      1 C           0.0424    1.8412   -0.0000 C.ar    1  LIG1        0.1381
      2 C           1.3998    1.7605    0.0000 C.ar    1  LIG1        0.2004
      3 C           1.8850    3.1252   -0.0000 C.ar    1  LIG1        0.2111
      4 C           0.7664    3.9054   -0.0001 C.ar    1  LIG1        0.2186
      5 O          -0.3427    3.1340   -0.0001 O.2     1  LIG1       -0.4521
      6 H          -0.7366    1.1019   -0.0001 H       1  LIG1        0.1069
      7 O           2.1953    0.6614    0.0001 O.3     1  LIG1       -0.4888
      8 C           1.4970   -0.5708    0.0001 C.3     1  LIG1        0.0791
      9 H           2.2523   -1.3516    0.0001 H       1  LIG1        0.0660
     10 H           0.8740   -0.6505    0.8954 H       1  LIG1        0.0660
     11 H           0.8741   -0.6505   -0.8953 H       1  LIG1        0.0660
     12 O           3.1491    3.6007    0.0001 O.3     1  LIG1       -0.4883
     13 C           4.2011    2.6441   -0.0000 C.3     1  LIG1        0.0791
     14 H           5.1189    3.2264   -0.0000 H       1  LIG1        0.0660
     15 H           4.1492    2.0167    0.8900 H       1  LIG1        0.0660
     16 H           4.1491    2.0168   -0.8902 H       1  LIG1        0.0660
     17 C           0.5918    5.3446   -0.0001 C.ar    1  LIG1        0.2186
     18 C          -0.5267    6.1248   -0.0001 C.ar    1  LIG1        0.2111
     19 C          -0.0416    7.4895   -0.0001 C.ar    1  LIG1        0.2004
     20 C           1.3158    7.4089   -0.0002 C.ar    1  LIG1        0.1381
     21 O           1.7010    6.1160   -0.0002 O.2     1  LIG1       -0.4521
     22 H           2.0949    8.1482   -0.0002 H       1  LIG1        0.1069
     23 O          -1.7909    5.6493    0.0000 O.3     1  LIG1       -0.4883
     24 C          -2.8429    6.6059   -0.0001 C.3     1  LIG1        0.0791
     25 H          -3.7606    6.0237   -0.0000 H       1  LIG1        0.0660
     26 H          -2.7909    7.2334    0.8899 H       1  LIG1        0.0660
     27 H          -2.7909    7.2332   -0.8902 H       1  LIG1        0.0660
     28 O          -0.8370    8.5887   -0.0001 O.3     1  LIG1       -0.4888
     29 C          -0.1387    9.8209   -0.0002 C.3     1  LIG1        0.0791
     30 H          -0.8940   10.6016   -0.0002 H       1  LIG1        0.0660
     31 H           0.4842    9.9006    0.8951 H       1  LIG1        0.0660
     32 H           0.4841    9.9005   -0.8955 H       1  LIG1        0.0660
@<TRIPOS>BOND
     1    32    29    1
     2    11     8    1
     3    27    24    1
     4    16    13    1
     5    22    20    1
     6    29    30    1
     7    29    28    1
     8    29    31    1
     9    20    21   ar
    10    20    19   ar
    11    21    17   ar
    12    19    28    1
    13    19    18   ar
    14    17    18   ar
    15    17     4    1
    16     5     4   ar
    17     5     1   ar
    18    18    23    1
    19     4     3   ar
    20    24    25    1
    21    24    23    1
    22    24    26    1
    23     6     1    1
    24     1     2   ar
    25    13    14    1
    26    13    12    1
    27    13    15    1
    28     3     2   ar
    29     3    12    1
    30     2     7    1
    31     8     7    1
    32     8     9    1
    33     8    10    1
