@<TRIPOS>MOLECULE
mol_data/opt/m06hf/geoms/mol2/12ll12ll-12ll-12ll-.out
 62 65 0 0 0
SMALL
GASTEIGER

@<TRIPOS>ATOM
      1 C           0.2047    1.9931    1.0187 C.ar    1  LIG1        0.1381
      2 C           1.4802    2.1335    1.4669 C.ar    1  LIG1        0.2004
      3 C           1.8486    3.5047    1.2152 C.ar    1  LIG1        0.2111
      4 C           0.7651    4.0715    0.6136 C.ar    1  LIG1        0.2186
      5 O          -0.2286    3.1696    0.4974 O.2     1  LIG1       -0.4521
      6 H          -0.4884    1.1731    0.9947 H       1  LIG1        0.1069
      7 O           2.3199    1.2476    2.0404 O.3     1  LIG1       -0.4888
      8 C           1.7551   -0.0291    2.2740 C.3     1  LIG1        0.0791
      9 H           2.5253   -0.6238    2.7565 H       1  LIG1        0.0660
     10 H           0.8834    0.0588    2.9284 H       1  LIG1        0.0660
     11 H           1.4618   -0.4927    1.3277 H       1  LIG1        0.0660
     12 O           3.0308    4.0729    1.5504 O.3     1  LIG1       -0.4883
     13 C           3.9702    4.1370    0.4748 C.3     1  LIG1        0.0791
     14 H           4.8957    4.5102    0.9072 H       1  LIG1        0.0660
     15 H           4.1264    3.1396    0.0591 H       1  LIG1        0.0660
     16 H           3.6122    4.8253   -0.2909 H       1  LIG1        0.0660
     17 C           0.5572    5.4135    0.1055 C.ar    1  LIG1        0.2196
     18 C          -0.5083    6.0484   -0.4531 C.ar    1  LIG1        0.2119
     19 C          -0.0510    7.3761   -0.7942 C.ar    1  LIG1        0.2119
     20 C           1.2586    7.4370   -0.4117 C.ar    1  LIG1        0.2197
     21 O           1.6235    6.2368    0.1264 O.2     1  LIG1       -0.4407
     22 O          -1.7413    5.5494   -0.6952 O.3     1  LIG1       -0.4883
     23 C          -2.7669    6.1845    0.0707 C.3     1  LIG1        0.0791
     24 H          -3.7026    5.7290   -0.2427 H       1  LIG1        0.0660
     25 H          -2.5965    6.0040    1.1337 H       1  LIG1        0.0660
     26 H          -2.7781    7.2553   -0.1362 H       1  LIG1        0.0660
     27 O          -0.8735    8.2489   -1.3986 O.3     1  LIG1       -0.4883
     28 C          -0.2784    9.3781   -2.0346 C.3     1  LIG1        0.0791
     29 H          -1.0712    9.8301   -2.6245 H       1  LIG1        0.0660
     30 H           0.0897   10.0811   -1.2874 H       1  LIG1        0.0660
     31 H           0.5341    9.0486   -2.6861 H       1  LIG1        0.0660
     32 C           2.3123    8.4427   -0.4283 C.ar    1  LIG1        0.2197
     33 C           2.3619    9.7359   -0.0152 C.ar    1  LIG1        0.2119
     34 C           3.7097   10.1920   -0.2541 C.ar    1  LIG1        0.2119
     35 C           4.3806    9.1206   -0.7719 C.ar    1  LIG1        0.2196
     36 O           3.5236    8.0663   -0.8904 O.2     1  LIG1       -0.4407
     37 O           1.3477   10.4715    0.5012 O.3     1  LIG1       -0.4883
     38 C           1.5607   10.8497    1.8656 C.3     1  LIG1        0.0791
     39 H           0.6882   11.4274    2.1582 H       1  LIG1        0.0660
     40 H           1.6480    9.9536    2.4820 H       1  LIG1        0.0660
     41 H           2.4636   11.4555    1.9439 H       1  LIG1        0.0660
     42 O           4.0675   11.4572    0.0227 O.3     1  LIG1       -0.4883
     43 C           5.3519   11.8861   -0.4214 C.3     1  LIG1        0.0791
     44 H           5.3744   12.9593   -0.2532 H       1  LIG1        0.0660
     45 H           6.1339   11.3911    0.1547 H       1  LIG1        0.0660
     46 H           5.4677   11.6692   -1.4860 H       1  LIG1        0.0660
     47 C           5.7611    8.8588   -1.1648 C.ar    1  LIG1        0.2186
     48 C           6.9315    8.9652   -0.4836 C.ar    1  LIG1        0.2111
     49 C           7.9628    8.4988   -1.3776 C.ar    1  LIG1        0.2004
     50 C           7.3276    8.1420   -2.5254 C.ar    1  LIG1        0.1381
     51 O           5.9982    8.3696   -2.4033 O.2     1  LIG1       -0.4521
     52 H           7.6646    7.7403   -3.4632 H       1  LIG1        0.1069
     53 O           7.1034    9.4330    0.7768 O.3     1  LIG1       -0.4883
     54 C           7.5201    8.4231    1.7014 C.3     1  LIG1        0.0791
     55 H           7.6268    8.9188    2.6624 H       1  LIG1        0.0660
     56 H           6.7587    7.6434    1.7581 H       1  LIG1        0.0660
     57 H           8.4741    8.0017    1.3831 H       1  LIG1        0.0660
     58 O           9.2677    8.4546   -1.0325 O.3     1  LIG1       -0.4888
     59 C          10.1302    7.9803   -2.0527 C.3     1  LIG1        0.0791
     60 H          11.1354    8.0024   -1.6423 H       1  LIG1        0.0660
     61 H           9.8595    6.9578   -2.3284 H       1  LIG1        0.0660
     62 H          10.0674    8.6313   -2.9288 H       1  LIG1        0.0660
@<TRIPOS>BOND
     1    52    50    1
     2    62    59    1
     3    31    28    1
     4    29    28    1
     5    50    51   ar
     6    50    49   ar
     7    51    47   ar
     8    61    59    1
     9    59    60    1
    10    59    58    1
    11    28    27    1
    12    28    30    1
    13    46    43    1
    14    27    19    1
    15    49    58    1
    16    49    48   ar
    17    47    35    1
    18    47    48   ar
    19    36    35   ar
    20    36    32   ar
    21    19    18   ar
    22    19    20   ar
    23    35    34   ar
    24    22    18    1
    25    22    23    1
    26    48    53    1
    27    18    17   ar
    28    32    20    1
    29    32    33   ar
    30    43    44    1
    31    43    42    1
    32    43    45    1
    33    20    21   ar
    34    16    13    1
    35    34    33   ar
    36    34    42    1
    37    24    23    1
    38    26    23    1
    39    33    37    1
    40    15    13    1
    41    23    25    1
    42    17    21   ar
    43    17     4    1
    44    13    14    1
    45    13    12    1
    46     5     4   ar
    47     5     1   ar
    48    37    38    1
    49     4     3   ar
    50    53    54    1
    51     6     1    1
    52     1     2   ar
    53     3     2   ar
    54     3    12    1
    55    11     8    1
    56    57    54    1
    57     2     7    1
    58    54    56    1
    59    54    55    1
    60    38    41    1
    61    38    39    1
    62    38    40    1
    63     7     8    1
    64     8     9    1
    65     8    10    1
