@<TRIPOS>MOLECULE
mol_data/opt/m06hf/geoms/mol2/12ll12ll-12ll-12ll.out
 62 65 0 0 0
SMALL
GASTEIGER

@<TRIPOS>ATOM
      1 C           0.0431    1.9417    0.2365 C.ar    1  LIG1        0.1381
      2 C           1.3424    1.9505   -0.1634 C.ar    1  LIG1        0.2004
      3 C           1.7139    3.3379   -0.3006 C.ar    1  LIG1        0.2111
      4 C           0.6066    4.0484    0.0511 C.ar    1  LIG1        0.2186
      5 O          -0.4038    3.2184    0.3721 O.2     1  LIG1       -0.4521
      6 H          -0.6618    1.1605    0.4519 H       1  LIG1        0.1069
      7 O           2.1997    0.9406   -0.4134 O.3     1  LIG1       -0.4888
      8 C           1.6286   -0.3524   -0.3265 C.3     1  LIG1        0.0791
      9 H           2.4195   -1.0558   -0.5703 H       1  LIG1        0.0660
     10 H           1.2629   -0.5374    0.6873 H       1  LIG1        0.0660
     11 H           0.8064   -0.4481   -1.0406 H       1  LIG1        0.0660
     12 O           2.9137    3.8071   -0.7203 O.3     1  LIG1       -0.4883
     13 C           3.8700    3.9637    0.3337 C.3     1  LIG1        0.0791
     14 H           4.7946    4.2901   -0.1386 H       1  LIG1        0.0660
     15 H           3.5237    4.7270    1.0326 H       1  LIG1        0.0660
     16 H           4.0179    3.0093    0.8419 H       1  LIG1        0.0660
     17 C           0.4250    5.4819    0.1500 C.ar    1  LIG1        0.2196
     18 C          -0.6428    6.3204    0.2739 C.ar    1  LIG1        0.2119
     19 C          -0.0947    7.6545    0.3484 C.ar    1  LIG1        0.2119
     20 C           1.2521    7.5126    0.2305 C.ar    1  LIG1        0.2197
     21 O           1.5671    6.2043    0.1203 O.2     1  LIG1       -0.4407
     22 O          -1.9584    5.9976    0.3040 O.3     1  LIG1       -0.4883
     23 C          -2.5501    6.2047    1.5896 C.3     1  LIG1        0.0791
     24 H          -3.5989    5.9392    1.4868 H       1  LIG1        0.0660
     25 H          -2.0657    5.5582    2.3231 H       1  LIG1        0.0660
     26 H          -2.4476    7.2514    1.8819 H       1  LIG1        0.0660
     27 O          -0.7938    8.8036    0.5234 O.3     1  LIG1       -0.4883
     28 C          -1.5031    9.2092   -0.6556 C.3     1  LIG1        0.0791
     29 H          -2.0905   10.0781   -0.3673 H       1  LIG1        0.0660
     30 H          -0.7823    9.4746   -1.4297 H       1  LIG1        0.0660
     31 H          -2.1576    8.4012   -0.9867 H       1  LIG1        0.0660
     32 C           2.3575    8.4400    0.1369 C.ar    1  LIG1        0.2197
     33 C           2.4468    9.7166   -0.3179 C.ar    1  LIG1        0.2119
     34 C           3.8522   10.0438   -0.3122 C.ar    1  LIG1        0.2119
     35 C           4.5044    8.9262    0.1351 C.ar    1  LIG1        0.2196
     36 O           3.5806    7.9627    0.4255 O.2     1  LIG1       -0.4407
     37 O           1.4370   10.4936   -0.7744 O.3     1  LIG1       -0.4883
     38 C           1.0154   11.4861    0.1671 C.3     1  LIG1        0.0791
     39 H           0.2595   12.0802   -0.3411 H       1  LIG1        0.0660
     40 H           0.5872   10.9935    1.0412 H       1  LIG1        0.0660
     41 H           1.8626   12.1141    0.4460 H       1  LIG1        0.0660
     42 O           4.2897   11.2399   -0.7387 O.3     1  LIG1       -0.4883
     43 C           5.6914   11.3628   -0.9526 C.3     1  LIG1        0.0791
     44 H           5.8422   12.3564   -1.3648 H       1  LIG1        0.0660
     45 H           6.2290   11.2509   -0.0106 H       1  LIG1        0.0660
     46 H           6.0282   10.6040   -1.6631 H       1  LIG1        0.0660
     47 C           5.8915    8.4996    0.2861 C.ar    1  LIG1        0.2186
     48 C           6.5519    7.4029   -0.1893 C.ar    1  LIG1        0.2111
     49 C           7.8818    7.4630    0.3770 C.ar    1  LIG1        0.2004
     50 C           7.9158    8.5797    1.1399 C.ar    1  LIG1        0.1381
     51 O           6.7262    9.2137    1.0942 O.2     1  LIG1       -0.4521
     52 H           8.6999    9.0302    1.7210 H       1  LIG1        0.1069
     53 O           6.1810    6.4070   -1.0183 O.3     1  LIG1       -0.4883
     54 C           5.0474    6.6183   -1.8650 C.3     1  LIG1        0.0791
     55 H           5.1221    5.8647   -2.6445 H       1  LIG1        0.0660
     56 H           4.1220    6.4842   -1.3057 H       1  LIG1        0.0660
     57 H           5.0930    7.6196   -2.2984 H       1  LIG1        0.0660
     58 O           8.8999    6.6003    0.1426 O.3     1  LIG1       -0.4888
     59 C           8.6255    5.2625    0.5629 C.3     1  LIG1        0.0791
     60 H           9.5177    4.6859    0.3327 H       1  LIG1        0.0660
     61 H           8.4314    5.2451    1.6373 H       1  LIG1        0.0660
     62 H           7.7675    4.8671    0.0191 H       1  LIG1        0.0660
@<TRIPOS>BOND
     1    55    54    1
     2    57    54    1
     3    54    56    1
     4    54    53    1
     5    46    43    1
     6    30    28    1
     7    44    43    1
     8    11     8    1
     9    53    48    1
    10    31    28    1
    11    43    42    1
    12    43    45    1
    13    37    33    1
    14    37    38    1
    15    42    34    1
    16    12     3    1
    17    12    13    1
    18    28    29    1
    19    28    27    1
    20     9     8    1
    21     7     8    1
    22     7     2    1
    23    39    38    1
    24     8    10    1
    25    33    34   ar
    26    33    32   ar
    27    34    35   ar
    28     3     2   ar
    29     3     4   ar
    30    48    47   ar
    31    48    49   ar
    32     2     1   ar
    33    14    13    1
    34    62    59    1
    35     4    17    1
    36     4     5   ar
    37    21    17   ar
    38    21    20   ar
    39    35    47    1
    40    35    36   ar
    41    32    20    1
    42    32    36   ar
    43    58    49    1
    44    58    59    1
    45    17    18   ar
    46    38    41    1
    47    38    40    1
    48    20    19   ar
    49     1     5   ar
    50     1     6    1
    51    18    22    1
    52    18    19   ar
    53    47    51   ar
    54    22    23    1
    55    60    59    1
    56    13    16    1
    57    13    15    1
    58    19    27    1
    59    49    50   ar
    60    59    61    1
    61    51    50   ar
    62    50    52    1
    63    24    23    1
    64    23    26    1
    65    23    25    1
