@<TRIPOS>MOLECULE
mol_data/opt/m06hf/geoms/mol2/12ll.out
 17 17 0 0 0
SMALL
GASTEIGER

@<TRIPOS>ATOM
      1 C           0.0541    1.9114   -0.0001 C.ar    1  LIG1        0.1370
      2 C           1.4101    1.8096    0.0000 C.ar    1  LIG1        0.1996
      3 C           1.9119    3.1709    0.0000 C.ar    1  LIG1        0.1996
      4 C           0.8117    3.9615   -0.0001 C.ar    1  LIG1        0.1370
      5 O          -0.3114    3.2109   -0.0001 O.2     1  LIG1       -0.4635
      6 H          -0.7360    1.1829   -0.0001 H       1  LIG1        0.1069
      7 H           0.7020    5.0301   -0.0001 H       1  LIG1        0.1069
      8 O           2.1884    0.6976    0.0002 O.3     1  LIG1       -0.4888
      9 C           1.4686   -0.5221    0.0002 C.3     1  LIG1        0.0791
     10 H           2.2089   -1.3172    0.0002 H       1  LIG1        0.0660
     11 H           0.8441   -0.5913    0.8950 H       1  LIG1        0.0660
     12 H           0.8443   -0.5913   -0.8947 H       1  LIG1        0.0660
     13 O           3.1830    3.6379    0.0001 O.3     1  LIG1       -0.4888
     14 C           4.2302    2.6756   -0.0001 C.3     1  LIG1        0.0791
     15 H           5.1515    3.2521   -0.0001 H       1  LIG1        0.0660
     16 H           4.1773    2.0481    0.8899 H       1  LIG1        0.0660
     17 H           4.1772    2.0485   -0.8904 H       1  LIG1        0.0660
@<TRIPOS>BOND
     1    12     9    1
     2    17    14    1
     3     5     4   ar
     4     5     1   ar
     5    14    15    1
     6    14    13    1
     7    14    16    1
     8     7     4    1
     9     6     1    1
    10     4     3   ar
    11     1     2   ar
    12     3     2   ar
    13     3    13    1
    14     2     8    1
    15     9     8    1
    16     9    10    1
    17     9    11    1
