@<TRIPOS>MOLECULE
mol_data/opt/m06hf/geoms/mol2/12ll12ll12ll12ll.out
 62 65 0 0 0
SMALL
GASTEIGER

@<TRIPOS>ATOM
      1 C          -4.5683   -2.0833   -1.8484 C.ar    1  LIG1        0.1381
      2 C          -5.3115   -2.0906   -0.7112 C.ar    1  LIG1        0.2004
      3 C          -4.7180   -1.1031    0.1578 C.ar    1  LIG1        0.2111
      4 C          -3.6729   -0.5742   -0.5322 C.ar    1  LIG1        0.2186
      5 O          -3.5842   -1.1579   -1.7477 O.2     1  LIG1       -0.4521
      6 H          -4.6141   -2.6397   -2.7664 H       1  LIG1        0.1069
      7 O          -6.3827   -2.8335   -0.3563 O.3     1  LIG1       -0.4888
      8 C          -6.7847   -3.7873   -1.3250 C.3     1  LIG1        0.0791
      9 H          -7.6411   -4.3090   -0.9078 H       1  LIG1        0.0660
     10 H          -7.0694   -3.2837   -2.2524 H       1  LIG1        0.0660
     11 H          -5.9715   -4.4917   -1.5188 H       1  LIG1        0.0660
     12 O          -5.1334   -0.7556    1.3997 O.3     1  LIG1       -0.4883
     13 C          -5.0457   -1.8216    2.3511 C.3     1  LIG1        0.0791
     14 H          -5.4291   -1.4221    3.2858 H       1  LIG1        0.0660
     15 H          -5.6512   -2.6650    2.0193 H       1  LIG1        0.0660
     16 H          -4.0032   -2.1224    2.4661 H       1  LIG1        0.0660
     17 C          -2.6884    0.4359   -0.1717 C.ar    1  LIG1        0.2196
     18 C          -2.7573    1.6318    0.4855 C.ar    1  LIG1        0.2119
     19 C          -1.3967    2.0965    0.5905 C.ar    1  LIG1        0.2119
     20 C          -0.6198    1.1679   -0.0251 C.ar    1  LIG1        0.2197
     21 O          -1.3969    0.1655   -0.4951 O.2     1  LIG1       -0.4407
     22 O          -3.7869    2.3513    0.9705 O.3     1  LIG1       -0.4883
     23 C          -5.0479    2.2226    0.3127 C.3     1  LIG1        0.0791
     24 H          -5.6189    3.1004    0.6039 H       1  LIG1        0.0660
     25 H          -4.8982    2.2113   -0.7689 H       1  LIG1        0.0660
     26 H          -5.5522    1.3157    0.6417 H       1  LIG1        0.0660
     27 O          -0.9876    3.2630    1.1441 O.3     1  LIG1       -0.4883
     28 C          -1.2575    3.3526    2.5474 C.3     1  LIG1        0.0791
     29 H          -0.9051    4.3320    2.8589 H       1  LIG1        0.0660
     30 H          -2.3287    3.2568    2.7251 H       1  LIG1        0.0660
     31 H          -0.7119    2.5679    3.0734 H       1  LIG1        0.0660
     32 C           0.8206    1.1040   -0.2439 C.ar    1  LIG1        0.2197
     33 C           1.7317    1.9342   -0.8323 C.ar    1  LIG1        0.2119
     34 C           3.0164    1.3091   -0.6388 C.ar    1  LIG1        0.2119
     35 C           2.7844    0.1442    0.0208 C.ar    1  LIG1        0.2196
     36 O           1.4627    0.0108    0.2571 O.2     1  LIG1       -0.4407
     37 O           1.6248    3.0968   -1.4980 O.3     1  LIG1       -0.4883
     38 C           0.3132    3.5588   -1.8109 C.3     1  LIG1        0.0791
     39 H           0.4554    4.3993   -2.4851 H       1  LIG1        0.0660
     40 H          -0.2502    2.7668   -2.3093 H       1  LIG1        0.0660
     41 H          -0.1992    3.8786   -0.9029 H       1  LIG1        0.0660
     42 O           4.2113    1.7831   -1.0693 O.3     1  LIG1       -0.4883
     43 C           4.5854    3.0208   -0.4565 C.3     1  LIG1        0.0791
     44 H           5.5424    3.2948   -0.8928 H       1  LIG1        0.0660
     45 H           3.8358    3.7823   -0.6721 H       1  LIG1        0.0660
     46 H           4.6871    2.8781    0.6206 H       1  LIG1        0.0660
     47 C           3.6867   -0.8943    0.5029 C.ar    1  LIG1        0.2186
     48 C           4.7276   -1.5902   -0.0414 C.ar    1  LIG1        0.2111
     49 C           5.2463   -2.4218    1.0227 C.ar    1  LIG1        0.2004
     50 C           4.4784   -2.1694    2.1074 C.ar    1  LIG1        0.1381
     51 O           3.5326   -1.2602    1.8071 O.2     1  LIG1       -0.4521
     52 H           4.4841   -2.5750    3.1027 H       1  LIG1        0.1069
     53 O           5.2534   -1.6349   -1.2792 O.3     1  LIG1       -0.4883
     54 C           4.4551   -1.1380   -2.3510 C.3     1  LIG1        0.0791
     55 H           4.9354   -1.4914   -3.2597 H       1  LIG1        0.0660
     56 H           3.4446   -1.5457   -2.2770 H       1  LIG1        0.0660
     57 H           4.4324   -0.0487   -2.3320 H       1  LIG1        0.0660
     58 O           6.2687   -3.3078    0.9270 O.3     1  LIG1       -0.4888
     59 C           7.5144   -2.7012    0.5825 C.3     1  LIG1        0.0791
     60 H           8.2429   -3.5074    0.5447 H       1  LIG1        0.0660
     61 H           7.4379   -2.2124   -0.3888 H       1  LIG1        0.0660
     62 H           7.7968   -1.9746    1.3477 H       1  LIG1        0.0660
@<TRIPOS>BOND
     1    55    54    1
     2     6     1    1
     3    39    38    1
     4    54    57    1
     5    54    56    1
     6    54    53    1
     7    40    38    1
     8    10     8    1
     9     1     5   ar
    10     1     2   ar
    11    38    37    1
    12    38    41    1
    13     5     4   ar
    14    11     8    1
    15    37    33    1
    16     8     9    1
    17     8     7    1
    18    53    48    1
    19    42    34    1
    20    42    43    1
    21    44    43    1
    22    33    34   ar
    23    33    32   ar
    24    25    23    1
    25     2     7    1
    26     2     3   ar
    27    45    43    1
    28    34    35   ar
    29     4    17    1
    30     4     3   ar
    31    21    17   ar
    32    21    20   ar
    33    43    46    1
    34    61    59    1
    35    32    20    1
    36    32    36   ar
    37    17    18   ar
    38    48    47   ar
    39    48    49   ar
    40    20    19   ar
    41    35    36   ar
    42    35    47    1
    43     3    12    1
    44    23    24    1
    45    23    26    1
    46    23    22    1
    47    18    19   ar
    48    18    22    1
    49    47    51   ar
    50    60    59    1
    51    59    58    1
    52    59    62    1
    53    19    27    1
    54    58    49    1
    55    49    50   ar
    56    27    28    1
    57    12    13    1
    58    51    50   ar
    59    15    13    1
    60    50    52    1
    61    13    16    1
    62    13    14    1
    63    28    30    1
    64    28    29    1
    65    28    31    1
