@<TRIPOS>MOLECULE
mol_data/opt/m06hf/geoms/mol2/12ll12ll12ll12ll-.out
 62 65 0 0 0
SMALL
GASTEIGER

@<TRIPOS>ATOM
      1 C           1.4196    2.2350    2.6417 C.ar    1  LIG1        0.1381
      2 C           2.0764    1.7998    1.5344 C.ar    1  LIG1        0.2004
      3 C           1.9697    2.8639    0.5660 C.ar    1  LIG1        0.2111
      4 C           1.2679    3.8577    1.1720 C.ar    1  LIG1        0.2186
      5 O           0.9408    3.4832    2.4290 O.2     1  LIG1       -0.4521
      6 H           1.2213    1.7991    3.6035 H       1  LIG1        0.1069
      7 O           2.7139    0.6355    1.2805 O.3     1  LIG1       -0.4888
      8 C           2.7143   -0.2817    2.3613 C.3     1  LIG1        0.0791
      9 H           3.2679   -1.1539    2.0263 H       1  LIG1        0.0660
     10 H           3.2059    0.1635    3.2301 H       1  LIG1        0.0660
     11 H           1.6888   -0.5617    2.6170 H       1  LIG1        0.0660
     12 O           2.4902    2.8806   -0.6856 O.3     1  LIG1       -0.4883
     13 C           1.9487    1.8713   -1.5434 C.3     1  LIG1        0.0791
     14 H           2.4411    1.9971   -2.5040 H       1  LIG1        0.0660
     15 H           2.1590    0.8834   -1.1331 H       1  LIG1        0.0660
     16 H           0.8725    2.0194   -1.6457 H       1  LIG1        0.0660
     17 C           0.8174    5.1616    0.7011 C.ar    1  LIG1        0.2196
     18 C           1.4138    6.2058    0.0530 C.ar    1  LIG1        0.2119
     19 C           0.3675    7.1708   -0.1787 C.ar    1  LIG1        0.2119
     20 C          -0.7646    6.6545    0.3661 C.ar    1  LIG1        0.2197
     21 O          -0.4992    5.4443    0.9028 O.2     1  LIG1       -0.4407
     22 O           2.6785    6.4483   -0.3361 O.3     1  LIG1       -0.4883
     23 C           3.7143    5.6779    0.2701 C.3     1  LIG1        0.0791
     24 H           4.6405    6.1862    0.0146 H       1  LIG1        0.0660
     25 H           3.5791    5.6653    1.3540 H       1  LIG1        0.0660
     26 H           3.7134    4.6644   -0.1292 H       1  LIG1        0.0660
     27 O           0.5070    8.3792   -0.7763 O.3     1  LIG1       -0.4883
     28 C           0.8868    8.2938   -2.1532 C.3     1  LIG1        0.0791
     29 H           0.9633    9.3177   -2.5087 H       1  LIG1        0.0660
     30 H           1.8471    7.7855   -2.2420 H       1  LIG1        0.0660
     31 H           0.1183    7.7554   -2.7103 H       1  LIG1        0.0660
     32 C          -2.1193    7.1817    0.4598 C.ar    1  LIG1        0.2197
     33 C          -2.6554    8.3647    0.8818 C.ar    1  LIG1        0.2119
     34 C          -4.0776    8.2604    0.6608 C.ar    1  LIG1        0.2119
     35 C          -4.2863    7.0319    0.1181 C.ar    1  LIG1        0.2196
     36 O          -3.1181    6.3714    0.0002 O.2     1  LIG1       -0.4407
     37 O          -2.1278    9.4679    1.4366 O.3     1  LIG1       -0.4883
     38 C          -0.8105    9.3753    1.9738 C.3     1  LIG1        0.0791
     39 H          -0.6802   10.2699    2.5770 H       1  LIG1        0.0660
     40 H          -0.7284    8.4839    2.6000 H       1  LIG1        0.0660
     41 H          -0.0759    9.3483    1.1692 H       1  LIG1        0.0660
     42 O          -5.0027    9.1926    0.9830 O.3     1  LIG1       -0.4883
     43 C          -4.9475   10.3483    0.1457 C.3     1  LIG1        0.0791
     44 H          -5.7021   11.0327    0.5244 H       1  LIG1        0.0660
     45 H          -3.9586   10.8047    0.2045 H       1  LIG1        0.0660
     46 H          -5.1770   10.0647   -0.8833 H       1  LIG1        0.0660
     47 C          -5.4941    6.3714   -0.3404 C.ar    1  LIG1        0.2186
     48 C          -5.7783    5.0611   -0.5676 C.ar    1  LIG1        0.2111
     49 C          -7.1339    5.0339   -1.0617 C.ar    1  LIG1        0.2004
     50 C          -7.5613    6.3238   -1.0698 C.ar    1  LIG1        0.1381
     51 O          -6.5649    7.1374   -0.6349 O.2     1  LIG1       -0.4521
     52 H          -8.4865    6.7992   -1.3388 H       1  LIG1        0.1069
     53 O          -4.9817    3.9882   -0.3555 O.3     1  LIG1       -0.4883
     54 C          -4.3699    3.4981   -1.5484 C.3     1  LIG1        0.0791
     55 H          -3.7718    2.6406   -1.2514 H       1  LIG1        0.0660
     56 H          -5.1367    3.1952   -2.2637 H       1  LIG1        0.0660
     57 H          -3.7318    4.2721   -1.9770 H       1  LIG1        0.0660
     58 O          -7.7562    3.8902   -1.4164 O.3     1  LIG1       -0.4888
     59 C          -9.1018    4.0566   -1.8254 C.3     1  LIG1        0.0791
     60 H          -9.4764    3.0661   -2.0673 H       1  LIG1        0.0660
     61 H          -9.6891    4.4928   -1.0135 H       1  LIG1        0.0660
     62 H          -9.1511    4.7011   -2.7075 H       1  LIG1        0.0660
@<TRIPOS>BOND
     1    31    28    1
     2    62    59    1
     3    29    28    1
     4    14    13    1
     5    56    54    1
     6    30    28    1
     7    28    27    1
     8    60    59    1
     9    57    54    1
    10    59    58    1
    11    59    61    1
    12    16    13    1
    13    54    55    1
    14    54    53    1
    15    13    15    1
    16    13    12    1
    17    58    49    1
    18    52    50    1
    19    50    49   ar
    20    50    51   ar
    21    49    48   ar
    22    46    43    1
    23    27    19    1
    24    12     3    1
    25    51    47   ar
    26    48    53    1
    27    48    47   ar
    28    47    35    1
    29    22    18    1
    30    22    23    1
    31    19    18   ar
    32    19    20   ar
    33    26    23    1
    34    36    35   ar
    35    36    32   ar
    36    24    23    1
    37    18    17   ar
    38    35    34   ar
    39    43    45    1
    40    43    44    1
    41    43    42    1
    42    23    25    1
    43    20    32    1
    44    20    21   ar
    45    32    33   ar
    46     3     4   ar
    47     3     2   ar
    48    34    33   ar
    49    34    42    1
    50    17    21   ar
    51    17     4    1
    52    33    37    1
    53    41    38    1
    54     4     5   ar
    55     7     2    1
    56     7     8    1
    57    37    38    1
    58     2     1   ar
    59    38    39    1
    60    38    40    1
    61     9     8    1
    62     8    11    1
    63     8    10    1
    64     5     1   ar
    65     1     6    1
