@<TRIPOS>MOLECULE
mol_data/opt/m06hf/geoms/mol2/12ll12ll12ll-12ll.out
 62 65 0 0 0
SMALL
GASTEIGER

@<TRIPOS>ATOM
      1 C          -0.1956    1.8366    0.0068 C.ar    1  LIG1        0.1381
      2 C           1.1225    1.5194    0.0091 C.ar    1  LIG1        0.2004
      3 C           1.8397    2.7774    0.0045 C.ar    1  LIG1        0.2111
      4 C           0.8839    3.7620   -0.0001 C.ar    1  LIG1        0.2186
      5 O          -0.3385    3.1707    0.0014 O.2     1  LIG1       -0.4521
      6 H          -1.0959    1.2504    0.0086 H       1  LIG1        0.1069
      7 O           1.7137    0.2980    0.0146 O.3     1  LIG1       -0.4888
      8 C           0.8085   -0.7924    0.0182 C.3     1  LIG1        0.0791
      9 H           1.4145   -1.6940    0.0227 H       1  LIG1        0.0660
     10 H           0.1810   -0.7564    0.9126 H       1  LIG1        0.0660
     11 H           0.1831   -0.7639   -0.8779 H       1  LIG1        0.0660
     12 O           3.1802    2.9579    0.0050 O.3     1  LIG1       -0.4883
     13 C           4.0264    1.8121    0.0106 C.3     1  LIG1        0.0791
     14 H           5.0385    2.2100    0.0097 H       1  LIG1        0.0660
     15 H           3.8542    1.2130    0.9037 H       1  LIG1        0.0660
     16 H           3.8555    1.2053   -0.8775 H       1  LIG1        0.0660
     17 C           0.7669    5.2357   -0.0057 C.ar    1  LIG1        0.2196
     18 C           1.5158    6.3940   -0.0117 C.ar    1  LIG1        0.2119
     19 C           0.5726    7.4919   -0.0133 C.ar    1  LIG1        0.2119
     20 C          -0.6647    6.9269   -0.0083 C.ar    1  LIG1        0.2197
     21 O          -0.5468    5.5895   -0.0040 O.2     1  LIG1       -0.4407
     22 O           2.8343    6.6822   -0.0163 O.3     1  LIG1       -0.4883
     23 C           3.7778    5.6287   -0.0147 C.3     1  LIG1        0.0791
     24 H           4.7537    6.1091   -0.0209 H       1  LIG1        0.0660
     25 H           3.6599    5.0147    0.8775 H       1  LIG1        0.0660
     26 H           3.6530    5.0057   -0.8997 H       1  LIG1        0.0660
     27 O           0.7942    8.8284   -0.0196 O.3     1  LIG1       -0.4883
     28 C           2.1347    9.3123   -0.0321 C.3     1  LIG1        0.0791
     29 H           2.0428   10.3955   -0.0375 H       1  LIG1        0.0660
     30 H           2.6712    8.9817    0.8557 H       1  LIG1        0.0660
     31 H           2.6579    8.9720   -0.9241 H       1  LIG1        0.0660
     32 C          -2.0070    7.4670   -0.0074 C.ar    1  LIG1        0.2197
     33 C          -3.2181    6.8501   -0.0080 C.ar    1  LIG1        0.2119
     34 C          -4.2122    7.9056   -0.0069 C.ar    1  LIG1        0.2119
     35 C          -3.5083    9.0900   -0.0052 C.ar    1  LIG1        0.2196
     36 O          -2.1812    8.8077   -0.0058 O.2     1  LIG1       -0.4407
     37 O          -3.3679    5.5113   -0.0098 O.3     1  LIG1       -0.4883
     38 C          -4.6682    4.9350   -0.0123 C.3     1  LIG1        0.0791
     39 H          -4.4931    3.8620   -0.0140 H       1  LIG1        0.0660
     40 H          -5.2242    5.2276    0.8775 H       1  LIG1        0.0660
     41 H          -5.2220    5.2306   -0.9025 H       1  LIG1        0.0660
     42 O          -5.5123    7.5314   -0.0067 O.3     1  LIG1       -0.4883
     43 C          -6.6117    8.4305   -0.0057 C.3     1  LIG1        0.0791
     44 H          -7.4882    7.7865   -0.0050 H       1  LIG1        0.0660
     45 H          -6.5968    9.0549    0.8857 H       1  LIG1        0.0660
     46 H          -6.5982    9.0552   -0.8968 H       1  LIG1        0.0660
     47 C          -3.8624   10.5127   -0.0029 C.ar    1  LIG1        0.2186
     48 C          -3.2085   11.7247    0.0072 C.ar    1  LIG1        0.2111
     49 C          -4.2521   12.7397    0.0023 C.ar    1  LIG1        0.2004
     50 C          -5.4261   12.0763   -0.0103 C.ar    1  LIG1        0.1381
     51 O          -5.1988   10.7455   -0.0134 O.2     1  LIG1       -0.4521
     52 H          -6.4460   12.4129   -0.0177 H       1  LIG1        0.1069
     53 O          -1.9225   12.1294    0.0207 O.3     1  LIG1       -0.4883
     54 C          -0.8417   11.2043    0.0267 C.3     1  LIG1        0.0791
     55 H           0.0494   11.8285    0.0398 H       1  LIG1        0.0660
     56 H          -0.8766   10.5706    0.9104 H       1  LIG1        0.0660
     57 H          -0.8581   10.5806   -0.8646 H       1  LIG1        0.0660
     58 O          -4.1634   14.0898    0.0089 O.3     1  LIG1       -0.4888
     59 C          -2.8822   14.7103    0.0245 C.3     1  LIG1        0.0791
     60 H          -3.0890   15.7778    0.0267 H       1  LIG1        0.0660
     61 H          -2.3276   14.4293    0.9188 H       1  LIG1        0.0660
     62 H          -2.3094   14.4364   -0.8605 H       1  LIG1        0.0660
@<TRIPOS>BOND
     1    31    28    1
     2    41    38    1
     3    26    23    1
     4    46    43    1
     5    11     8    1
     6    16    13    1
     7    57    54    1
     8    62    59    1
     9    29    28    1
    10    28    27    1
    11    28    30    1
    12    24    23    1
    13    27    19    1
    14    52    50    1
    15    22    23    1
    16    22    18    1
    17    23    25    1
    18    39    38    1
    19    51    50   ar
    20    51    47   ar
    21    19    18   ar
    22    19    20   ar
    23    38    37    1
    24    38    40    1
    25    18    17   ar
    26    50    49   ar
    27    37    33    1
    28    20    32    1
    29    20    21   ar
    30    33    32   ar
    31    33    34   ar
    32    32    36   ar
    33    34    42    1
    34    34    35   ar
    35    42    43    1
    36    36    35   ar
    37    17    21   ar
    38    17     4    1
    39    43    44    1
    40    43    45    1
    41    35    47    1
    42    47    48   ar
    43     4     5   ar
    44     4     3   ar
    45     5     1   ar
    46    49    48   ar
    47    49    58    1
    48     3    12    1
    49     3     2   ar
    50    12    13    1
    51     1     6    1
    52     1     2   ar
    53    48    53    1
    54    58    59    1
    55     2     7    1
    56    14    13    1
    57    13    15    1
    58     7     8    1
    59     8     9    1
    60     8    10    1
    61    53    54    1
    62    59    60    1
    63    59    61    1
    64    54    55    1
    65    54    56    1
