@<TRIPOS>MOLECULE
mol_data/opt/m06hf/geoms/mol2/12ll12ll12ll-12ll-.out
 62 65 0 0 0
SMALL
GASTEIGER

@<TRIPOS>ATOM
      1 C           0.6479    1.6505    0.8814 C.ar    1  LIG1        0.1381
      2 C           1.5047    1.7772   -0.1660 C.ar    1  LIG1        0.2004
      3 C           1.6275    3.1938   -0.4080 C.ar    1  LIG1        0.2111
      4 C           0.8465    3.8073    0.5196 C.ar    1  LIG1        0.2186
      5 O           0.2588    2.8757    1.3047 O.2     1  LIG1       -0.4521
      6 H           0.2452    0.8068    1.4111 H       1  LIG1        0.1069
      7 O           2.1467    0.8462   -0.9066 O.3     1  LIG1       -0.4888
      8 C           1.8967   -0.4922   -0.5133 C.3     1  LIG1        0.0791
      9 H           2.4742   -1.1241   -1.1819 H       1  LIG1        0.0660
     10 H           2.2197   -0.6457    0.5197 H       1  LIG1        0.0660
     11 H           0.8317   -0.7196   -0.6077 H       1  LIG1        0.0660
     12 O           2.3918    3.7905   -1.3560 O.3     1  LIG1       -0.4883
     13 C           1.9839    3.4774   -2.6909 C.3     1  LIG1        0.0791
     14 H           2.6730    4.0015   -3.3478 H       1  LIG1        0.0660
     15 H           2.0456    2.4010   -2.8543 H       1  LIG1        0.0660
     16 H           0.9637    3.8300   -2.8524 H       1  LIG1        0.0660
     17 C           0.5485    5.2129    0.7645 C.ar    1  LIG1        0.2196
     18 C           1.2995    6.3356    0.9680 C.ar    1  LIG1        0.2119
     19 C           0.3616    7.4238    1.1055 C.ar    1  LIG1        0.2119
     20 C          -0.8748    6.8759    0.9660 C.ar    1  LIG1        0.2197
     21 O          -0.7756    5.5478    0.7688 O.2     1  LIG1       -0.4407
     22 O           2.6204    6.5535    1.0729 O.3     1  LIG1       -0.4883
     23 C           3.4666    5.4164    1.2181 C.3     1  LIG1        0.0791
     24 H           4.4442    5.8136    1.4781 H       1  LIG1        0.0660
     25 H           3.0946    4.7780    2.0226 H       1  LIG1        0.0660
     26 H           3.5165    4.8602    0.2814 H       1  LIG1        0.0660
     27 O           0.6724    8.7133    1.3666 O.3     1  LIG1       -0.4883
     28 C           1.2470    9.3920    0.2497 C.3     1  LIG1        0.0791
     29 H           1.4629   10.4020    0.5883 H       1  LIG1        0.0660
     30 H           2.1660    8.8907   -0.0580 H       1  LIG1        0.0660
     31 H           0.5310    9.4157   -0.5739 H       1  LIG1        0.0660
     32 C          -2.1987    7.4678    0.9669 C.ar    1  LIG1        0.2197
     33 C          -3.4349    6.9200    1.1094 C.ar    1  LIG1        0.2119
     34 C          -4.3730    8.0081    0.9722 C.ar    1  LIG1        0.2119
     35 C          -3.6223    9.1305    0.7657 C.ar    1  LIG1        0.2196
     36 O          -2.2983    8.7955    0.7679 O.2     1  LIG1       -0.4407
     37 O          -3.7450    5.6309    1.3729 O.3     1  LIG1       -0.4883
     38 C          -4.3218    4.9506    0.2580 C.3     1  LIG1        0.0791
     39 H          -4.5369    3.9410    0.5985 H       1  LIG1        0.0660
     40 H          -5.2415    5.4514   -0.0485 H       1  LIG1        0.0660
     41 H          -3.6074    4.9258   -0.5669 H       1  LIG1        0.0660
     42 O          -5.6937    7.7903    1.0798 O.3     1  LIG1       -0.4883
     43 C          -6.5395    8.9276    1.2254 C.3     1  LIG1        0.0791
     44 H          -7.5167    8.5309    1.4879 H       1  LIG1        0.0660
     45 H          -6.1658    9.5671    2.0284 H       1  LIG1        0.0660
     46 H          -6.5914    9.4827    0.2882 H       1  LIG1        0.0660
     47 C          -3.9210   10.5357    0.5191 C.ar    1  LIG1        0.2186
     48 C          -4.7039   11.1475   -0.4080 C.ar    1  LIG1        0.2111
     49 C          -4.5808   12.5645   -0.1685 C.ar    1  LIG1        0.2004
     50 C          -3.7221   12.6931    0.8770 C.ar    1  LIG1        0.1381
     51 O          -3.3319   11.4686    1.3016 O.2     1  LIG1       -0.4521
     52 H          -3.3184   13.5377    1.4045 H       1  LIG1        0.1069
     53 O          -5.4699   10.5491   -1.3535 O.3     1  LIG1       -0.4883
     54 C          -5.0646   10.8600   -2.6897 C.3     1  LIG1        0.0791
     55 H          -5.7550   10.3349   -3.3444 H       1  LIG1        0.0660
     56 H          -5.1265   11.9362   -2.8547 H       1  LIG1        0.0660
     57 H          -4.0447   10.5071   -2.8527 H       1  LIG1        0.0660
     58 O          -5.2245   13.4942   -0.9093 O.3     1  LIG1       -0.4888
     59 C          -4.9739   14.8332   -0.5187 C.3     1  LIG1        0.0791
     60 H          -5.5529   15.4640   -1.1871 H       1  LIG1        0.0660
     61 H          -5.2948   14.9883    0.5147 H       1  LIG1        0.0660
     62 H          -3.9091   15.0607   -0.6156 H       1  LIG1        0.0660
@<TRIPOS>BOND
     1    14    13    1
     2    55    54    1
     3    56    54    1
     4    15    13    1
     5    57    54    1
     6    16    13    1
     7    13    12    1
     8    54    53    1
     9    12     3    1
    10    53    48    1
    11    60    59    1
    12     9     8    1
    13    58    59    1
    14    58    49    1
    15     7     8    1
    16     7     2    1
    17    62    59    1
    18    11     8    1
    19    31    28    1
    20    41    38    1
    21    59    61    1
    22     8    10    1
    23     3     2   ar
    24     3     4   ar
    25    48    49   ar
    26    48    47   ar
    27    49    50   ar
    28     2     1   ar
    29    30    28    1
    30    40    38    1
    31    28    29    1
    32    28    27    1
    33    38    39    1
    34    38    37    1
    35    26    23    1
    36    46    43    1
    37    47    35    1
    38    47    51   ar
    39     4    17    1
    40     4     5   ar
    41    17    21   ar
    42    17    18   ar
    43    35    36   ar
    44    35    34   ar
    45    36    32   ar
    46    21    20   ar
    47    50    51   ar
    48    50    52    1
    49     1     5   ar
    50     1     6    1
    51    20    32    1
    52    20    19   ar
    53    32    33   ar
    54    18    22    1
    55    18    19   ar
    56    34    42    1
    57    34    33   ar
    58    22    23    1
    59    42    43    1
    60    19    27    1
    61    33    37    1
    62    23    24    1
    63    23    25    1
    64    43    44    1
    65    43    45    1
