@<TRIPOS>MOLECULE
mol_data/opt/m06hf/geoms/mol2/12ll12ll-12ll12ll-.out
 62 65 0 0 0
SMALL
GASTEIGER

@<TRIPOS>ATOM
      1 C          -0.2419    1.8543   -0.2336 C.ar    1  LIG1        0.1381
      2 C           1.0873    1.7635    0.0335 C.ar    1  LIG1        0.2004
      3 C           1.5431    3.1107    0.2753 C.ar    1  LIG1        0.2111
      4 C           0.4505    3.9043    0.1101 C.ar    1  LIG1        0.2186
      5 O          -0.6295    3.1562   -0.1901 O.2     1  LIG1       -0.4521
      6 H          -1.0058    1.1332   -0.4577 H       1  LIG1        0.1069
      7 O           1.9117    0.6974    0.0821 O.3     1  LIG1       -0.4888
      8 C           1.2790   -0.5470   -0.1576 C.3     1  LIG1        0.0791
      9 H           2.0533   -1.3056   -0.0862 H       1  LIG1        0.0660
     10 H           0.5066   -0.7270    0.5952 H       1  LIG1        0.0660
     11 H           0.8334   -0.5577   -1.1561 H       1  LIG1        0.0660
     12 O           2.8025    3.4786    0.6158 O.3     1  LIG1       -0.4883
     13 C           3.6754    3.6239   -0.5097 C.3     1  LIG1        0.0791
     14 H           4.6804    3.7139   -0.1049 H       1  LIG1        0.0660
     15 H           3.6092    2.7397   -1.1459 H       1  LIG1        0.0660
     16 H           3.4111    4.5257   -1.0631 H       1  LIG1        0.0660
     17 C           0.3082    5.3431    0.1687 C.ar    1  LIG1        0.2196
     18 C          -0.7661    6.1758    0.2460 C.ar    1  LIG1        0.2119
     19 C          -0.2383    7.5169    0.2172 C.ar    1  LIG1        0.2119
     20 C           1.1182    7.3831    0.1540 C.ar    1  LIG1        0.2197
     21 O           1.4497    6.0723    0.1244 O.2     1  LIG1       -0.4407
     22 O          -2.0698    5.8354    0.3568 O.3     1  LIG1       -0.4883
     23 C          -2.8251    6.1255   -0.8215 C.3     1  LIG1        0.0791
     24 H          -3.8522    5.8498   -0.5970 H       1  LIG1        0.0660
     25 H          -2.7592    7.1894   -1.0537 H       1  LIG1        0.0660
     26 H          -2.4469    5.5288   -1.6533 H       1  LIG1        0.0660
     27 O          -0.9956    8.6405    0.2526 O.3     1  LIG1       -0.4883
     28 C          -0.9910    9.3128    1.5221 C.3     1  LIG1        0.0791
     29 H          -1.8547    9.9733    1.5153 H       1  LIG1        0.0660
     30 H          -1.0893    8.5786    2.3232 H       1  LIG1        0.0660
     31 H          -0.0745    9.8938    1.6273 H       1  LIG1        0.0660
     32 C           2.1980    8.3406    0.1332 C.ar    1  LIG1        0.2197
     33 C           3.5567    8.2139    0.1472 C.ar    1  LIG1        0.2119
     34 C           4.0781    9.5579    0.1505 C.ar    1  LIG1        0.2119
     35 C           2.9974   10.3849    0.1094 C.ar    1  LIG1        0.2196
     36 O           1.8592    9.6498    0.1114 O.2     1  LIG1       -0.4407
     37 O           4.3227    7.0963    0.1583 O.3     1  LIG1       -0.4883
     38 C           4.3515    6.4101    1.4200 C.3     1  LIG1        0.0791
     39 H           5.2307    5.7706    1.3938 H       1  LIG1        0.0660
     40 H           4.4438    7.1371    2.2282 H       1  LIG1        0.0660
     41 H           3.4508    5.8059    1.5315 H       1  LIG1        0.0660
     42 O           5.3831    9.9057    0.2109 O.3     1  LIG1       -0.4883
     43 C           6.0967    9.6104   -0.9917 C.3     1  LIG1        0.0791
     44 H           7.1296    9.8935   -0.8068 H       1  LIG1        0.0660
     45 H           6.0286    8.5444   -1.2130 H       1  LIG1        0.0660
     46 H           5.6852   10.1984   -1.8139 H       1  LIG1        0.0660
     47 C           2.8437   11.8223    0.0476 C.ar    1  LIG1        0.2186
     48 C           1.7533   12.6097    0.2531 C.ar    1  LIG1        0.2111
     49 C           2.1890   13.9579   -0.0185 C.ar    1  LIG1        0.2004
     50 C           3.5064   13.8741   -0.3410 C.ar    1  LIG1        0.1381
     51 O           3.9046   12.5751   -0.3043 O.2     1  LIG1       -0.4521
     52 H           4.2550   14.5984   -0.6027 H       1  LIG1        0.1069
     53 O           0.5127   12.2396    0.6535 O.3     1  LIG1       -0.4883
     54 C          -0.4082   12.0550   -0.4278 C.3     1  LIG1        0.0791
     55 H          -1.3985   12.0214    0.0196 H       1  LIG1        0.0660
     56 H          -0.3420   12.8970   -1.1185 H       1  LIG1        0.0660
     57 H          -0.1932   11.1131   -0.9341 H       1  LIG1        0.0660
     58 O           1.3600   15.0188    0.0571 O.3     1  LIG1       -0.4888
     59 C           1.9749   16.2657   -0.2132 C.3     1  LIG1        0.0791
     60 H           1.1997   17.0201   -0.1135 H       1  LIG1        0.0660
     61 H           2.7764   16.4534    0.5066 H       1  LIG1        0.0660
     62 H           2.3795   16.2749   -1.2291 H       1  LIG1        0.0660
@<TRIPOS>BOND
     1    46    43    1
     2    26    23    1
     3    62    59    1
     4    45    43    1
     5    11     8    1
     6    15    13    1
     7    56    54    1
     8    16    13    1
     9    25    23    1
    10    43    44    1
    11    43    42    1
    12    57    54    1
    13    23    24    1
    14    23    22    1
    15    52    50    1
    16    13    14    1
    17    13    12    1
    18     6     1    1
    19    54    55    1
    20    54    53    1
    21    50    51   ar
    22    50    49   ar
    23    51    47   ar
    24     1     5   ar
    25     1     2   ar
    26    59    60    1
    27    59    58    1
    28    59    61    1
    29     5     4   ar
    30     8     9    1
    31     8     7    1
    32     8    10    1
    33    49    58    1
    34    49    48   ar
    35     2     7    1
    36     2     3   ar
    37    47    35    1
    38    47    48   ar
    39    35    36   ar
    40    35    34   ar
    41     4    17    1
    42     4     3   ar
    43    36    32   ar
    44    21    20   ar
    45    21    17   ar
    46    32    33   ar
    47    32    20    1
    48    33    34   ar
    49    33    37    1
    50    34    42    1
    51    20    19   ar
    52    37    38    1
    53    17    18   ar
    54    19    18   ar
    55    19    27    1
    56    18    22    1
    57    27    28    1
    58    48    53    1
    59     3    12    1
    60    39    38    1
    61    38    41    1
    62    38    40    1
    63    29    28    1
    64    28    31    1
    65    28    30    1
