@<TRIPOS>MOLECULE
mol_data/opt/m06hf/geoms/mol2/1312-55.out
 31 34 0 0 0
SMALL
GASTEIGER

@<TRIPOS>ATOM
      1 C           1.3300   -0.3907   -0.0006 C.ar    1  LIG1        0.0023
      2 C           0.9605    0.9337   -0.0008 C.ar    1  LIG1       -0.0437
      3 C          -0.4597    0.9747   -0.0003 C.ar    1  LIG1       -0.0334
      4 C          -0.9032   -0.3300   -0.0000 C.ar    1  LIG1        0.0821
      5 N           0.1941   -1.1452   -0.0002 N.ar    1  LIG1       -0.3583
      6 H           0.1670   -2.1517   -0.0002 H       1  LIG1        0.1654
      7 H           2.3025   -0.8518   -0.0008 H       1  LIG1        0.0807
      8 H           1.6308    1.7760   -0.0011 H       1  LIG1        0.0633
      9 H          -1.0943    1.8442   -0.0001 H       1  LIG1        0.0640
     10 C          -2.2606   -0.8541    0.0005 C.ar    1  LIG1        0.1518
     11 C          -2.7895   -2.1096    0.0013 C.ar    1  LIG1       -0.0138
     12 C          -4.2137   -1.9414    0.0014 C.ar    1  LIG1       -0.0147
     13 C          -4.4345   -0.5990    0.0007 C.ar    1  LIG1        0.1423
     14 O          -3.2528    0.0613    0.0001 O.2     1  LIG1       -0.4528
     15 H          -2.2500   -3.0416    0.0018 H       1  LIG1        0.0656
     16 H          -4.9635   -2.7150    0.0020 H       1  LIG1        0.0656
     17 C          -5.6334    0.2262    0.0005 C.ar    1  LIG1        0.0550
     18 C          -5.6925    1.5900   -0.0001 C.ar    1  LIG1       -0.0434
     19 C          -7.0334    2.0797   -0.0003 C.ar    1  LIG1       -0.0457
     20 C          -7.9691    1.0843    0.0002 C.ar    1  LIG1        0.0266
     21 S          -7.2116   -0.4782    0.0009 S.2     1  LIG1       -0.0847
     22 H          -4.8102    2.2120   -0.0004 H       1  LIG1        0.0630
     23 H          -7.2856    3.1293   -0.0010 H       1  LIG1        0.0629
     24 C          -9.4285    1.2344    0.0001 C.ar    1  LIG1        0.0259
     25 C         -10.1375    2.4037    0.0015 C.ar    1  LIG1       -0.0464
     26 C         -11.5532    2.1964    0.0007 C.ar    1  LIG1       -0.0541
     27 C         -11.8853    0.8778   -0.0012 C.ar    1  LIG1       -0.0237
     28 S         -10.4932   -0.1305   -0.0019 S.2     1  LIG1       -0.0961
     29 H         -12.8692    0.4380   -0.0022 H       1  LIG1        0.0693
     30 H          -9.6732    3.3787    0.0032 H       1  LIG1        0.0629
     31 H         -12.2786    2.9957    0.0016 H       1  LIG1        0.0623
@<TRIPOS>BOND
     1    29    27    1
     2    28    27   ar
     3    28    24   ar
     4    27    26   ar
     5     8     2    1
     6    23    19    1
     7     7     1    1
     8     2     1   ar
     9     2     3   ar
    10     1     5   ar
    11    22    18    1
    12    19    18   ar
    13    19    20   ar
    14     3     9    1
    15     3     4   ar
    16     5     6    1
    17     5     4   ar
    18    18    17   ar
    19     4    10    1
    20    14    10   ar
    21    14    13   ar
    22    24    20    1
    23    24    25   ar
    24    20    21   ar
    25    10    11   ar
    26    17    13    1
    27    17    21   ar
    28    13    12   ar
    29    26    25   ar
    30    26    31    1
    31    11    12   ar
    32    11    15    1
    33    12    16    1
    34    25    30    1
