@<TRIPOS>MOLECULE
mol_data/opt/m06hf/geoms/mol2/131288-.out
 29 32 0 0 0
SMALL
GASTEIGER

@<TRIPOS>ATOM
      1 C           1.1960   -0.0941   -0.0002 C.ar    1  LIG1        0.0023
      2 C           0.7427    1.2074    0.0003 C.ar    1  LIG1       -0.0437
      3 C          -0.6741    1.1595    0.0001 C.ar    1  LIG1       -0.0334
      4 C          -1.0310   -0.1738    0.0001 C.ar    1  LIG1        0.0821
      5 N           0.1150   -0.9172   -0.0001 N.ar    1  LIG1       -0.3583
      6 H           0.1278   -1.9262   -0.0002 H       1  LIG1        0.1654
      7 H           2.1974   -0.4882   -0.0004 H       1  LIG1        0.0807
      8 H           1.3594    2.0896    0.0005 H       1  LIG1        0.0633
      9 H          -1.3558    1.9931    0.0002 H       1  LIG1        0.0640
     10 C          -2.3290   -0.8234    0.0001 C.ar    1  LIG1        0.1519
     11 C          -3.6185   -0.3656    0.0002 C.ar    1  LIG1       -0.0137
     12 C          -4.4466   -1.5266    0.0003 C.ar    1  LIG1       -0.0120
     13 C          -3.5976   -2.5936    0.0002 C.ar    1  LIG1        0.1760
     14 O          -2.3140   -2.1703    0.0001 O.2     1  LIG1       -0.4501
     15 H          -3.9291    0.6643    0.0003 H       1  LIG1        0.0656
     16 H          -5.5218   -1.5817    0.0004 H       1  LIG1        0.0657
     17 C          -3.8531   -4.0227    0.0001 C.ar    1  LIG1        0.2381
     18 N          -5.1388   -4.4043    0.0003 N.ar    1  LIG1       -0.1219
     19 C          -4.3555   -6.5114    0.0003 C.ar    1  LIG1        0.2435
     20 N          -2.8169   -4.8676    0.0001 N.ar    1  LIG1       -0.1219
     21 N          -5.3928   -5.6713    0.0004 N.ar    1  LIG1       -0.1217
     22 N          -3.0796   -6.1393    0.0002 N.ar    1  LIG1       -0.1217
     23 C          -4.6538   -7.9755    0.0004 C.ar    1  LIG1        0.2434
     24 N          -3.6179   -8.8124    0.0011 N.ar    1  LIG1       -0.1224
     25 C          -5.1569  -10.4541    0.0009 C.ar    1  LIG1        0.1605
     26 N          -5.9335   -8.3422    0.0001 N.ar    1  LIG1       -0.1224
     27 N          -3.8786  -10.0865    0.0013 N.ar    1  LIG1       -0.1338
     28 N          -6.1912   -9.6172    0.0003 N.ar    1  LIG1       -0.1338
     29 H          -5.3712  -11.5127    0.0011 H       1  LIG1        0.1085
@<TRIPOS>BOND
     1     7     1    1
     2     1     5   ar
     3     1     2   ar
     4     6     5    1
     5     5     4   ar
     6    26    28   ar
     7    26    23   ar
     8    14    10   ar
     9    14    13   ar
    10     4     3   ar
    11     4    10    1
    12    20    17   ar
    13    20    22   ar
    14     3     9    1
    15     3     2   ar
    16    17    13    1
    17    17    18   ar
    18    10    11   ar
    19    13    12   ar
    20    22    19   ar
    21    11    12   ar
    22    11    15    1
    23    18    21   ar
    24    12    16    1
    25     2     8    1
    26    28    25   ar
    27    19    21   ar
    28    19    23    1
    29    23    24   ar
    30    25    29    1
    31    25    27   ar
    32    24    27   ar
