@<TRIPOS>MOLECULE
mol_data/opt/m06hf/geoms/mol2/131212-.out
 24 26 0 0 0
SMALL
GASTEIGER

@<TRIPOS>ATOM
      1 C           1.1936   -0.2271    0.0000 C.ar    1  LIG1        0.0023
      2 C           0.7829    1.0862    0.0000 C.ar    1  LIG1       -0.0437
      3 C          -0.6372    1.0848    0.0001 C.ar    1  LIG1       -0.0334
      4 C          -1.0393   -0.2343    0.0001 C.ar    1  LIG1        0.0821
      5 N           0.0817   -1.0141    0.0001 N.ar    1  LIG1       -0.3583
      6 H           0.0600   -2.0217    0.0001 H       1  LIG1        0.1654
      7 H           2.1808   -0.6555   -0.0000 H       1  LIG1        0.0807
      8 H           1.4273    1.9487    0.0000 H       1  LIG1        0.0633
      9 H          -1.2911    1.9407    0.0001 H       1  LIG1        0.0640
     10 C          -2.3640   -0.8377    0.0001 C.ar    1  LIG1        0.1519
     11 C          -3.6278   -0.3351    0.0002 C.ar    1  LIG1       -0.0137
     12 C          -4.5082   -1.4691    0.0002 C.ar    1  LIG1       -0.0121
     13 C          -3.7067   -2.5648    0.0002 C.ar    1  LIG1        0.1706
     14 O          -2.4044   -2.1938    0.0002 O.2     1  LIG1       -0.4503
     15 H          -3.8994    0.7064    0.0002 H       1  LIG1        0.0656
     16 H          -5.5843   -1.4754    0.0003 H       1  LIG1        0.0657
     17 C          -3.9889   -3.9890    0.0003 C.ar    1  LIG1        0.1697
     18 C          -3.1913   -5.0891    0.0003 C.ar    1  LIG1       -0.0128
     19 C          -4.0851   -6.2161    0.0004 C.ar    1  LIG1       -0.0232
     20 C          -5.3367   -5.6988    0.0004 C.ar    1  LIG1        0.0927
     21 O          -5.2889   -4.3488    0.0003 O.2     1  LIG1       -0.4598
     22 H          -6.3177   -6.1386    0.0004 H       1  LIG1        0.1029
     23 H          -2.1156   -5.0934    0.0003 H       1  LIG1        0.0656
     24 H          -3.8213   -7.2597    0.0004 H       1  LIG1        0.0649
@<TRIPOS>BOND
     1     7     1    1
     2     8     2    1
     3     1     2   ar
     4     1     5   ar
     5     2     3   ar
     6     6     5    1
     7     5     4   ar
     8     3     4   ar
     9     3     9    1
    10     4    10    1
    11    10    14   ar
    12    10    11   ar
    13    15    11    1
    14    14    13   ar
    15    11    12   ar
    16    13    12   ar
    17    13    17    1
    18    12    16    1
    19    17    18   ar
    20    17    21   ar
    21    23    18    1
    22    18    19   ar
    23    21    20   ar
    24    20    19   ar
    25    20    22    1
    26    19    24    1
