@<TRIPOS>MOLECULE
mol_data/opt/m06hf/geoms/mol2/1312-12-.out
 24 26 0 0 0
SMALL
GASTEIGER

@<TRIPOS>ATOM
      1 C           1.2424   -0.3722   -0.0002 C.ar    1  LIG1        0.0023
      2 C           0.8756    0.9529    0.0002 C.ar    1  LIG1       -0.0437
      3 C          -0.5448    0.9976    0.0003 C.ar    1  LIG1       -0.0334
      4 C          -0.9906   -0.3061    0.0001 C.ar    1  LIG1        0.0821
      5 N           0.1046   -1.1244   -0.0002 N.ar    1  LIG1       -0.3583
      6 H           0.0752   -2.1307   -0.0005 H       1  LIG1        0.1654
      7 H           2.2139   -0.8354   -0.0004 H       1  LIG1        0.0807
      8 H           1.5479    1.7936    0.0002 H       1  LIG1        0.0633
      9 H          -1.1798    1.8669    0.0006 H       1  LIG1        0.0640
     10 C          -2.3495   -0.8267    0.0002 C.ar    1  LIG1        0.1519
     11 C          -2.8811   -2.0817    0.0003 C.ar    1  LIG1       -0.0137
     12 C          -4.3046   -1.9102    0.0004 C.ar    1  LIG1       -0.0121
     13 C          -4.5176   -0.5670    0.0003 C.ar    1  LIG1        0.1706
     14 O          -3.3385    0.0906    0.0002 O.2     1  LIG1       -0.4503
     15 H          -2.3436   -3.0147    0.0004 H       1  LIG1        0.0656
     16 H          -5.0580   -2.6793    0.0005 H       1  LIG1        0.0657
     17 C          -5.7331    0.2363    0.0004 C.ar    1  LIG1        0.1697
     18 C          -7.0523   -0.0995    0.0003 C.ar    1  LIG1       -0.0128
     19 C          -7.7704    1.1447    0.0004 C.ar    1  LIG1       -0.0232
     20 C          -6.8273    2.1175    0.0005 C.ar    1  LIG1        0.0927
     21 O          -5.5925    1.5765    0.0005 O.2     1  LIG1       -0.4598
     22 H          -6.8758    3.1917    0.0006 H       1  LIG1        0.1029
     23 H          -7.4599   -1.0961    0.0002 H       1  LIG1        0.0656
     24 H          -8.8376    1.2840    0.0004 H       1  LIG1        0.0649
@<TRIPOS>BOND
     1     6     5    1
     2     7     1    1
     3     5     1   ar
     4     5     4   ar
     5     1     2   ar
     6     4    10    1
     7     4     3   ar
     8     2     8    1
     9     2     3   ar
    10    23    18    1
    11    10    14   ar
    12    10    11   ar
    13    14    13   ar
    14    11    15    1
    15    11    12   ar
    16    18    17   ar
    17    18    19   ar
    18    13    17    1
    19    13    12   ar
    20     3     9    1
    21    17    21   ar
    22    12    16    1
    23    24    19    1
    24    19    20   ar
    25    21    20   ar
    26    20    22    1
