@<TRIPOS>MOLECULE
mol_data/opt/m06hf/geoms/mol2/1312-8.out
 23 25 0 0 0
SMALL
GASTEIGER

@<TRIPOS>ATOM
      1 C           1.2341   -0.3700   -0.0000 C.ar    1  LIG1        0.0023
      2 C           0.8705    0.9573    0.0001 C.ar    1  LIG1       -0.0437
      3 C          -0.5481    1.0053    0.0003 C.ar    1  LIG1       -0.0334
      4 C          -0.9963   -0.2983    0.0001 C.ar    1  LIG1        0.0821
      5 N           0.0970   -1.1200   -0.0001 N.ar    1  LIG1       -0.3583
      6 H           0.0674   -2.1265   -0.0003 H       1  LIG1        0.1654
      7 H           2.2049   -0.8348   -0.0002 H       1  LIG1        0.0807
      8 H           1.5447    1.7964    0.0001 H       1  LIG1        0.0633
      9 H          -1.1816    1.8760    0.0005 H       1  LIG1        0.0640
     10 C          -2.3559   -0.8115    0.0002 C.ar    1  LIG1        0.1519
     11 C          -2.8914   -2.0708    0.0002 C.ar    1  LIG1       -0.0137
     12 C          -4.3088   -1.8957    0.0003 C.ar    1  LIG1       -0.0120
     13 C          -4.5141   -0.5505    0.0003 C.ar    1  LIG1        0.1760
     14 O          -3.3366    0.1066    0.0002 O.2     1  LIG1       -0.4501
     15 H          -2.3548   -3.0042    0.0002 H       1  LIG1        0.0656
     16 H          -5.0776   -2.6494    0.0003 H       1  LIG1        0.0657
     17 C          -5.7448    0.2326    0.0003 C.ar    1  LIG1        0.2381
     18 N          -5.6658    1.5649    0.0004 N.ar    1  LIG1       -0.1226
     19 C          -7.9191    1.5383    0.0004 C.ar    1  LIG1        0.1605
     20 N          -6.8902   -0.4611    0.0004 N.ar    1  LIG1       -0.1226
     21 N          -6.7845    2.2296    0.0004 N.ar    1  LIG1       -0.1338
     22 N          -7.9997    0.2074    0.0004 N.ar    1  LIG1       -0.1338
     23 H          -8.8442    2.0945    0.0006 H       1  LIG1        0.1085
@<TRIPOS>BOND
     1     6     5    1
     2     7     1    1
     3     5     1   ar
     4     5     4   ar
     5     1     2   ar
     6     2     8    1
     7     2     3   ar
     8     4    10    1
     9     4     3   ar
    10    10    11   ar
    11    10    14   ar
    12    15    11    1
    13    11    12   ar
    14    14    13   ar
    15    12    13   ar
    16    12    16    1
    17    13    17    1
    18     3     9    1
    19    17    18   ar
    20    17    20   ar
    21    18    21   ar
    22    20    22   ar
    23    21    19   ar
    24    19    22   ar
    25    19    23    1
