@<TRIPOS>MOLECULE
mol_data/opt/m06hf/geoms/mol2/13124-.out
 27 29 0 0 0
SMALL
GASTEIGER

@<TRIPOS>ATOM
      1 C           1.2058   -0.1998    0.0000 C.ar    1  LIG1        0.0023
      2 C           0.8027    1.1158    0.0001 C.ar    1  LIG1       -0.0437
      3 C          -0.6184    1.1219    0.0006 C.ar    1  LIG1       -0.0334
      4 C          -1.0274   -0.1951    0.0002 C.ar    1  LIG1        0.0821
      5 N           0.0896   -0.9802   -0.0002 N.ar    1  LIG1       -0.3583
      6 H           0.0617   -1.9878   -0.0006 H       1  LIG1        0.1654
      7 H           2.1902   -0.6347   -0.0001 H       1  LIG1        0.0807
      8 H           1.4519    1.9747    0.0001 H       1  LIG1        0.0633
      9 H          -1.2671    1.9821    0.0011 H       1  LIG1        0.0640
     10 C          -2.3534   -0.7967    0.0001 C.ar    1  LIG1        0.1517
     11 C          -3.6161   -0.2939    0.0005 C.ar    1  LIG1       -0.0138
     12 C          -4.4930   -1.4293    0.0002 C.ar    1  LIG1       -0.0152
     13 C          -3.6997   -2.5348   -0.0003 C.ar    1  LIG1        0.1358
     14 O          -2.3971   -2.1497   -0.0003 O.2     1  LIG1       -0.4534
     15 H          -3.8879    0.7474    0.0009 H       1  LIG1        0.0656
     16 H          -5.5695   -1.4112    0.0003 H       1  LIG1        0.0656
     17 C          -2.9157   -4.8946   -0.0011 C.ar    1  LIG1       -0.0511
     18 C          -3.1738   -6.2610   -0.0015 C.ar    1  LIG1       -0.0611
     19 C          -3.9717   -3.9797   -0.0007 C.ar    1  LIG1        0.0173
     20 C          -4.4850   -6.7286   -0.0015 C.ar    1  LIG1       -0.0617
     21 H          -2.3484   -6.9612   -0.0018 H       1  LIG1        0.0618
     22 C          -5.2880   -4.4525   -0.0007 C.ar    1  LIG1       -0.0511
     23 C          -5.5404   -5.8182   -0.0011 C.ar    1  LIG1       -0.0611
     24 H          -6.1131   -3.7521   -0.0004 H       1  LIG1        0.0625
     25 H          -4.6841   -7.7918   -0.0018 H       1  LIG1        0.0618
     26 H          -1.8977   -4.5297   -0.0011 H       1  LIG1        0.0625
     27 H          -6.5627   -6.1735   -0.0011 H       1  LIG1        0.0618
@<TRIPOS>BOND
     1    25    20    1
     2    21    18    1
     3    20    18   ar
     4    20    23   ar
     5    18    17   ar
     6    27    23    1
     7    23    22   ar
     8    17    26    1
     9    17    19   ar
    10    22    19   ar
    11    22    24    1
    12    19    13    1
    13     6     5    1
    14    14    13   ar
    15    14    10   ar
    16    13    12   ar
    17     5     1   ar
    18     5     4   ar
    19     7     1    1
    20     1     2   ar
    21     2     8    1
    22     2     3   ar
    23    10     4    1
    24    10    11   ar
    25    12    16    1
    26    12    11   ar
    27     4     3   ar
    28    11    15    1
    29     3     9    1
