@<TRIPOS>MOLECULE
mol_data/opt/m06hf/geoms/mol2/1312-813-.out
 31 34 0 0 0
SMALL
GASTEIGER

@<TRIPOS>ATOM
      1 C           1.2953   -0.4579   -0.0001 C.ar    1  LIG1        0.0023
      2 C           0.9634    0.8770    0.0001 C.ar    1  LIG1       -0.0437
      3 C          -0.4547    0.9583    0.0004 C.ar    1  LIG1       -0.0334
      4 C          -0.9333   -0.3345    0.0002 C.ar    1  LIG1        0.0821
      5 N           0.1404   -1.1812   -0.0001 N.ar    1  LIG1       -0.3583
      6 H           0.0869   -2.1866   -0.0004 H       1  LIG1        0.1654
      7 H           2.2546   -0.9455   -0.0003 H       1  LIG1        0.0807
      8 H           1.6586    1.6987    0.0001 H       1  LIG1        0.0633
      9 H          -1.0684    1.8435    0.0007 H       1  LIG1        0.0640
     10 C          -2.3041   -0.8181    0.0003 C.ar    1  LIG1        0.1519
     11 C          -2.8667   -2.0649    0.0003 C.ar    1  LIG1       -0.0137
     12 C          -4.2811   -1.8594    0.0004 C.ar    1  LIG1       -0.0120
     13 C          -4.4575   -0.5097    0.0003 C.ar    1  LIG1        0.1760
     14 O          -3.2660    0.1220    0.0003 O.2     1  LIG1       -0.4501
     15 H          -2.3509   -3.0098    0.0004 H       1  LIG1        0.0656
     16 H          -5.0658   -2.5959    0.0005 H       1  LIG1        0.0657
     17 C          -5.6743    0.2953    0.0003 C.ar    1  LIG1        0.2381
     18 N          -5.5818    1.6244    0.0002 N.ar    1  LIG1       -0.1220
     19 C          -7.8470    1.6342    0.0003 C.ar    1  LIG1        0.2194
     20 N          -6.8345   -0.3792    0.0004 N.ar    1  LIG1       -0.1220
     21 N          -6.6910    2.3006    0.0002 N.ar    1  LIG1       -0.1236
     22 N          -7.9345    0.2933    0.0004 N.ar    1  LIG1       -0.1236
     23 C          -9.0731    2.4144    0.0003 C.ar    1  LIG1        0.0875
     24 C         -10.3998    2.0321    0.0004 C.ar    1  LIG1       -0.0333
     25 C         -11.1662    3.2227    0.0002 C.ar    1  LIG1       -0.0437
     26 C         -10.2783    4.2815    0.0003 C.ar    1  LIG1        0.0023
     27 N          -9.0200    3.7787    0.0002 N.ar    1  LIG1       -0.3582
     28 H          -8.1516    4.2942    0.0001 H       1  LIG1        0.1654
     29 H         -10.4541    5.3431    0.0003 H       1  LIG1        0.0807
     30 H         -10.7516    1.0144    0.0005 H       1  LIG1        0.0640
     31 H         -12.2401    3.3011    0.0001 H       1  LIG1        0.0633
@<TRIPOS>BOND
     1     6     5    1
     2     7     1    1
     3     5     1   ar
     4     5     4   ar
     5     1     2   ar
     6    31    25    1
     7     2     8    1
     8     2     3   ar
     9    28    27    1
    10    25    26   ar
    11    25    24   ar
    12     4    10    1
    13     4     3   ar
    14    27    23   ar
    15    27    26   ar
    16    21    18   ar
    17    21    19   ar
    18    18    17   ar
    19    10    14   ar
    20    10    11   ar
    21    14    13   ar
    22    29    26    1
    23    23    19    1
    24    23    24   ar
    25    19    22   ar
    26    11    15    1
    27    11    12   ar
    28    13    17    1
    29    13    12   ar
    30    17    20   ar
    31    12    16    1
    32     3     9    1
    33    22    20   ar
    34    24    30    1
