@<TRIPOS>MOLECULE
mol_data/opt/m06hf/geoms/mol2/1312-.out
 17 18 0 0 0
SMALL
GASTEIGER

@<TRIPOS>ATOM
      1 C           1.1687   -0.2999    0.0001 C.ar    1  LIG1        0.0023
      2 C           0.7701    1.0156   -0.0000 C.ar    1  LIG1       -0.0437
      3 C          -0.6520    1.0254    0.0005 C.ar    1  LIG1       -0.0334
      4 C          -1.0661   -0.2882    0.0001 C.ar    1  LIG1        0.0821
      5 N           0.0489   -1.0792   -0.0001 N.ar    1  LIG1       -0.3583
      6 H           0.0399   -2.0856   -0.0004 H       1  LIG1        0.1654
      7 H           2.1511   -0.7389   -0.0000 H       1  LIG1        0.0807
      8 H           1.4230    1.8719   -0.0002 H       1  LIG1        0.0633
      9 H          -1.3073    1.8795    0.0008 H       1  LIG1        0.0640
     10 C          -2.4118   -0.8481    0.0002 C.ar    1  LIG1        0.1508
     11 C          -2.9048   -2.1170    0.0003 C.ar    1  LIG1       -0.0144
     12 C          -4.3376   -1.9844    0.0002 C.ar    1  LIG1       -0.0233
     13 C          -4.5862   -0.6541    0.0001 C.ar    1  LIG1        0.0926
     14 O          -3.4275    0.0397    0.0001 O.2     1  LIG1       -0.4615
     15 H          -5.4904   -0.0723    0.0000 H       1  LIG1        0.1029
     16 H          -2.3394   -3.0338    0.0004 H       1  LIG1        0.0656
     17 H          -5.0681   -2.7744    0.0003 H       1  LIG1        0.0649
@<TRIPOS>BOND
     1     6     5    1
     2     8     2    1
     3     5     1   ar
     4     5     4   ar
     5     2     1   ar
     6     2     3   ar
     7     7     1    1
     8    15    13    1
     9    14    13   ar
    10    14    10   ar
    11    13    12   ar
    12     4    10    1
    13     4     3   ar
    14    10    11   ar
    15    12    11   ar
    16    12    17    1
    17    11    16    1
    18     3     9    1
