@<TRIPOS>MOLECULE
mol_data/opt/m06hf/geoms/mol2/13121313-.out
 33 36 0 0 0
SMALL
GASTEIGER

@<TRIPOS>ATOM
      1 C           1.1503   -0.0397   -0.3049 C.ar    1  LIG1        0.0023
      2 C           0.7677    1.1755    0.2143 C.ar    1  LIG1       -0.0437
      3 C          -0.6306    1.1084    0.4593 C.ar    1  LIG1       -0.0334
      4 C          -1.0484   -0.1476    0.0745 C.ar    1  LIG1        0.0821
      5 N           0.0429   -0.8293   -0.3846 N.ar    1  LIG1       -0.3583
      6 H           0.0055   -1.7711   -0.7402 H       1  LIG1        0.1654
      7 H           2.1143   -0.3988   -0.6196 H       1  LIG1        0.0807
      8 H           1.4174    2.0128    0.4041 H       1  LIG1        0.0633
      9 H          -1.2591    1.8759    0.8785 H       1  LIG1        0.0640
     10 C          -2.3652   -0.7688    0.0820 C.ar    1  LIG1        0.1518
     11 C          -3.6294   -0.2885    0.2083 C.ar    1  LIG1       -0.0137
     12 C          -4.5017   -1.4283    0.1398 C.ar    1  LIG1       -0.0137
     13 C          -3.7001   -2.5096   -0.0414 C.ar    1  LIG1        0.1518
     14 O          -2.3987   -2.1188   -0.0736 O.2     1  LIG1       -0.4519
     15 H          -3.9057    0.7446    0.3288 H       1  LIG1        0.0656
     16 H          -5.5744   -1.4415    0.2247 H       1  LIG1        0.0656
     17 C          -3.9561   -3.9340   -0.1956 C.ar    1  LIG1        0.0826
     18 C          -5.1071   -4.6197   -0.5255 C.ar    1  LIG1       -0.0328
     19 C          -4.7866   -6.0017   -0.5155 C.ar    1  LIG1       -0.0343
     20 C          -3.4509   -6.1133   -0.1799 C.ar    1  LIG1        0.0634
     21 N          -2.9675   -4.8528    0.0101 N.ar    1  LIG1       -0.3506
     22 H          -2.0357   -4.6361    0.3288 H       1  LIG1        0.1660
     23 H          -6.0539   -4.1696   -0.7728 H       1  LIG1        0.0640
     24 H          -5.4367   -6.8212   -0.7727 H       1  LIG1        0.0639
     25 C          -2.5885   -7.2844   -0.0218 C.ar    1  LIG1        0.0629
     26 C          -1.2677   -7.4919   -0.3586 C.ar    1  LIG1       -0.0350
     27 C          -0.9359   -8.8186    0.0343 C.ar    1  LIG1       -0.0438
     28 C          -2.0641   -9.3718    0.5910 C.ar    1  LIG1        0.0022
     29 N          -3.0536   -8.4339    0.5513 N.ar    1  LIG1       -0.3595
     30 H          -3.9781   -8.5289    0.9397 H       1  LIG1        0.1654
     31 H          -2.2362  -10.3473    1.0109 H       1  LIG1        0.0807
     32 H          -0.6334   -6.7825   -0.8643 H       1  LIG1        0.0639
     33 H           0.0131   -9.3118   -0.0887 H       1  LIG1        0.0633
@<TRIPOS>BOND
     1    32    26    1
     2    23    18    1
     3    24    19    1
     4     6     5    1
     5     7     1    1
     6    18    19   ar
     7    18    17   ar
     8    19    20   ar
     9     5     1   ar
    10     5     4   ar
    11    26    25   ar
    12    26    27   ar
    13     1     2   ar
    14    17    13    1
    15    17    21   ar
    16    20    25    1
    17    20    21   ar
    18    33    27    1
    19    14    13   ar
    20    14    10   ar
    21    13    12   ar
    22    25    29   ar
    23    21    22    1
    24    27    28   ar
    25     4    10    1
    26     4     3   ar
    27    10    11   ar
    28    12    11   ar
    29    12    16    1
    30    11    15    1
    31     2     8    1
    32     2     3   ar
    33     3     9    1
    34    29    28   ar
    35    29    30    1
    36    28    31    1
