@<TRIPOS>MOLECULE
mol_data/opt/m06hf/geoms/mol2/13124.out
 27 29 0 0 0
SMALL
GASTEIGER

@<TRIPOS>ATOM
      1 C           1.2024   -0.1707   -0.0006 C.ar    1  LIG1        0.0023
      2 C           0.7883    1.1415   -0.0002 C.ar    1  LIG1       -0.0437
      3 C          -0.6328    1.1357   -0.0003 C.ar    1  LIG1       -0.0334
      4 C          -1.0307   -0.1847   -0.0000 C.ar    1  LIG1        0.0821
      5 N           0.0927   -0.9604   -0.0001 N.ar    1  LIG1       -0.3583
      6 H           0.0733   -1.9682   -0.0001 H       1  LIG1        0.1654
      7 H           2.1904   -0.5974   -0.0008 H       1  LIG1        0.0807
      8 H           1.4303    2.0058   -0.0002 H       1  LIG1        0.0633
      9 H          -1.2887    1.9904   -0.0002 H       1  LIG1        0.0640
     10 C          -2.3517   -0.7973    0.0003 C.ar    1  LIG1        0.1517
     11 C          -3.6186   -0.3051    0.0002 C.ar    1  LIG1       -0.0138
     12 C          -4.4859   -1.4478    0.0007 C.ar    1  LIG1       -0.0152
     13 C          -3.6834   -2.5466    0.0009 C.ar    1  LIG1        0.1358
     14 O          -2.3841   -2.1507    0.0007 O.2     1  LIG1       -0.4534
     15 H          -3.8990    0.7339   -0.0001 H       1  LIG1        0.0656
     16 H          -5.5626   -1.4387    0.0008 H       1  LIG1        0.0656
     17 C          -5.2556   -4.4776    0.0014 C.ar    1  LIG1       -0.0511
     18 C          -5.4966   -5.8453    0.0018 C.ar    1  LIG1       -0.0611
     19 C          -3.9433   -3.9937    0.0013 C.ar    1  LIG1        0.0173
     20 C          -4.4335   -6.7469    0.0021 C.ar    1  LIG1       -0.0617
     21 H          -6.5158   -6.2092    0.0018 H       1  LIG1        0.0618
     22 C          -2.8797   -4.8998    0.0017 C.ar    1  LIG1       -0.0511
     23 C          -3.1263   -6.2683    0.0021 C.ar    1  LIG1       -0.0611
     24 H          -1.8648   -4.5263    0.0016 H       1  LIG1        0.0625
     25 H          -4.6238   -7.8117    0.0025 H       1  LIG1        0.0618
     26 H          -6.0865   -3.7841    0.0011 H       1  LIG1        0.0625
     27 H          -2.2951   -6.9615    0.0024 H       1  LIG1        0.0618
@<TRIPOS>BOND
     1     7     1    1
     2     1     2   ar
     3     1     5   ar
     4     3     9    1
     5     3     2   ar
     6     3     4   ar
     7     2     8    1
     8     5     6    1
     9     5     4   ar
    10    15    11    1
    11     4    10    1
    12    11    10   ar
    13    11    12   ar
    14    10    14   ar
    15    14    13   ar
    16    12    16    1
    17    12    13   ar
    18    13    19    1
    19    26    17    1
    20    19    17   ar
    21    19    22   ar
    22    17    18   ar
    23    24    22    1
    24    22    23   ar
    25    18    21    1
    26    18    20   ar
    27    23    20   ar
    28    23    27    1
    29    20    25    1
