@<TRIPOS>MOLECULE
mol_data/opt/m06hf/geoms/mol2/1312-13-.out
 25 27 0 0 0
SMALL
GASTEIGER

@<TRIPOS>ATOM
      1 C           1.2346   -0.3308    0.0000 C.ar    1  LIG1        0.0023
      2 C           0.8465    0.9878    0.0002 C.ar    1  LIG1       -0.0437
      3 C          -0.5748    1.0085    0.0007 C.ar    1  LIG1       -0.0334
      4 C          -1.0005   -0.3021    0.0002 C.ar    1  LIG1        0.0821
      5 N           0.1085   -1.1009   -0.0002 N.ar    1  LIG1       -0.3583
      6 H           0.0947   -2.1076   -0.0007 H       1  LIG1        0.1654
      7 H           2.2133   -0.7784   -0.0002 H       1  LIG1        0.0807
      8 H           1.5048    1.8394    0.0002 H       1  LIG1        0.0633
      9 H          -1.2192    1.8706    0.0011 H       1  LIG1        0.0640
     10 C          -2.3482   -0.8523    0.0002 C.ar    1  LIG1        0.1518
     11 C          -2.8513   -2.1161    0.0003 C.ar    1  LIG1       -0.0137
     12 C          -4.2818   -1.9817    0.0003 C.ar    1  LIG1       -0.0137
     13 C          -4.5332   -0.6470    0.0001 C.ar    1  LIG1        0.1518
     14 O          -3.3647    0.0423    0.0001 O.2     1  LIG1       -0.4519
     15 H          -2.2910   -3.0358    0.0005 H       1  LIG1        0.0656
     16 H          -5.0147   -2.7699    0.0004 H       1  LIG1        0.0656
     17 C          -5.7501    0.1527    0.0001 C.ar    1  LIG1        0.0821
     18 C          -7.0815   -0.2067    0.0004 C.ar    1  LIG1       -0.0334
     19 C          -7.8364    0.9967   -0.0001 C.ar    1  LIG1       -0.0437
     20 C          -6.9412    2.0415   -0.0002 C.ar    1  LIG1        0.0023
     21 N          -5.6841    1.5164   -0.0003 N.ar    1  LIG1       -0.3583
     22 H          -4.8178    2.0317   -0.0006 H       1  LIG1        0.1654
     23 H          -7.1013    3.1058   -0.0004 H       1  LIG1        0.0807
     24 H          -7.4598   -1.2153    0.0008 H       1  LIG1        0.0640
     25 H          -8.9095    1.0856   -0.0002 H       1  LIG1        0.0633
@<TRIPOS>BOND
     1     6     5    1
     2    22    21    1
     3    23    20    1
     4    21    20   ar
     5    21    17   ar
     6     5     1   ar
     7     5     4   ar
     8    20    19   ar
     9    25    19    1
    10     7     1    1
    11    19    18   ar
    12     1     2   ar
    13    14    13   ar
    14    14    10   ar
    15    17    13    1
    16    17    18   ar
    17    13    12   ar
    18     4    10    1
    19     4     3   ar
    20     2     8    1
    21     2     3   ar
    22    10    11   ar
    23    11    12   ar
    24    11    15    1
    25    12    16    1
    26    18    24    1
    27     3     9    1
