@<TRIPOS>MOLECULE
mol_data/opt/m06hf/geoms/mol2/1312-8-4.out
 33 36 0 0 0
SMALL
GASTEIGER

@<TRIPOS>ATOM
      1 C           1.3191   -0.4937   -0.0005 C.ar    1  LIG1        0.0023
      2 C           0.9971    0.8439    0.0003 C.ar    1  LIG1       -0.0437
      3 C          -0.4201    0.9357    0.0004 C.ar    1  LIG1       -0.0334
      4 C          -0.9083   -0.3536    0.0000 C.ar    1  LIG1        0.0821
      5 N           0.1592   -1.2084   -0.0006 N.ar    1  LIG1       -0.3583
      6 H           0.0985   -2.2134   -0.0011 H       1  LIG1        0.1654
      7 H           2.2748   -0.9883   -0.0009 H       1  LIG1        0.0807
      8 H           1.6983    1.6605    0.0006 H       1  LIG1        0.0633
      9 H          -1.0272    1.8254    0.0009 H       1  LIG1        0.0640
     10 C          -2.2823   -0.8272    0.0001 C.ar    1  LIG1        0.1519
     11 C          -2.8533   -2.0708   -0.0001 C.ar    1  LIG1       -0.0137
     12 C          -4.2655   -1.8558    0.0001 C.ar    1  LIG1       -0.0120
     13 C          -4.4332   -0.5047    0.0004 C.ar    1  LIG1        0.1760
     14 O          -3.2373    0.1188    0.0004 O.2     1  LIG1       -0.4501
     15 H          -2.3437   -3.0189   -0.0004 H       1  LIG1        0.0656
     16 H          -5.0552   -2.5870   -0.0000 H       1  LIG1        0.0657
     17 C          -5.6450    0.3067    0.0008 C.ar    1  LIG1        0.2381
     18 N          -6.8070   -0.3573    0.0007 N.ar    1  LIG1       -0.1220
     19 C          -7.8097    1.6701    0.0013 C.ar    1  LIG1        0.2034
     20 N          -5.5436    1.6372    0.0011 N.ar    1  LIG1       -0.1220
     21 N          -7.8990    0.3333    0.0010 N.ar    1  LIG1       -0.1251
     22 N          -6.6458    2.3224    0.0014 N.ar    1  LIG1       -0.1251
     23 C          -9.0085    3.8545    0.0020 C.ar    1  LIG1       -0.0509
     24 C         -10.1890    4.5888    0.0023 C.ar    1  LIG1       -0.0611
     25 C          -9.0659    2.4595    0.0017 C.ar    1  LIG1        0.0226
     26 C         -11.4200    3.9363    0.0023 C.ar    1  LIG1       -0.0617
     27 H         -10.1484    5.6700    0.0025 H       1  LIG1        0.0618
     28 C         -10.2969    1.8016    0.0017 C.ar    1  LIG1       -0.0509
     29 C         -11.4723    2.5439    0.0019 C.ar    1  LIG1       -0.0611
     30 H         -10.3179    0.7202    0.0014 H       1  LIG1        0.0625
     31 H         -12.3366    4.5119    0.0025 H       1  LIG1        0.0618
     32 H          -8.0446    4.3454    0.0020 H       1  LIG1        0.0625
     33 H         -12.4276    2.0361    0.0019 H       1  LIG1        0.0618
@<TRIPOS>BOND
     1     6     5    1
     2     7     1    1
     3     5     1   ar
     4     5     4   ar
     5     1     2   ar
     6    15    11    1
     7    11    12   ar
     8    11    10   ar
     9    16    12    1
    10     4    10    1
    11     4     3   ar
    12    12    13   ar
    13    10    14   ar
    14     2     3   ar
    15     2     8    1
    16    14    13   ar
    17    13    17    1
    18     3     9    1
    19    18    17   ar
    20    18    21   ar
    21    17    20   ar
    22    21    19   ar
    23    20    22   ar
    24    19    22   ar
    25    19    25    1
    26    30    28    1
    27    28    25   ar
    28    28    29   ar
    29    25    23   ar
    30    33    29    1
    31    29    26   ar
    32    23    32    1
    33    23    24   ar
    34    26    24   ar
    35    26    31    1
    36    24    27    1
