@<TRIPOS>MOLECULE
mol_data/opt/m06hf/geoms/mol2/1312.out
 17 18 0 0 0
SMALL
GASTEIGER

@<TRIPOS>ATOM
      1 C           1.1591   -0.2945    0.0002 C.ar    1  LIG1        0.0023
      2 C           0.7682    1.0247   -0.0002 C.ar    1  LIG1       -0.0437
      3 C          -0.6525    1.0441    0.0003 C.ar    1  LIG1       -0.0334
      4 C          -1.0738   -0.2684    0.0001 C.ar    1  LIG1        0.0821
      5 N           0.0355   -1.0642    0.0000 N.ar    1  LIG1       -0.3583
      6 H          -0.0029   -2.0713   -0.0000 H       1  LIG1        0.1654
      7 H           2.1394   -0.7379    0.0003 H       1  LIG1        0.0807
      8 H           1.4256    1.8770   -0.0004 H       1  LIG1        0.0633
      9 H          -1.2935    1.9097    0.0004 H       1  LIG1        0.0640
     10 C          -2.4054   -0.8614    0.0001 C.ar    1  LIG1        0.1508
     11 C          -3.6656   -0.3534    0.0003 C.ar    1  LIG1       -0.0144
     12 C          -4.5497   -1.4897    0.0001 C.ar    1  LIG1       -0.0233
     13 C          -3.7549   -2.5842    0.0000 C.ar    1  LIG1        0.0926
     14 O          -2.4522   -2.2151   -0.0000 O.2     1  LIG1       -0.4615
     15 H          -3.9506   -3.6416   -0.0001 H       1  LIG1        0.1029
     16 H          -3.9323    0.6892    0.0004 H       1  LIG1        0.0656
     17 H          -5.6257   -1.4792    0.0002 H       1  LIG1        0.0649
@<TRIPOS>BOND
     1     8     2    1
     2     2     1   ar
     3     2     3   ar
     4    15    13    1
     5    14    13   ar
     6    14    10   ar
     7     6     5    1
     8    13    12   ar
     9     5     4   ar
    10     5     1   ar
    11     4    10    1
    12     4     3   ar
    13    10    11   ar
    14    12    17    1
    15    12    11   ar
    16     1     7    1
    17    11    16    1
    18     3     9    1
