@<TRIPOS>MOLECULE
mol_data/opt/m06hf/geoms/mol2/1312-134-.out
 35 38 0 0 0
SMALL
GASTEIGER

@<TRIPOS>ATOM
      1 C           1.2793   -0.3258   -0.4699 C.ar    1  LIG1        0.0023
      2 C           0.9452    0.9592   -0.1134 C.ar    1  LIG1       -0.0437
      3 C          -0.4553    0.9793    0.1296 C.ar    1  LIG1       -0.0334
      4 C          -0.9223   -0.2983   -0.0874 C.ar    1  LIG1        0.0821
      5 N           0.1412   -1.0778   -0.4494 N.ar    1  LIG1       -0.3583
      6 H           0.0776   -2.0461   -0.7181 H       1  LIG1        0.1654
      7 H           2.2267   -0.7592   -0.7382 H       1  LIG1        0.0807
      8 H           1.6268    1.7888   -0.0337 H       1  LIG1        0.0633
      9 H          -1.0607    1.8152    0.4359 H       1  LIG1        0.0640
     10 C          -2.2688   -0.8384    0.0324 C.ar    1  LIG1        0.1518
     11 C          -2.7733   -2.1009    0.1076 C.ar    1  LIG1       -0.0137
     12 C          -4.1967   -1.9531    0.2278 C.ar    1  LIG1       -0.0137
     13 C          -4.4382   -0.6136    0.2152 C.ar    1  LIG1        0.1518
     14 O          -3.2742    0.0620    0.0923 O.2     1  LIG1       -0.4519
     15 H          -2.2150   -3.0220    0.1137 H       1  LIG1        0.0656
     16 H          -4.9243   -2.7384    0.3445 H       1  LIG1        0.0656
     17 C          -5.6487    0.1884    0.3050 C.ar    1  LIG1        0.0825
     18 C          -5.8100    1.5232    0.6103 C.ar    1  LIG1       -0.0328
     19 C          -7.2008    1.7977    0.5554 C.ar    1  LIG1       -0.0357
     20 C          -7.8449    0.6236    0.2203 C.ar    1  LIG1        0.0470
     21 N          -6.8873   -0.3435    0.0808 N.ar    1  LIG1       -0.3518
     22 H          -7.0617   -1.2644   -0.2900 H       1  LIG1        0.1660
     23 H          -5.0121    2.2012    0.8599 H       1  LIG1        0.0640
     24 H          -7.6867    2.7339    0.7737 H       1  LIG1        0.0639
     25 C          -9.8186   -0.8990    0.4108 C.ar    1  LIG1       -0.0526
     26 C         -11.1689   -1.1679    0.2108 C.ar    1  LIG1       -0.0611
     27 C          -9.2773    0.3308    0.0234 C.ar    1  LIG1       -0.0017
     28 C         -11.9958   -0.2064   -0.3641 C.ar    1  LIG1       -0.0617
     29 H         -11.5771   -2.1221    0.5168 H       1  LIG1        0.0618
     30 C         -10.1121    1.2905   -0.5570 C.ar    1  LIG1       -0.0526
     31 C         -11.4642    1.0253   -0.7409 C.ar    1  LIG1       -0.0611
     32 H          -9.6879    2.2327   -0.8787 H       1  LIG1        0.0624
     33 H         -13.0467   -0.4140   -0.5157 H       1  LIG1        0.0618
     34 H          -9.1877   -1.6324    0.8988 H       1  LIG1        0.0624
     35 H         -12.1012    1.7751   -1.1919 H       1  LIG1        0.0618
@<TRIPOS>BOND
     1    35    31    1
     2    32    30    1
     3    31    30   ar
     4    31    28   ar
     5     7     1    1
     6     6     5    1
     7    30    27   ar
     8    33    28    1
     9     1     5   ar
    10     1     2   ar
    11     5     4   ar
    12    28    26   ar
    13    22    21    1
    14     2     8    1
    15     2     3   ar
    16     4    10    1
    17     4     3   ar
    18    27    20    1
    19    27    25   ar
    20    10    14   ar
    21    10    11   ar
    22    21    20   ar
    23    21    17   ar
    24    14    13   ar
    25    11    15    1
    26    11    12   ar
    27     3     9    1
    28    26    25   ar
    29    26    29    1
    30    13    12   ar
    31    13    17    1
    32    20    19   ar
    33    12    16    1
    34    17    18   ar
    35    25    34    1
    36    19    18   ar
    37    19    24    1
    38    18    23    1
