@<TRIPOS>MOLECULE
mol_data/opt/m06hf/geoms/mol2/1312-4.out
 27 29 0 0 0
SMALL
GASTEIGER

@<TRIPOS>ATOM
      1 C           1.2598   -0.3428   -0.0008 C.ar    1  LIG1        0.0023
      2 C           0.8732    0.9766    0.0004 C.ar    1  LIG1       -0.0437
      3 C          -0.5477    0.9993    0.0006 C.ar    1  LIG1       -0.0334
      4 C          -0.9744   -0.3110    0.0001 C.ar    1  LIG1        0.0821
      5 N           0.1335   -1.1118   -0.0007 N.ar    1  LIG1       -0.3583
      6 H           0.1189   -2.1184   -0.0014 H       1  LIG1        0.1654
      7 H           2.2385   -0.7909   -0.0015 H       1  LIG1        0.0807
      8 H           1.5328    1.8272    0.0008 H       1  LIG1        0.0633
      9 H          -1.1933    1.8607    0.0013 H       1  LIG1        0.0640
     10 C          -2.3242   -0.8559    0.0003 C.ar    1  LIG1        0.1517
     11 C          -2.8321   -2.1197    0.0002 C.ar    1  LIG1       -0.0138
     12 C          -4.2587   -1.9728    0.0006 C.ar    1  LIG1       -0.0152
     13 C          -4.5070   -0.6344    0.0009 C.ar    1  LIG1        0.1358
     14 O          -3.3318    0.0400    0.0007 O.2     1  LIG1       -0.4534
     15 H          -2.2773   -3.0426   -0.0000 H       1  LIG1        0.0656
     16 H          -4.9882   -2.7645    0.0006 H       1  LIG1        0.0656
     17 C          -5.6602    1.5662    0.0019 C.ar    1  LIG1       -0.0511
     18 C          -6.8231    2.3288    0.0023 C.ar    1  LIG1       -0.0611
     19 C          -5.7376    0.1711    0.0013 C.ar    1  LIG1        0.0173
     20 C          -8.0701    1.7095    0.0022 C.ar    1  LIG1       -0.0617
     21 H          -6.7544    3.4089    0.0027 H       1  LIG1        0.0618
     22 C          -6.9909   -0.4489    0.0012 C.ar    1  LIG1       -0.0511
     23 C          -8.1488    0.3180    0.0017 C.ar    1  LIG1       -0.0611
     24 H          -7.0591   -1.5291    0.0008 H       1  LIG1        0.0625
     25 H          -8.9736    2.3045    0.0025 H       1  LIG1        0.0618
     26 H          -4.6890    2.0424    0.0020 H       1  LIG1        0.0625
     27 H          -9.1147   -0.1703    0.0016 H       1  LIG1        0.0618
@<TRIPOS>BOND
     1     7     1    1
     2     6     5    1
     3     1     5   ar
     4     1     2   ar
     5     5     4   ar
     6    15    11    1
     7     4    10    1
     8     4     3   ar
     9    11    10   ar
    10    11    12   ar
    11    10    14   ar
    12     2     3   ar
    13     2     8    1
    14    12    16    1
    15    12    13   ar
    16     3     9    1
    17    14    13   ar
    18    24    22    1
    19    13    19    1
    20    22    19   ar
    21    22    23   ar
    22    19    17   ar
    23    27    23    1
    24    23    20   ar
    25    17    26    1
    26    17    18   ar
    27    20    18   ar
    28    20    25    1
    29    18    21    1
