@<TRIPOS>MOLECULE
mol_data/opt/m06hf/geoms/mol2/13125.out
 24 26 0 0 0
SMALL
GASTEIGER

@<TRIPOS>ATOM
      1 C           1.1806   -0.2546   -0.0001 C.ar    1  LIG1        0.0023
      2 C           0.7954    1.0668    0.0005 C.ar    1  LIG1       -0.0437
      3 C          -0.6254    1.0921    0.0002 C.ar    1  LIG1       -0.0334
      4 C          -1.0512   -0.2196    0.0001 C.ar    1  LIG1        0.0821
      5 N           0.0548   -1.0200   -0.0001 N.ar    1  LIG1       -0.3583
      6 H           0.0127   -2.0277   -0.0003 H       1  LIG1        0.1654
      7 H           2.1590   -0.7022   -0.0003 H       1  LIG1        0.0807
      8 H           1.4560    1.9170    0.0008 H       1  LIG1        0.0633
      9 H          -1.2621    1.9610    0.0004 H       1  LIG1        0.0640
     10 C          -2.3833   -0.8054    0.0000 C.ar    1  LIG1        0.1518
     11 C          -3.6429   -0.2936    0.0000 C.ar    1  LIG1       -0.0138
     12 C          -4.5316   -1.4205   -0.0000 C.ar    1  LIG1       -0.0147
     13 C          -3.7435   -2.5290   -0.0001 C.ar    1  LIG1        0.1423
     14 O          -2.4383   -2.1592   -0.0000 O.2     1  LIG1       -0.4528
     15 H          -3.9059    0.7498    0.0000 H       1  LIG1        0.0656
     16 H          -5.6082   -1.4024    0.0000 H       1  LIG1        0.0656
     17 C          -4.0190   -3.9603   -0.0001 C.ar    1  LIG1        0.0544
     18 C          -5.2334   -4.5859   -0.0002 C.ar    1  LIG1       -0.0440
     19 C          -5.1146   -6.0124   -0.0002 C.ar    1  LIG1       -0.0540
     20 C          -3.8191   -6.4266    0.0000 C.ar    1  LIG1       -0.0236
     21 S          -2.7211   -5.1018    0.0002 S.2     1  LIG1       -0.0936
     22 H          -3.4428   -7.4365    0.0001 H       1  LIG1        0.0693
     23 H          -6.1745   -4.0561   -0.0004 H       1  LIG1        0.0630
     24 H          -5.9581   -6.6866   -0.0003 H       1  LIG1        0.0623
@<TRIPOS>BOND
     1    23    18    1
     2    24    19    1
     3     7     1    1
     4     6     5    1
     5    18    19   ar
     6    18    17   ar
     7    19    20   ar
     8     1     5   ar
     9     1     2   ar
    10     5     4   ar
    11    17    13    1
    12    17    21   ar
    13    13    14   ar
    14    13    12   ar
    15    14    10   ar
    16    12    11   ar
    17    12    16    1
    18    11    15    1
    19    11    10   ar
    20    10     4    1
    21    20    22    1
    22    20    21   ar
    23     4     3   ar
    24     3     9    1
    25     3     2   ar
    26     2     8    1
