@<TRIPOS>MOLECULE
mol_data/opt/m06hf/geoms/mol2/131285-.out
 30 33 0 0 0
SMALL
GASTEIGER

@<TRIPOS>ATOM
      1 C           1.1946   -0.0866   -0.0001 C.ar    1  LIG1        0.0023
      2 C           0.7490    1.2170    0.0002 C.ar    1  LIG1       -0.0437
      3 C          -0.6690    1.1774   -0.0000 C.ar    1  LIG1       -0.0334
      4 C          -1.0337   -0.1532    0.0000 C.ar    1  LIG1        0.0821
      5 N           0.1078   -0.9032    0.0000 N.ar    1  LIG1       -0.3583
      6 H           0.1124   -1.9121    0.0000 H       1  LIG1        0.1654
      7 H           2.1936   -0.4867   -0.0001 H       1  LIG1        0.0807
      8 H           1.3712    2.0954    0.0004 H       1  LIG1        0.0633
      9 H          -1.3460    2.0148   -0.0001 H       1  LIG1        0.0640
     10 C          -2.3348   -0.8000    0.0001 C.ar    1  LIG1        0.1519
     11 C          -3.6227   -0.3446    0.0000 C.ar    1  LIG1       -0.0137
     12 C          -4.4514   -1.5089    0.0001 C.ar    1  LIG1       -0.0120
     13 C          -3.6021   -2.5732    0.0002 C.ar    1  LIG1        0.1760
     14 O          -2.3194   -2.1485    0.0001 O.2     1  LIG1       -0.4501
     15 H          -3.9346    0.6850   -0.0001 H       1  LIG1        0.0656
     16 H          -5.5264   -1.5642    0.0001 H       1  LIG1        0.0657
     17 C          -3.8472   -4.0092    0.0003 C.ar    1  LIG1        0.2381
     18 N          -5.1250   -4.4065    0.0003 N.ar    1  LIG1       -0.1220
     19 C          -4.3175   -6.5159    0.0006 C.ar    1  LIG1        0.2099
     20 N          -2.8015   -4.8415    0.0004 N.ar    1  LIG1       -0.1220
     21 N          -5.3611   -5.6774    0.0005 N.ar    1  LIG1       -0.1246
     22 N          -3.0435   -6.1156    0.0005 N.ar    1  LIG1       -0.1246
     23 C          -4.5914   -7.9528    0.0008 C.ar    1  LIG1        0.0598
     24 C          -3.6677   -8.9602    0.0009 C.ar    1  LIG1       -0.0438
     25 C          -4.2815  -10.2489    0.0011 C.ar    1  LIG1       -0.0540
     26 C          -5.6434  -10.1693    0.0013 C.ar    1  LIG1       -0.0236
     27 S          -6.2071   -8.5499    0.0008 S.2     1  LIG1       -0.0934
     28 H          -6.3515  -10.9828    0.0015 H       1  LIG1        0.0693
     29 H          -2.6039   -8.7741    0.0008 H       1  LIG1        0.0630
     30 H          -3.7344  -11.1793    0.0013 H       1  LIG1        0.0623
@<TRIPOS>BOND
     1     7     1    1
     2     1     5   ar
     3     1     2   ar
     4    15    11    1
     5     9     3    1
     6     3     4   ar
     7     3     2   ar
     8     6     5    1
     9    11    10   ar
    10    11    12   ar
    11     5     4   ar
    12     4    10    1
    13    10    14   ar
    14    12    16    1
    15    12    13   ar
    16    14    13   ar
    17    13    17    1
    18     2     8    1
    19    17    18   ar
    20    17    20   ar
    21    18    21   ar
    22    20    22   ar
    23    21    19   ar
    24    22    19   ar
    25    19    23    1
    26    23    27   ar
    27    23    24   ar
    28    27    26   ar
    29    29    24    1
    30    24    25   ar
    31    25    26   ar
    32    25    30    1
    33    26    28    1
