@<TRIPOS>MOLECULE
mol_data/opt/m06hf/geoms/mol2/13125-.out
 24 26 0 0 0
SMALL
GASTEIGER

@<TRIPOS>ATOM
      1 C           1.2113   -0.1610   -0.0002 C.ar    1  LIG1        0.0023
      2 C           0.7793    1.1455    0.0002 C.ar    1  LIG1       -0.0437
      3 C          -0.6405    1.1209   -0.0001 C.ar    1  LIG1       -0.0334
      4 C          -1.0210   -0.2046    0.0001 C.ar    1  LIG1        0.0821
      5 N           0.1124   -0.9661    0.0001 N.ar    1  LIG1       -0.3583
      6 H           0.1075   -1.9738    0.0002 H       1  LIG1        0.1654
      7 H           2.2054   -0.5731   -0.0003 H       1  LIG1        0.0807
      8 H           1.4094    2.0186    0.0004 H       1  LIG1        0.0633
      9 H          -1.3082    1.9661   -0.0002 H       1  LIG1        0.0640
     10 C          -2.3369   -0.8269    0.0001 C.ar    1  LIG1        0.1518
     11 C          -3.6057   -0.3381    0.0000 C.ar    1  LIG1       -0.0138
     12 C          -4.4707   -1.4824    0.0002 C.ar    1  LIG1       -0.0147
     13 C          -3.6613   -2.5749    0.0004 C.ar    1  LIG1        0.1423
     14 O          -2.3628   -2.1823    0.0004 O.2     1  LIG1       -0.4528
     15 H          -3.8903    0.6999   -0.0002 H       1  LIG1        0.0656
     16 H          -5.5478   -1.4875    0.0002 H       1  LIG1        0.0656
     17 C          -3.9181   -4.0092    0.0006 C.ar    1  LIG1        0.0544
     18 C          -3.0017   -5.0207    0.0007 C.ar    1  LIG1       -0.0440
     19 C          -3.6168   -6.3156    0.0009 C.ar    1  LIG1       -0.0540
     20 C          -4.9738   -6.2472    0.0008 C.ar    1  LIG1       -0.0236
     21 S          -5.5346   -4.6176    0.0005 S.2     1  LIG1       -0.0936
     22 H          -5.6828   -7.0589    0.0010 H       1  LIG1        0.0693
     23 H          -1.9366   -4.8466    0.0007 H       1  LIG1        0.0630
     24 H          -3.0669   -7.2447    0.0010 H       1  LIG1        0.0623
@<TRIPOS>BOND
     1     7     1    1
     2     9     3    1
     3    15    11    1
     4     1     5   ar
     5     1     2   ar
     6     3     4   ar
     7     3     2   ar
     8    11    10   ar
     9    11    12   ar
    10     4     5   ar
    11     4    10    1
    12     5     6    1
    13    10    14   ar
    14    16    12    1
    15    12    13   ar
    16     2     8    1
    17    14    13   ar
    18    13    17    1
    19    21    17   ar
    20    21    20   ar
    21    17    18   ar
    22    18    23    1
    23    18    19   ar
    24    20    19   ar
    25    20    22    1
    26    19    24    1
