@<TRIPOS>MOLECULE
mol_data/opt/m06hf/geoms/mol2/1312-12.out
 24 26 0 0 0
SMALL
GASTEIGER

@<TRIPOS>ATOM
      1 C           1.2220   -0.3243   -0.0002 C.ar    1  LIG1        0.0023
      2 C           0.8313    0.9939    0.0003 C.ar    1  LIG1       -0.0437
      3 C          -0.5897    1.0123    0.0005 C.ar    1  LIG1       -0.0334
      4 C          -1.0123   -0.2991    0.0001 C.ar    1  LIG1        0.0821
      5 N           0.0980   -1.0968   -0.0003 N.ar    1  LIG1       -0.3583
      6 H           0.0861   -2.1036   -0.0007 H       1  LIG1        0.1654
      7 H           2.2013   -0.7700   -0.0004 H       1  LIG1        0.0807
      8 H           1.4880    1.8471    0.0005 H       1  LIG1        0.0633
      9 H          -1.2384    1.8713    0.0009 H       1  LIG1        0.0640
     10 C          -2.3614   -0.8452    0.0002 C.ar    1  LIG1        0.1519
     11 C          -2.8711   -2.1088    0.0003 C.ar    1  LIG1       -0.0137
     12 C          -4.2992   -1.9640    0.0003 C.ar    1  LIG1       -0.0121
     13 C          -4.5337   -0.6266    0.0003 C.ar    1  LIG1        0.1706
     14 O          -3.3680    0.0563    0.0002 O.2     1  LIG1       -0.4503
     15 H          -2.3164   -3.0321    0.0003 H       1  LIG1        0.0656
     16 H          -5.0471   -2.7377    0.0004 H       1  LIG1        0.0657
     17 C          -5.7541    0.1604    0.0003 C.ar    1  LIG1        0.1697
     18 C          -5.9834    1.4993    0.0002 C.ar    1  LIG1       -0.0128
     19 C          -7.4142    1.6461    0.0003 C.ar    1  LIG1       -0.0232
     20 C          -7.9182    0.3890    0.0005 C.ar    1  LIG1        0.0927
     21 O          -6.9189   -0.5202    0.0005 O.2     1  LIG1       -0.4598
     22 H          -8.9185   -0.0049    0.0007 H       1  LIG1        0.1029
     23 H          -5.2324    2.2698   -0.0000 H       1  LIG1        0.0656
     24 H          -7.9773    2.5635    0.0003 H       1  LIG1        0.0649
@<TRIPOS>BOND
     1     6     5    1
     2     7     1    1
     3     5     1   ar
     4     5     4   ar
     5     1     2   ar
     6    23    18    1
     7     4    10    1
     8     4     3   ar
     9    18    17   ar
    10    18    19   ar
    11    14    10   ar
    12    14    13   ar
    13    10    11   ar
    14    11    12   ar
    15    11    15    1
    16    13    17    1
    17    13    12   ar
    18    24    19    1
    19    17    21   ar
    20    19    20   ar
    21    12    16    1
    22     2     3   ar
    23     2     8    1
    24     3     9    1
    25    21    20   ar
    26    20    22    1
