@<TRIPOS>MOLECULE
mol_data/opt/m06hf/geoms/mol2/1312-5.out
 24 26 0 0 0
SMALL
GASTEIGER

@<TRIPOS>ATOM
      1 C           1.2540   -0.3609    0.0001 C.ar    1  LIG1        0.0023
      2 C           0.8800    0.9622   -0.0002 C.ar    1  LIG1       -0.0437
      3 C          -0.5407    0.9984    0.0003 C.ar    1  LIG1       -0.0334
      4 C          -0.9797   -0.3076    0.0001 C.ar    1  LIG1        0.0821
      5 N           0.1205   -1.1191    0.0000 N.ar    1  LIG1       -0.3583
      6 H           0.0961   -2.1257   -0.0001 H       1  LIG1        0.1654
      7 H           2.2277   -0.8189    0.0001 H       1  LIG1        0.0807
      8 H           1.5474    1.8070   -0.0004 H       1  LIG1        0.0633
      9 H          -1.1783    1.8657    0.0004 H       1  LIG1        0.0640
     10 C          -2.3351   -0.8379    0.0002 C.ar    1  LIG1        0.1518
     11 C          -2.8572   -2.0960    0.0004 C.ar    1  LIG1       -0.0138
     12 C          -4.2826   -1.9342    0.0003 C.ar    1  LIG1       -0.0147
     13 C          -4.5103   -0.5935    0.0001 C.ar    1  LIG1        0.1423
     14 O          -3.3323    0.0725    0.0000 O.2     1  LIG1       -0.4528
     15 H          -2.3133   -3.0256    0.0007 H       1  LIG1        0.0656
     16 H          -5.0294   -2.7104    0.0004 H       1  LIG1        0.0656
     17 C          -5.7190    0.2210   -0.0000 C.ar    1  LIG1        0.0544
     18 C          -5.7948    1.5836   -0.0001 C.ar    1  LIG1       -0.0440
     19 C          -7.1488    2.0546   -0.0001 C.ar    1  LIG1       -0.0540
     20 C          -8.0532    1.0407    0.0000 C.ar    1  LIG1       -0.0236
     21 S          -7.2870   -0.5041   -0.0002 S.2     1  LIG1       -0.0936
     22 H          -9.1289    1.1058    0.0001 H       1  LIG1        0.0693
     23 H          -4.9205    2.2166   -0.0001 H       1  LIG1        0.0630
     24 H          -7.4238    3.0984   -0.0001 H       1  LIG1        0.0623
@<TRIPOS>BOND
     1     8     2    1
     2     2     1   ar
     3     2     3   ar
     4    21    17   ar
     5    21    20   ar
     6    23    18    1
     7    18    19   ar
     8    18    17   ar
     9     6     5    1
    10    24    19    1
    11    19    20   ar
    12    17    13    1
    13    20    22    1
    14     5     4   ar
    15     5     1   ar
    16    14    13   ar
    17    14    10   ar
    18    13    12   ar
    19     4    10    1
    20     4     3   ar
    21     1     7    1
    22    10    11   ar
    23     3     9    1
    24    12    11   ar
    25    12    16    1
    26    11    15    1
