@<TRIPOS>MOLECULE
mol_data/opt/m06hf/geoms/mol2/131244-.out
 37 40 0 0 0
SMALL
GASTEIGER

@<TRIPOS>ATOM
      1 C           1.1870   -0.0150   -0.4727 C.ar    1  LIG1        0.0023
      2 C           0.7626    1.2878   -0.3466 C.ar    1  LIG1       -0.0437
      3 C          -0.6356    1.2538   -0.0962 C.ar    1  LIG1       -0.0334
      4 C          -1.0104   -0.0733   -0.0792 C.ar    1  LIG1        0.0821
      5 N           0.1054   -0.8261   -0.3087 N.ar    1  LIG1       -0.3583
      6 H           0.1003   -1.8328   -0.3497 H       1  LIG1        0.1654
      7 H           2.1643   -0.4210   -0.6675 H       1  LIG1        0.0807
      8 H           1.3829    2.1639   -0.4270 H       1  LIG1        0.0633
      9 H          -1.2929    2.0939    0.0517 H       1  LIG1        0.0640
     10 C          -2.3046   -0.7074    0.1253 C.ar    1  LIG1        0.1517
     11 C          -3.5517   -0.2362    0.3930 C.ar    1  LIG1       -0.0138
     12 C          -4.4014   -1.3890    0.4691 C.ar    1  LIG1       -0.0152
     13 C          -3.6095   -2.4727    0.2427 C.ar    1  LIG1        0.1358
     14 O          -2.3327   -2.0582    0.0354 O.2     1  LIG1       -0.4534
     15 H          -3.8299    0.7955    0.5214 H       1  LIG1        0.0656
     16 H          -5.4585   -1.3983    0.6728 H       1  LIG1        0.0656
     17 C          -5.1698   -4.4108    0.2815 C.ar    1  LIG1       -0.0505
     18 C          -5.4101   -5.7758    0.2239 C.ar    1  LIG1       -0.0534
     19 C          -3.8654   -3.9173    0.1836 C.ar    1  LIG1        0.0173
     20 C          -4.3573   -6.6825    0.0621 C.ar    1  LIG1       -0.0178
     21 H          -6.4220   -6.1485    0.3240 H       1  LIG1        0.0624
     22 C          -2.8097   -4.8184    0.0240 C.ar    1  LIG1       -0.0505
     23 C          -3.0565   -6.1842   -0.0369 C.ar    1  LIG1       -0.0534
     24 H          -1.7987   -4.4436   -0.0603 H       1  LIG1        0.0625
     25 H          -5.9986   -3.7260    0.4062 H       1  LIG1        0.0625
     26 H          -2.2344   -6.8730   -0.1877 H       1  LIG1        0.0624
     27 C          -3.8211   -9.0479    0.7048 C.ar    1  LIG1       -0.0540
     28 C          -4.0659  -10.4158    0.6378 C.ar    1  LIG1       -0.0612
     29 C          -4.6206   -8.1490   -0.0067 C.ar    1  LIG1       -0.0179
     30 C          -5.1144  -10.9020   -0.1390 C.ar    1  LIG1       -0.0617
     31 H          -3.4436  -11.1007    1.1989 H       1  LIG1        0.0618
     32 C          -5.6706   -8.6450   -0.7843 C.ar    1  LIG1       -0.0540
     33 C          -5.9168  -10.0127   -0.8495 C.ar    1  LIG1       -0.0612
     34 H          -6.2783   -7.9556   -1.3573 H       1  LIG1        0.0624
     35 H          -5.3048  -11.9661   -0.1905 H       1  LIG1        0.0618
     36 H          -3.0222   -8.6684    1.3300 H       1  LIG1        0.0624
     37 H          -6.7288  -10.3838   -1.4613 H       1  LIG1        0.0618
@<TRIPOS>BOND
     1    37    33    1
     2    34    32    1
     3    33    32   ar
     4    33    30   ar
     5    32    29   ar
     6     7     1    1
     7     1     2   ar
     8     1     5   ar
     9     8     2    1
    10     6     5    1
    11     2     3   ar
    12     5     4   ar
    13    35    30    1
    14    26    23    1
    15    30    28   ar
    16     3     4   ar
    17     3     9    1
    18     4    10    1
    19    24    22    1
    20    23    22   ar
    21    23    20   ar
    22    29    20    1
    23    29    27   ar
    24    22    19   ar
    25    14    10   ar
    26    14    13   ar
    27    20    18   ar
    28    10    11   ar
    29    19    13    1
    30    19    17   ar
    31    18    17   ar
    32    18    21    1
    33    13    12   ar
    34    17    25    1
    35    11    12   ar
    36    11    15    1
    37    12    16    1
    38    28    27   ar
    39    28    31    1
    40    27    36    1
