@<TRIPOS>MOLECULE
mol_data/opt/m06hf/geoms/mol2/131244.out
 37 40 0 0 0
SMALL
GASTEIGER

@<TRIPOS>ATOM
      1 C           1.1787    0.0031   -0.4697 C.ar    1  LIG1        0.0023
      2 C           0.7475    1.3042   -0.3482 C.ar    1  LIG1       -0.0437
      3 C          -0.6511    1.2639   -0.1010 C.ar    1  LIG1       -0.0334
      4 C          -1.0193   -0.0650   -0.0812 C.ar    1  LIG1        0.0821
      5 N           0.1007   -0.8129   -0.3060 N.ar    1  LIG1       -0.3583
      6 H           0.1007   -1.8196   -0.3442 H       1  LIG1        0.1654
      7 H           2.1585   -0.3985   -0.6610 H       1  LIG1        0.0807
      8 H           1.3637    2.1832   -0.4296 H       1  LIG1        0.0633
      9 H          -1.3129    2.1012    0.0429 H       1  LIG1        0.0640
     10 C          -2.3109   -0.7049    0.1220 C.ar    1  LIG1        0.1517
     11 C          -3.5607   -0.2392    0.3867 C.ar    1  LIG1       -0.0138
     12 C          -4.4050   -1.3959    0.4631 C.ar    1  LIG1       -0.0152
     13 C          -3.6076   -2.4761    0.2398 C.ar    1  LIG1        0.1358
     14 O          -2.3324   -2.0559    0.0342 O.2     1  LIG1       -0.4534
     15 H          -3.8440    0.7913    0.5130 H       1  LIG1        0.0656
     16 H          -5.4625   -1.4099    0.6649 H       1  LIG1        0.0656
     17 C          -5.1587   -4.4216    0.2796 C.ar    1  LIG1       -0.0505
     18 C          -5.3924   -5.7878    0.2235 C.ar    1  LIG1       -0.0534
     19 C          -3.8566   -3.9221    0.1825 C.ar    1  LIG1        0.0173
     20 C          -4.3352   -6.6898    0.0642 C.ar    1  LIG1       -0.0178
     21 H          -6.4027   -6.1652    0.3229 H       1  LIG1        0.0624
     22 C          -2.7964   -4.8184    0.0254 C.ar    1  LIG1       -0.0505
     23 C          -3.0366   -6.1854   -0.0339 C.ar    1  LIG1       -0.0534
     24 H          -1.7870   -4.4389   -0.0583 H       1  LIG1        0.0625
     25 H          -5.9909   -3.7406    0.4024 H       1  LIG1        0.0625
     26 H          -2.2111   -6.8705   -0.1828 H       1  LIG1        0.0624
     27 C          -5.6381   -8.6596   -0.7811 C.ar    1  LIG1       -0.0540
     28 C          -5.8778  -10.0285   -0.8446 C.ar    1  LIG1       -0.0612
     29 C          -4.5915   -8.1575   -0.0028 C.ar    1  LIG1       -0.0179
     30 C          -5.0721  -10.9130   -0.1319 C.ar    1  LIG1       -0.0617
     31 H          -6.6872  -10.4044   -1.4569 H       1  LIG1        0.0618
     32 C          -3.7886   -9.0517    0.7109 C.ar    1  LIG1       -0.0540
     33 C          -4.0269  -10.4209    0.6456 C.ar    1  LIG1       -0.0612
     34 H          -2.9922   -8.6676    1.3365 H       1  LIG1        0.0624
     35 H          -5.2573  -11.9781   -0.1821 H       1  LIG1        0.0618
     36 H          -6.2483   -7.9739   -1.3557 H       1  LIG1        0.0624
     37 H          -3.4021  -11.1019    1.2084 H       1  LIG1        0.0618
@<TRIPOS>BOND
     1    31    28    1
     2    36    27    1
     3    28    27   ar
     4    28    30   ar
     5    27    29   ar
     6     7     1    1
     7     1     2   ar
     8     1     5   ar
     9     8     2    1
    10     2     3   ar
    11     6     5    1
    12     5     4   ar
    13    26    23    1
    14    35    30    1
    15    30    33   ar
    16     3     4   ar
    17     3     9    1
    18     4    10    1
    19    24    22    1
    20    23    22   ar
    21    23    20   ar
    22    29    20    1
    23    29    32   ar
    24    22    19   ar
    25    14    10   ar
    26    14    13   ar
    27    20    18   ar
    28    10    11   ar
    29    19    13    1
    30    19    17   ar
    31    18    17   ar
    32    18    21    1
    33    13    12   ar
    34    17    25    1
    35    11    12   ar
    36    11    15    1
    37    12    16    1
    38    33    32   ar
    39    33    37    1
    40    32    34    1
