@<TRIPOS>MOLECULE
mol_data/opt/m06hf/geoms/mol2/1312-4-.out
 27 29 0 0 0
SMALL
GASTEIGER

@<TRIPOS>ATOM
      1 C           1.2655   -0.3706    0.0001 C.ar    1  LIG1        0.0023
      2 C           0.8899    0.9519    0.0006 C.ar    1  LIG1       -0.0437
      3 C          -0.5307    0.9865    0.0003 C.ar    1  LIG1       -0.0334
      4 C          -0.9684   -0.3203    0.0002 C.ar    1  LIG1        0.0821
      5 N           0.1328   -1.1303    0.0001 N.ar    1  LIG1       -0.3583
      6 H           0.1098   -2.1367   -0.0002 H       1  LIG1        0.1654
      7 H           2.2404   -0.8269   -0.0000 H       1  LIG1        0.0807
      8 H           1.5565    1.7970    0.0010 H       1  LIG1        0.0633
      9 H          -1.1692    1.8532    0.0004 H       1  LIG1        0.0640
     10 C          -2.3226   -0.8539    0.0001 C.ar    1  LIG1        0.1517
     11 C          -2.8410   -2.1134    0.0003 C.ar    1  LIG1       -0.0138
     12 C          -4.2664   -1.9546    0.0001 C.ar    1  LIG1       -0.0152
     13 C          -4.5036   -0.6142   -0.0003 C.ar    1  LIG1        0.1358
     14 O          -3.3228    0.0504   -0.0003 O.2     1  LIG1       -0.4534
     15 H          -2.2939   -3.0409    0.0007 H       1  LIG1        0.0656
     16 H          -5.0025   -2.7403    0.0002 H       1  LIG1        0.0656
     17 C          -6.9858   -0.4080   -0.0009 C.ar    1  LIG1       -0.0511
     18 C          -8.1373    0.3685   -0.0012 C.ar    1  LIG1       -0.0611
     19 C          -5.7273    0.2015   -0.0007 C.ar    1  LIG1        0.0173
     20 C          -8.0470    1.7593   -0.0013 C.ar    1  LIG1       -0.0617
     21 H          -9.1072   -0.1118   -0.0014 H       1  LIG1        0.0618
     22 C          -5.6384    1.5959   -0.0008 C.ar    1  LIG1       -0.0511
     23 C          -6.7949    2.3681   -0.0011 C.ar    1  LIG1       -0.0611
     24 H          -4.6632    2.0640   -0.0006 H       1  LIG1        0.0625
     25 H          -8.9455    2.3618   -0.0015 H       1  LIG1        0.0618
     26 H          -7.0630   -1.4876   -0.0008 H       1  LIG1        0.0625
     27 H          -6.7172    3.4476   -0.0011 H       1  LIG1        0.0618
@<TRIPOS>BOND
     1    25    20    1
     2    21    18    1
     3    20    18   ar
     4    20    23   ar
     5    18    17   ar
     6    27    23    1
     7    23    22   ar
     8    17    26    1
     9    17    19   ar
    10    22    19   ar
    11    22    24    1
    12    19    13    1
    13    14    13   ar
    14    14    10   ar
    15    13    12   ar
    16     6     5    1
    17     7     1    1
    18    12    16    1
    19    12    11   ar
    20     5     1   ar
    21     5     4   ar
    22    10     4    1
    23    10    11   ar
    24     1     2   ar
    25     4     3   ar
    26     3     9    1
    27     3     2   ar
    28    11    15    1
    29     2     8    1
