@<TRIPOS>MOLECULE
mol_data/opt/m06hf/geoms/mol2/13138-12-.out
 31 34 0 0 0
SMALL
GASTEIGER

@<TRIPOS>ATOM
      1 C           1.2055   -0.1738   -0.3018 C.ar    1  LIG1        0.0022
      2 C           0.8725    0.8882    0.5039 C.ar    1  LIG1       -0.0438
      3 C          -0.5324    0.8289    0.7210 C.ar    1  LIG1       -0.0350
      4 C          -1.0054   -0.2675    0.0366 C.ar    1  LIG1        0.0629
      5 N           0.0637   -0.8698   -0.5741 N.ar    1  LIG1       -0.3595
      6 H          -0.0112   -1.6397   -1.2202 H       1  LIG1        0.1654
      7 H           2.1552   -0.4842   -0.7011 H       1  LIG1        0.0807
      8 H           1.5582    1.6170    0.9011 H       1  LIG1        0.0633
      9 H          -1.1334    1.4866    1.3262 H       1  LIG1        0.0639
     10 C          -2.3626   -0.8010   -0.0880 C.ar    1  LIG1        0.0634
     11 C          -3.5687   -0.1505   -0.2936 C.ar    1  LIG1       -0.0343
     12 C          -4.5810   -1.1361   -0.3342 C.ar    1  LIG1       -0.0326
     13 C          -3.9576   -2.3563   -0.1586 C.ar    1  LIG1        0.0880
     14 N          -2.6174   -2.1353   -0.0121 N.ar    1  LIG1       -0.3505
     15 H          -1.9568   -2.8634    0.2212 H       1  LIG1        0.1660
     16 H          -3.6803    0.9124   -0.4239 H       1  LIG1        0.0639
     17 H          -5.6380   -0.9985   -0.4860 H       1  LIG1        0.0640
     18 C          -4.4895   -3.7061   -0.1043 C.ar    1  LIG1        0.2194
     19 N          -3.6172   -4.7049    0.0797 N.ar    1  LIG1       -0.1236
     20 C          -5.3909   -6.0897    0.0057 C.ar    1  LIG1        0.2381
     21 N          -5.8102   -3.8861   -0.2369 N.ar    1  LIG1       -0.1236
     22 N          -4.0739   -5.9153    0.1359 N.ar    1  LIG1       -0.1220
     23 N          -6.2667   -5.0960   -0.1820 N.ar    1  LIG1       -0.1220
     24 C          -5.8826   -7.4657    0.0747 C.ar    1  LIG1        0.1751
     25 C          -5.2208   -8.6435    0.2362 C.ar    1  LIG1       -0.0126
     26 C          -6.2336   -9.6572    0.2267 C.ar    1  LIG1       -0.0232
     27 C          -7.4115   -9.0014    0.0607 C.ar    1  LIG1        0.0927
     28 O          -7.2076   -7.6763   -0.0310 O.2     1  LIG1       -0.4597
     29 H          -8.4333   -9.3307   -0.0077 H       1  LIG1        0.1029
     30 H          -4.1564   -8.7583    0.3462 H       1  LIG1        0.0656
     31 H          -6.0989  -10.7200    0.3284 H       1  LIG1        0.0649
@<TRIPOS>BOND
     1     6     5    1
     2     7     1    1
     3     5     1   ar
     4     5     4   ar
     5    17    12    1
     6    16    11    1
     7    12    11   ar
     8    12    13   ar
     9     1     2   ar
    10    11    10   ar
    11    21    23   ar
    12    21    18   ar
    13    23    20   ar
    14    13    18    1
    15    13    14   ar
    16    18    19   ar
    17    10    14   ar
    18    10     4    1
    19    28    27   ar
    20    28    24   ar
    21    14    15    1
    22    29    27    1
    23    20    24    1
    24    20    22   ar
    25     4     3   ar
    26    27    26   ar
    27    24    25   ar
    28    19    22   ar
    29    26    25   ar
    30    26    31    1
    31    25    30    1
    32     2     3   ar
    33     2     8    1
    34     3     9    1
