@<TRIPOS>MOLECULE
mol_data/opt/m06hf/geoms/mol2/1313128-.out
 31 34 0 0 0
SMALL
GASTEIGER

@<TRIPOS>ATOM
      1 C           1.1639    0.0085   -0.4259 C.ar    1  LIG1        0.0022
      2 C           0.8326    1.0271    0.4343 C.ar    1  LIG1       -0.0438
      3 C          -0.5565    0.9054    0.7176 C.ar    1  LIG1       -0.0350
      4 C          -1.0233   -0.1822    0.0152 C.ar    1  LIG1        0.0629
      5 N           0.0354   -0.7194   -0.6701 N.ar    1  LIG1       -0.3595
      6 H          -0.0417   -1.4727   -1.3351 H       1  LIG1        0.1654
      7 H           2.1036   -0.2516   -0.8808 H       1  LIG1        0.0807
      8 H           1.5103    1.7665    0.8250 H       1  LIG1        0.0633
      9 H          -1.1504    1.5162    1.3767 H       1  LIG1        0.0639
     10 C          -2.3657   -0.7606   -0.0653 C.ar    1  LIG1        0.0634
     11 C          -3.5999   -0.1533   -0.1951 C.ar    1  LIG1       -0.0343
     12 C          -4.5778   -1.1779   -0.2195 C.ar    1  LIG1       -0.0328
     13 C          -3.9070   -2.3794   -0.1105 C.ar    1  LIG1        0.0826
     14 N          -2.5708   -2.1091   -0.0192 N.ar    1  LIG1       -0.3506
     15 H          -1.8641   -2.8070    0.1633 H       1  LIG1        0.1660
     16 H          -3.7582    0.9074   -0.2885 H       1  LIG1        0.0639
     17 H          -5.6436   -1.0616   -0.3231 H       1  LIG1        0.0640
     18 C          -4.3813   -3.7510   -0.0758 C.ar    1  LIG1        0.1519
     19 C          -5.6193   -4.3296   -0.1001 C.ar    1  LIG1       -0.0137
     20 C          -5.3949   -5.7385   -0.0338 C.ar    1  LIG1       -0.0120
     21 C          -4.0443   -5.9007    0.0265 C.ar    1  LIG1        0.1760
     22 O          -3.4264   -4.6994    0.0003 O.2     1  LIG1       -0.4501
     23 H          -6.5628   -3.8151   -0.1547 H       1  LIG1        0.0656
     24 H          -6.1219   -6.5323   -0.0291 H       1  LIG1        0.0657
     25 C          -3.2172   -7.0973    0.1086 C.ar    1  LIG1        0.2381
     26 N          -1.8901   -6.9617    0.1431 N.ar    1  LIG1       -0.1226
     27 C          -1.8210   -9.2108    0.2553 C.ar    1  LIG1        0.1605
     28 N          -3.8621   -8.2713    0.1434 N.ar    1  LIG1       -0.1226
     29 N          -1.1785   -8.0491    0.2186 N.ar    1  LIG1       -0.1338
     30 N          -3.1473   -9.3484    0.2183 N.ar    1  LIG1       -0.1338
     31 H          -1.2285  -10.1109    0.3190 H       1  LIG1        0.1085
@<TRIPOS>BOND
     1     6     5    1
     2     7     1    1
     3     5     1   ar
     4     5     4   ar
     5     1     2   ar
     6    17    12    1
     7    16    11    1
     8    12    11   ar
     9    12    13   ar
    10    11    10   ar
    11    23    19    1
    12    13    18    1
    13    13    14   ar
    14    19    18   ar
    15    19    20   ar
    16    18    22   ar
    17    10    14   ar
    18    10     4    1
    19    20    24    1
    20    20    21   ar
    21    14    15    1
    22    22    21   ar
    23     4     3   ar
    24    21    25    1
    25    25    26   ar
    26    25    28   ar
    27    26    29   ar
    28    28    30   ar
    29    30    27   ar
    30    29    27   ar
    31    27    31    1
    32     2     3   ar
    33     2     8    1
    34     3     9    1
