@<TRIPOS>MOLECULE
mol_data/opt/m06hf/geoms/mol2/13134.out
 28 30 0 0 0
SMALL
GASTEIGER

@<TRIPOS>ATOM
      1 C           1.1115    0.0399   -0.7522 C.ar    1  LIG1        0.0022
      2 C           0.9335    0.9243    0.2836 C.ar    1  LIG1       -0.0438
      3 C          -0.4011    0.7620    0.7521 C.ar    1  LIG1       -0.0350
      4 C          -0.9909   -0.2133   -0.0181 C.ar    1  LIG1        0.0629
      5 N          -0.0562   -0.6463   -0.9235 N.ar    1  LIG1       -0.3595
      6 H          -0.2530   -1.2890   -1.6740 H       1  LIG1        0.1654
      7 H           1.9678   -0.1517   -1.3754 H       1  LIG1        0.0807
      8 H           1.6774    1.6008    0.6688 H       1  LIG1        0.0633
      9 H          -0.8789    1.2732    1.5709 H       1  LIG1        0.0639
     10 C          -2.3435   -0.7789    0.0188 C.ar    1  LIG1        0.0633
     11 C          -3.5779   -0.1677    0.0456 C.ar    1  LIG1       -0.0344
     12 C          -4.5590   -1.1947    0.0674 C.ar    1  LIG1       -0.0358
     13 C          -3.8951   -2.4044    0.0520 C.ar    1  LIG1        0.0469
     14 N          -2.5550   -2.1316    0.0266 N.ar    1  LIG1       -0.3530
     15 H          -1.8243   -2.8266    0.0246 H       1  LIG1        0.1659
     16 H          -3.7380    0.8972    0.0349 H       1  LIG1        0.0639
     17 H          -5.6285   -1.0737    0.1164 H       1  LIG1        0.0639
     18 C          -5.5797   -4.1136   -0.6112 C.ar    1  LIG1       -0.0526
     19 C          -6.0720   -5.4135   -0.5864 C.ar    1  LIG1       -0.0611
     20 C          -4.4070   -3.7889    0.0781 C.ar    1  LIG1       -0.0017
     21 C          -5.3924   -6.4088    0.1130 C.ar    1  LIG1       -0.0617
     22 H          -6.9803   -5.6536   -1.1240 H       1  LIG1        0.0618
     23 C          -3.7372   -4.7892    0.7895 C.ar    1  LIG1       -0.0526
     24 C          -4.2228   -6.0930    0.7994 C.ar    1  LIG1       -0.0611
     25 H          -2.8529   -4.5393    1.3638 H       1  LIG1        0.0624
     26 H          -5.7727   -7.4215    0.1247 H       1  LIG1        0.0618
     27 H          -6.0872   -3.3442   -1.1782 H       1  LIG1        0.0624
     28 H          -3.6959   -6.8577    1.3548 H       1  LIG1        0.0618
@<TRIPOS>BOND
     1     6     5    1
     2     7     1    1
     3    27    18    1
     4    22    19    1
     5     5     1   ar
     6     5     4   ar
     7     1     2   ar
     8    18    19   ar
     9    18    20   ar
    10    19    21   ar
    11     4    10    1
    12     4     3   ar
    13    10    14   ar
    14    10    11   ar
    15    15    14    1
    16    14    13   ar
    17    16    11    1
    18    11    12   ar
    19    13    12   ar
    20    13    20    1
    21    12    17    1
    22    20    23   ar
    23    21    26    1
    24    21    24   ar
    25     2     8    1
    26     2     3   ar
    27     3     9    1
    28    23    24   ar
    29    23    25    1
    30    24    28    1
