@<TRIPOS>MOLECULE
mol_data/opt/m06hf/geoms/mol2/1313-124.out
 35 38 0 0 0
SMALL
GASTEIGER

@<TRIPOS>ATOM
      1 C           1.2243   -0.1625   -0.6410 C.ar    1  LIG1        0.0022
      2 C           0.9407    1.0395   -0.0381 C.ar    1  LIG1       -0.0438
      3 C          -0.4149    0.9859    0.3907 C.ar    1  LIG1       -0.0350
      4 C          -0.9087   -0.2494    0.0278 C.ar    1  LIG1        0.0629
      5 N           0.0982   -0.9303   -0.5950 N.ar    1  LIG1       -0.3595
      6 H          -0.0165   -1.8427   -1.0060 H       1  LIG1        0.1654
      7 H           2.1297   -0.5245   -1.0959 H       1  LIG1        0.0807
      8 H           1.6288    1.8573    0.0921 H       1  LIG1        0.0633
      9 H          -0.9573    1.7400    0.9368 H       1  LIG1        0.0639
     10 C          -2.2323   -0.8478    0.2041 C.ar    1  LIG1        0.0634
     11 C          -2.6192   -2.1373    0.5116 C.ar    1  LIG1       -0.0343
     12 C          -4.0380   -2.1577    0.5416 C.ar    1  LIG1       -0.0328
     13 C          -4.4691   -0.8788    0.2577 C.ar    1  LIG1        0.0826
     14 N          -3.3643   -0.1006    0.0549 N.ar    1  LIG1       -0.3506
     15 H          -3.3662    0.8534   -0.2703 H       1  LIG1        0.1660
     16 H          -1.9528   -2.9546    0.7314 H       1  LIG1        0.0639
     17 H          -4.6804   -2.9916    0.7671 H       1  LIG1        0.0640
     18 C          -5.8173   -0.3387    0.1749 C.ar    1  LIG1        0.1518
     19 C          -6.3219    0.9265    0.1734 C.ar    1  LIG1       -0.0138
     20 C          -7.7450    0.7832    0.0685 C.ar    1  LIG1       -0.0152
     21 C          -7.9940   -0.5545    0.0198 C.ar    1  LIG1        0.1358
     22 O          -6.8227   -1.2330    0.0811 O.2     1  LIG1       -0.4534
     23 H          -5.7652    1.8439    0.2636 H       1  LIG1        0.0656
     24 H          -8.4734    1.5757    0.0518 H       1  LIG1        0.0656
     25 C         -10.4597   -0.7308   -0.2718 C.ar    1  LIG1       -0.0511
     26 C         -11.6211   -1.4898   -0.3405 C.ar    1  LIG1       -0.0611
     27 C          -9.2249   -1.3537   -0.0693 C.ar    1  LIG1        0.0173
     28 C         -11.5627   -2.8762   -0.2141 C.ar    1  LIG1       -0.0617
     29 H         -12.5728   -0.9990   -0.4976 H       1  LIG1        0.0618
     30 C          -9.1674   -2.7441    0.0539 C.ar    1  LIG1       -0.0511
     31 C         -10.3331   -3.4991   -0.0189 C.ar    1  LIG1       -0.0611
     32 H          -8.2096   -3.2226    0.2081 H       1  LIG1        0.0625
     33 H         -12.4684   -3.4652   -0.2697 H       1  LIG1        0.0618
     34 H         -10.5098    0.3448   -0.3826 H       1  LIG1        0.0625
     35 H         -10.2805   -4.5756    0.0796 H       1  LIG1        0.0618
@<TRIPOS>BOND
     1     7     1    1
     2     6     5    1
     3     1     5   ar
     4     1     2   ar
     5     5     4   ar
     6    29    26    1
     7    34    25    1
     8    26    25   ar
     9    26    28   ar
    10    25    27   ar
    11    15    14    1
    12    33    28    1
    13    28    31   ar
    14    27    21    1
    15    27    30   ar
    16     2     8    1
    17     2     3   ar
    18    31    30   ar
    19    31    35    1
    20    21    20   ar
    21    21    22   ar
    22     4    10    1
    23     4     3   ar
    24    24    20    1
    25    30    32    1
    26    14    10   ar
    27    14    13   ar
    28    20    19   ar
    29    22    18   ar
    30    19    18   ar
    31    19    23    1
    32    18    13    1
    33    10    11   ar
    34    13    12   ar
    35     3     9    1
    36    11    12   ar
    37    11    16    1
    38    12    17    1
