@<TRIPOS>MOLECULE
mol_data/opt/m06hf/geoms/mol2/1313-13-.out
 26 28 0 0 0
SMALL
GASTEIGER

@<TRIPOS>ATOM
      1 C           1.1850   -0.3286    0.5280 C.ar    1  LIG1        0.0022
      2 C           0.8995    0.9496    0.1115 C.ar    1  LIG1       -0.0438
      3 C          -0.4739    0.9735   -0.2618 C.ar    1  LIG1       -0.0350
      4 C          -0.9760   -0.2939   -0.0540 C.ar    1  LIG1        0.0629
      5 N           0.0429   -1.0676    0.4240 N.ar    1  LIG1       -0.3595
      6 H          -0.0733   -2.0263    0.7104 H       1  LIG1        0.1654
      7 H           2.1005   -0.7639    0.8890 H       1  LIG1        0.0807
      8 H           1.5965    1.7691    0.0681 H       1  LIG1        0.0633
      9 H          -1.0245    1.8044   -0.6713 H       1  LIG1        0.0639
     10 C          -2.3156   -0.8473   -0.2540 C.ar    1  LIG1        0.0633
     11 C          -2.7354   -2.0780   -0.7149 C.ar    1  LIG1       -0.0343
     12 C          -4.1573   -2.0773   -0.6878 C.ar    1  LIG1       -0.0343
     13 C          -4.5594   -0.8492   -0.2121 C.ar    1  LIG1        0.0633
     14 N          -3.4302   -0.1153    0.0420 N.ar    1  LIG1       -0.3519
     15 H          -3.4107    0.7644    0.5346 H       1  LIG1        0.1660
     16 H          -2.0909   -2.8613   -1.0784 H       1  LIG1        0.0639
     17 H          -4.8220   -2.8601   -1.0124 H       1  LIG1        0.0639
     18 C          -5.8976   -0.3014    0.0246 C.ar    1  LIG1        0.0629
     19 C          -6.9978   -0.8423    0.6494 C.ar    1  LIG1       -0.0350
     20 C          -8.0387    0.1275    0.5907 C.ar    1  LIG1       -0.0438
     21 C          -7.5353    1.2258   -0.0630 C.ar    1  LIG1        0.0022
     22 N          -6.2390    0.9575   -0.3970 N.ar    1  LIG1       -0.3595
     23 H          -5.6475    1.5393   -0.9688 H       1  LIG1        0.1654
     24 H          -7.9925    2.1665   -0.3155 H       1  LIG1        0.0807
     25 H          -7.0282   -1.8144    1.1117 H       1  LIG1        0.0639
     26 H          -9.0338    0.0339    0.9911 H       1  LIG1        0.0633
@<TRIPOS>BOND
     1    16    11    1
     2    17    12    1
     3    23    22    1
     4    11    12   ar
     5    11    10   ar
     6    12    13   ar
     7     9     3    1
     8    22    21   ar
     9    22    18   ar
    10    24    21    1
    11     3     4   ar
    12     3     2   ar
    13    10     4    1
    14    10    14   ar
    15    13    18    1
    16    13    14   ar
    17    21    20   ar
    18     4     5   ar
    19    18    19   ar
    20    14    15    1
    21     8     2    1
    22     2     1   ar
    23     5     1   ar
    24     5     6    1
    25     1     7    1
    26    20    19   ar
    27    20    26    1
    28    19    25    1
