@<TRIPOS>MOLECULE
mol_data/opt/m06hf/geoms/mol2/131313-8.out
 32 35 0 0 0
SMALL
GASTEIGER

@<TRIPOS>ATOM
      1 C           1.2065   -0.0562    0.2479 C.ar    1  LIG1        0.0022
      2 C           0.6801    1.0515    0.8668 C.ar    1  LIG1       -0.0438
      3 C          -0.7372    0.9484    0.7827 C.ar    1  LIG1       -0.0350
      4 C          -1.0235   -0.2176    0.1103 C.ar    1  LIG1        0.0629
      5 N           0.1681   -0.8196   -0.2015 N.ar    1  LIG1       -0.3595
      6 H           0.2526   -1.6392   -0.7812 H       1  LIG1        0.1654
      7 H           2.2276   -0.3580    0.0916 H       1  LIG1        0.0807
      8 H           1.2450    1.8388    1.3356 H       1  LIG1        0.0633
      9 H          -1.4721    1.6250    1.1848 H       1  LIG1        0.0639
     10 C          -2.3064   -0.8186   -0.2624 C.ar    1  LIG1        0.0633
     11 C          -3.4288   -0.2622   -0.8361 C.ar    1  LIG1       -0.0343
     12 C          -4.3930   -1.2967   -0.9733 C.ar    1  LIG1       -0.0343
     13 C          -3.8253   -2.4529   -0.4799 C.ar    1  LIG1        0.0634
     14 N          -2.5612   -2.1484   -0.0588 N.ar    1  LIG1       -0.3519
     15 H          -1.9756   -2.7687    0.4798 H       1  LIG1        0.1660
     16 H          -3.5175    0.7642   -1.1493 H       1  LIG1        0.0639
     17 H          -5.3680   -1.2223   -1.4265 H       1  LIG1        0.0639
     18 C          -4.3545   -3.8100   -0.3687 C.ar    1  LIG1        0.0634
     19 C          -3.7275   -5.0435   -0.4913 C.ar    1  LIG1       -0.0343
     20 C          -4.7109   -6.0382   -0.2935 C.ar    1  LIG1       -0.0326
     21 C          -5.9030   -5.3788   -0.0618 C.ar    1  LIG1        0.0880
     22 N          -5.6653   -4.0357   -0.1086 N.ar    1  LIG1       -0.3505
     23 H          -6.3670   -3.3323    0.0786 H       1  LIG1        0.1660
     24 H          -2.6897   -5.1957   -0.7366 H       1  LIG1        0.0639
     25 H          -4.5894   -7.1078   -0.3254 H       1  LIG1        0.0640
     26 C          -7.2404   -5.8806    0.1999 C.ar    1  LIG1        0.2193
     27 N          -8.2079   -4.9778    0.3904 N.ar    1  LIG1       -0.1243
     28 C          -9.5960   -6.7248    0.6507 C.ar    1  LIG1        0.1605
     29 N          -7.4329   -7.2068    0.2353 N.ar    1  LIG1       -0.1243
     30 N          -9.4120   -5.4096    0.6210 N.ar    1  LIG1       -0.1338
     31 N          -8.6352   -7.6312    0.4649 N.ar    1  LIG1       -0.1338
     32 H         -10.5944   -7.0875    0.8409 H       1  LIG1        0.1085
@<TRIPOS>BOND
     1    17    12    1
     2    16    11    1
     3    12    11   ar
     4    12    13   ar
     5    11    10   ar
     6     6     5    1
     7    24    19    1
     8    19    18   ar
     9    19    20   ar
    10    13    18    1
    11    13    14   ar
    12    18    22   ar
    13    25    20    1
    14    20    21   ar
    15    10    14   ar
    16    10     4    1
    17     5     4   ar
    18     5     1   ar
    19    22    21   ar
    20    22    23    1
    21    21    26    1
    22    14    15    1
    23     7     1    1
    24     4     3   ar
    25    26    29   ar
    26    26    27   ar
    27    29    31   ar
    28     1     2   ar
    29    27    30   ar
    30    31    28   ar
    31    30    28   ar
    32    28    32    1
    33     3     2   ar
    34     3     9    1
    35     2     8    1
