@<TRIPOS>MOLECULE
mol_data/opt/m06hf/geoms/mol2/131312-5.out
 32 35 0 0 0
SMALL
GASTEIGER

@<TRIPOS>ATOM
      1 C           1.2828   -0.0847   -0.2108 C.ar    1  LIG1        0.0022
      2 C           0.8907    0.9745    0.5718 C.ar    1  LIG1       -0.0438
      3 C          -0.5219    0.8873    0.7221 C.ar    1  LIG1       -0.0350
      4 C          -0.9411   -0.2205    0.0220 C.ar    1  LIG1        0.0629
      5 N           0.1687   -0.8041   -0.5328 N.ar    1  LIG1       -0.3595
      6 H           0.1363   -1.5781   -1.1768 H       1  LIG1        0.1654
      7 H           2.2565   -0.3786   -0.5620 H       1  LIG1        0.0807
      8 H           1.5423    1.7195    0.9958 H       1  LIG1        0.0633
      9 H          -1.1661    1.5365    1.2908 H       1  LIG1        0.0639
     10 C          -2.2804   -0.7842   -0.1701 C.ar    1  LIG1        0.0634
     11 C          -3.4626   -0.1922   -0.5582 C.ar    1  LIG1       -0.0343
     12 C          -4.4610   -1.2015   -0.5687 C.ar    1  LIG1       -0.0328
     13 C          -3.8526   -2.3795   -0.1911 C.ar    1  LIG1        0.0826
     14 N          -2.5316   -2.1143    0.0416 N.ar    1  LIG1       -0.3506
     15 H          -1.8768   -2.7504    0.4691 H       1  LIG1        0.1660
     16 H          -3.5741    0.8446   -0.8260 H       1  LIG1        0.0639
     17 H          -5.4982   -1.1008   -0.8391 H       1  LIG1        0.0640
     18 C          -4.4100   -3.7147   -0.0419 C.ar    1  LIG1        0.1518
     19 C          -3.8610   -4.9524    0.1102 C.ar    1  LIG1       -0.0138
     20 C          -4.9629   -5.8661    0.2066 C.ar    1  LIG1       -0.0147
     21 C          -6.0895   -5.1109    0.0977 C.ar    1  LIG1        0.1423
     22 O          -5.7567   -3.8077   -0.0499 O.2     1  LIG1       -0.4528
     23 H          -2.8125   -5.1962    0.1319 H       1  LIG1        0.0656
     24 H          -4.9170   -6.9345    0.3356 H       1  LIG1        0.0656
     25 C          -7.5145   -5.4168    0.1070 C.ar    1  LIG1        0.0544
     26 C          -8.5457   -4.5253    0.0487 C.ar    1  LIG1       -0.0440
     27 C          -9.8264   -5.1683    0.0715 C.ar    1  LIG1       -0.0540
     28 C          -9.7288   -6.5215    0.1463 C.ar    1  LIG1       -0.0236
     29 S          -8.0864   -7.0466    0.1883 S.2     1  LIG1       -0.0936
     30 H         -10.5243   -7.2477    0.1806 H       1  LIG1        0.0693
     31 H          -8.3911   -3.4583   -0.0064 H       1  LIG1        0.0630
     32 H         -10.7664   -4.6391    0.0349 H       1  LIG1        0.0623
@<TRIPOS>BOND
     1     6     5    1
     2    17    12    1
     3    16    11    1
     4    12    11   ar
     5    12    13   ar
     6     7     1    1
     7    11    10   ar
     8     5     1   ar
     9     5     4   ar
    10     1     2   ar
    11    13    18    1
    12    13    14   ar
    13    10     4    1
    14    10    14   ar
    15    22    18   ar
    16    22    21   ar
    17    18    19   ar
    18    31    26    1
    19     4     3   ar
    20    32    27    1
    21    14    15    1
    22    26    27   ar
    23    26    25   ar
    24    27    28   ar
    25    21    25    1
    26    21    20   ar
    27    25    29   ar
    28    19    23    1
    29    19    20   ar
    30    28    30    1
    31    28    29   ar
    32    20    24    1
    33     2     3   ar
    34     2     8    1
    35     3     9    1
