@<TRIPOS>MOLECULE
mol_data/opt/m06hf/geoms/mol2/13135-.out
 25 27 0 0 0
SMALL
GASTEIGER

@<TRIPOS>ATOM
      1 C           1.2256   -0.0751   -0.1227 C.ar    1  LIG1        0.0022
      2 C           0.7964    1.0277    0.5751 C.ar    1  LIG1       -0.0438
      3 C          -0.6204    0.9345    0.6815 C.ar    1  LIG1       -0.0350
      4 C          -1.0045   -0.2206    0.0404 C.ar    1  LIG1        0.0629
      5 N           0.1296   -0.8258   -0.4365 N.ar    1  LIG1       -0.3595
      6 H           0.1259   -1.6381   -1.0325 H       1  LIG1        0.1654
      7 H           2.2136   -0.3808   -0.4194 H       1  LIG1        0.0807
      8 H           1.4256    1.8055    0.9735 H       1  LIG1        0.0633
      9 H          -1.2895    1.6113    1.1853 H       1  LIG1        0.0639
     10 C          -2.3289   -0.8133   -0.1648 C.ar    1  LIG1        0.0633
     11 C          -3.5108   -0.2565   -0.6013 C.ar    1  LIG1       -0.0344
     12 C          -4.4893   -1.2865   -0.6064 C.ar    1  LIG1       -0.0353
     13 C          -3.8716   -2.4424   -0.1766 C.ar    1  LIG1        0.0536
     14 N          -2.5624   -2.1402    0.0818 N.ar    1  LIG1       -0.3526
     15 H          -1.9225   -2.7533    0.5631 H       1  LIG1        0.1660
     16 H          -3.6327    0.7677   -0.9109 H       1  LIG1        0.0639
     17 H          -5.5160   -1.2107   -0.9240 H       1  LIG1        0.0639
     18 C          -4.3828   -3.8005    0.0113 C.ar    1  LIG1        0.0355
     19 C          -3.7199   -4.9834   -0.1566 C.ar    1  LIG1       -0.0455
     20 C          -4.5398   -6.1232    0.1320 C.ar    1  LIG1       -0.0541
     21 C          -5.8009   -5.7741    0.5010 C.ar    1  LIG1       -0.0237
     22 S          -6.0102   -4.0651    0.5279 S.2     1  LIG1       -0.0952
     23 H          -6.6217   -6.4230    0.7587 H       1  LIG1        0.0693
     24 H          -2.6993   -5.0441   -0.5069 H       1  LIG1        0.0629
     25 H          -4.2018   -7.1454    0.0508 H       1  LIG1        0.0623
@<TRIPOS>BOND
     1     6     5    1
     2    17    12    1
     3    16    11    1
     4    12    11   ar
     5    12    13   ar
     6    11    10   ar
     7    24    19    1
     8     5     1   ar
     9     5     4   ar
    10     7     1    1
    11    13    18    1
    12    13    14   ar
    13    10     4    1
    14    10    14   ar
    15    19    18   ar
    16    19    20   ar
    17     1     2   ar
    18    18    22   ar
    19     4     3   ar
    20    25    20    1
    21    14    15    1
    22    20    21   ar
    23    21    22   ar
    24    21    23    1
    25     2     3   ar
    26     2     8    1
    27     3     9    1
