@<TRIPOS>MOLECULE
mol_data/opt/m06hf/geoms/mol2/13138-5-.out
 31 34 0 0 0
SMALL
GASTEIGER

@<TRIPOS>ATOM
      1 C           1.1947   -0.1030   -0.3412 C.ar    1  LIG1        0.0022
      2 C           0.8596    0.9472    0.4793 C.ar    1  LIG1       -0.0438
      3 C          -0.5401    0.8642    0.7209 C.ar    1  LIG1       -0.0350
      4 C          -1.0081   -0.2339    0.0359 C.ar    1  LIG1        0.0629
      5 N           0.0592   -0.8146   -0.5988 N.ar    1  LIG1       -0.3595
      6 H          -0.0159   -1.5798   -1.2503 H       1  LIG1        0.1654
      7 H           2.1420   -0.3952   -0.7593 H       1  LIG1        0.0807
      8 H           1.5411    1.6833    0.8700 H       1  LIG1        0.0633
      9 H          -1.1401    1.5079    1.3418 H       1  LIG1        0.0639
     10 C          -2.3584   -0.7883   -0.0719 C.ar    1  LIG1        0.0634
     11 C          -3.5776   -0.1579   -0.2627 C.ar    1  LIG1       -0.0343
     12 C          -4.5728   -1.1610   -0.2998 C.ar    1  LIG1       -0.0326
     13 C          -3.9266   -2.3709   -0.1359 C.ar    1  LIG1        0.0880
     14 N          -2.5895   -2.1271    0.0005 N.ar    1  LIG1       -0.3505
     15 H          -1.9142   -2.8445    0.2248 H       1  LIG1        0.1660
     16 H          -3.7090    0.9035   -0.3865 H       1  LIG1        0.0639
     17 H          -5.6333   -1.0407   -0.4418 H       1  LIG1        0.0640
     18 C          -4.4324   -3.7309   -0.0873 C.ar    1  LIG1        0.2194
     19 N          -3.5438   -4.7112    0.1120 N.ar    1  LIG1       -0.1237
     20 C          -5.2817   -6.1401    0.0016 C.ar    1  LIG1        0.2099
     21 N          -5.7473   -3.9389   -0.2432 N.ar    1  LIG1       -0.1237
     22 N          -3.9720   -5.9334    0.1570 N.ar    1  LIG1       -0.1246
     23 N          -6.1710   -5.1588   -0.1978 N.ar    1  LIG1       -0.1246
     24 C          -5.7776   -7.5162    0.0495 C.ar    1  LIG1        0.0598
     25 C          -5.0413   -8.6441    0.2763 C.ar    1  LIG1       -0.0438
     26 C          -5.8461   -9.8237    0.2526 C.ar    1  LIG1       -0.0540
     27 C          -7.1580   -9.5462    0.0078 C.ar    1  LIG1       -0.0236
     28 S          -7.4478   -7.8665   -0.1977 S.2     1  LIG1       -0.0934
     29 H          -7.9777  -10.2432   -0.0649 H       1  LIG1        0.0693
     30 H          -3.9759   -8.6182    0.4509 H       1  LIG1        0.0630
     31 H          -5.4622  -10.8200    0.4105 H       1  LIG1        0.0623
@<TRIPOS>BOND
     1     6     5    1
     2     7     1    1
     3     5     1   ar
     4     5     4   ar
     5    17    12    1
     6    16    11    1
     7     1     2   ar
     8    12    11   ar
     9    12    13   ar
    10    11    10   ar
    11    21    23   ar
    12    21    18   ar
    13    23    20   ar
    14    28    27   ar
    15    28    24   ar
    16    13    18    1
    17    13    14   ar
    18    18    19   ar
    19    10    14   ar
    20    10     4    1
    21    29    27    1
    22    14    15    1
    23    20    24    1
    24    20    22   ar
    25    27    26   ar
    26     4     3   ar
    27    24    25   ar
    28    19    22   ar
    29    26    25   ar
    30    26    31    1
    31    25    30    1
    32     2     3   ar
    33     2     8    1
    34     3     9    1
