@<TRIPOS>MOLECULE
mol_data/opt/m06hf/geoms/mol2/1313-813.out
 32 35 0 0 0
SMALL
GASTEIGER

@<TRIPOS>ATOM
      1 C           1.1872   -0.1960   -0.4603 C.ar    1  LIG1        0.0022
      2 C           0.8730    0.9652    0.2045 C.ar    1  LIG1       -0.0438
      3 C          -0.5081    0.8983    0.5384 C.ar    1  LIG1       -0.0350
      4 C          -0.9854   -0.3030    0.0590 C.ar    1  LIG1        0.0629
      5 N           0.0559   -0.9529   -0.5410 N.ar    1  LIG1       -0.3595
      6 H          -0.0327   -1.8343   -1.0205 H       1  LIG1        0.1654
      7 H           2.1170   -0.5369   -0.8814 H       1  LIG1        0.0807
      8 H           1.5549    1.7661    0.4338 H       1  LIG1        0.0633
      9 H          -1.0799    1.6215    1.0965 H       1  LIG1        0.0639
     10 C          -2.3187   -0.8992    0.1153 C.ar    1  LIG1        0.0634
     11 C          -2.7192   -2.2215    0.2498 C.ar    1  LIG1       -0.0343
     12 C          -4.1327   -2.2367    0.2500 C.ar    1  LIG1       -0.0326
     13 C          -4.5452   -0.9250    0.1210 C.ar    1  LIG1        0.0880
     14 N          -3.4361   -0.1343    0.0370 N.ar    1  LIG1       -0.3505
     15 H          -3.4656    0.8649   -0.1114 H       1  LIG1        0.1660
     16 H          -2.0604   -3.0646    0.3761 H       1  LIG1        0.0639
     17 H          -4.7880   -3.0855    0.3458 H       1  LIG1        0.0640
     18 C          -5.8743   -0.3392    0.0644 C.ar    1  LIG1        0.2194
     19 N          -5.9556    0.9913   -0.0710 N.ar    1  LIG1       -0.1237
     20 C          -8.1921    0.7364   -0.0313 C.ar    1  LIG1        0.2194
     21 N          -6.9398   -1.1435    0.1481 N.ar    1  LIG1       -0.1237
     22 N          -7.1262    1.5401   -0.1196 N.ar    1  LIG1       -0.1237
     23 N          -8.1105   -0.5941    0.0997 N.ar    1  LIG1       -0.1237
     24 C          -9.5222    1.3231   -0.0779 C.ar    1  LIG1        0.0875
     25 C          -9.9376    2.6332   -0.2036 C.ar    1  LIG1       -0.0333
     26 C         -11.3534    2.6146   -0.1855 C.ar    1  LIG1       -0.0437
     27 C         -11.7444    1.2970   -0.0487 C.ar    1  LIG1        0.0023
     28 N         -10.6288    0.5292    0.0152 N.ar    1  LIG1       -0.3582
     29 H         -10.5764   -0.4741    0.1172 H       1  LIG1        0.1654
     30 H         -12.7269    0.8607    0.0072 H       1  LIG1        0.0807
     31 H          -9.2847    3.4841   -0.2961 H       1  LIG1        0.0640
     32 H         -12.0125    3.4621   -0.2625 H       1  LIG1        0.0633
@<TRIPOS>BOND
     1     6     5    1
     2     7     1    1
     3     5     1   ar
     4     5     4   ar
     5     1     2   ar
     6    31    25    1
     7    32    26    1
     8    25    26   ar
     9    25    24   ar
    10    26    27   ar
    11    22    19   ar
    12    22    20   ar
    13    15    14    1
    14    24    20    1
    15    24    28   ar
    16    19    18   ar
    17    27    30    1
    18    27    28   ar
    19    20    23   ar
    20    28    29    1
    21    14    10   ar
    22    14    13   ar
    23     4    10    1
    24     4     3   ar
    25    18    13    1
    26    18    21   ar
    27    23    21   ar
    28    10    11   ar
    29    13    12   ar
    30     2     8    1
    31     2     3   ar
    32    11    12   ar
    33    11    16    1
    34    12    17    1
    35     3     9    1
