@<TRIPOS>MOLECULE
mol_data/opt/m06hf/geoms/mol2/1313-5.out
 25 27 0 0 0
SMALL
GASTEIGER

@<TRIPOS>ATOM
      1 C           1.1997   -0.2987   -0.5075 C.ar    1  LIG1        0.0022
      2 C           0.9210    0.9444    0.0076 C.ar    1  LIG1       -0.0438
      3 C          -0.4558    0.9518    0.3688 C.ar    1  LIG1       -0.0350
      4 C          -0.9664   -0.2898    0.0543 C.ar    1  LIG1        0.0629
      5 N           0.0505   -1.0328   -0.4745 N.ar    1  LIG1       -0.3595
      6 H          -0.0710   -1.9645   -0.8377 H       1  LIG1        0.1654
      7 H           2.1149   -0.7118   -0.8937 H       1  LIG1        0.0807
      8 H           1.6247    1.7510    0.1236 H       1  LIG1        0.0633
      9 H          -1.0030    1.7522    0.8395 H       1  LIG1        0.0639
     10 C          -2.3113   -0.8466    0.2007 C.ar    1  LIG1        0.0633
     11 C          -2.7408   -2.1090    0.5595 C.ar    1  LIG1       -0.0344
     12 C          -4.1601   -2.0979    0.5234 C.ar    1  LIG1       -0.0353
     13 C          -4.5513   -0.8287    0.1495 C.ar    1  LIG1        0.0536
     14 N          -3.4183   -0.0879   -0.0425 N.ar    1  LIG1       -0.3526
     15 H          -3.3953    0.8415   -0.4329 H       1  LIG1        0.1660
     16 H          -2.1035   -2.9237    0.8610 H       1  LIG1        0.0639
     17 H          -4.8271   -2.9037    0.7808 H       1  LIG1        0.0639
     18 C          -5.8796   -0.2434   -0.0385 C.ar    1  LIG1        0.0355
     19 C          -6.2889    1.0288    0.2442 C.ar    1  LIG1       -0.0455
     20 C          -7.6676    1.2497   -0.0793 C.ar    1  LIG1       -0.0541
     21 C          -8.2647    0.1389   -0.5887 C.ar    1  LIG1       -0.0237
     22 S          -7.1651   -1.1798   -0.7094 S.2     1  LIG1       -0.0952
     23 H          -9.2888    0.0198   -0.9021 H       1  LIG1        0.0693
     24 H          -5.6454    1.7678    0.6998 H       1  LIG1        0.0629
     25 H          -8.1814    2.1858    0.0783 H       1  LIG1        0.0623
@<TRIPOS>BOND
     1    23    21    1
     2     7     1    1
     3     6     5    1
     4    22    21   ar
     5    22    18   ar
     6    21    20   ar
     7     1     5   ar
     8     1     2   ar
     9     5     4   ar
    10    15    14    1
    11    20    25    1
    12    20    19   ar
    13    14    13   ar
    14    14    10   ar
    15    18    13    1
    16    18    19   ar
    17     2     8    1
    18     2     3   ar
    19     4    10    1
    20     4     3   ar
    21    13    12   ar
    22    10    11   ar
    23    19    24    1
    24     3     9    1
    25    12    11   ar
    26    12    17    1
    27    11    16    1
