@<TRIPOS>MOLECULE
mol_data/opt/m06hf/geoms/mol2/131355-.out
 32 35 0 0 0
SMALL
GASTEIGER

@<TRIPOS>ATOM
      1 C           1.2188    0.0373   -0.1853 C.ar    1  LIG1        0.0022
      2 C           0.7844    1.1593    0.4781 C.ar    1  LIG1       -0.0438
      3 C          -0.6315    1.0628    0.5882 C.ar    1  LIG1       -0.0350
      4 C          -1.0098   -0.1135   -0.0170 C.ar    1  LIG1        0.0629
      5 N           0.1267   -0.7278   -0.4760 N.ar    1  LIG1       -0.3595
      6 H           0.1286   -1.5628   -1.0395 H       1  LIG1        0.1654
      7 H           2.2086   -0.2711   -0.4734 H       1  LIG1        0.0807
      8 H           1.4105    1.9517    0.8513 H       1  LIG1        0.0633
      9 H          -1.3034    1.7516    1.0715 H       1  LIG1        0.0639
     10 C          -2.3324   -0.7155   -0.2018 C.ar    1  LIG1        0.0633
     11 C          -3.5222   -0.1667   -0.6272 C.ar    1  LIG1       -0.0344
     12 C          -4.4951   -1.2019   -0.6188 C.ar    1  LIG1       -0.0353
     13 C          -3.8680   -2.3514   -0.1870 C.ar    1  LIG1        0.0536
     14 N          -2.5554   -2.0425    0.0530 N.ar    1  LIG1       -0.3526
     15 H          -1.9006   -2.6508    0.5211 H       1  LIG1        0.1660
     16 H          -3.6512    0.8552   -0.9418 H       1  LIG1        0.0639
     17 H          -5.5236   -1.1389   -0.9318 H       1  LIG1        0.0639
     18 C          -4.3924   -3.7032    0.0036 C.ar    1  LIG1        0.0361
     19 C          -5.6269   -4.0645    0.4578 C.ar    1  LIG1       -0.0449
     20 C          -5.8070   -5.4831    0.5047 C.ar    1  LIG1       -0.0458
     21 C          -4.7034   -6.1743    0.0945 C.ar    1  LIG1        0.0265
     22 S          -3.4417   -5.0950   -0.4016 S.2     1  LIG1       -0.0863
     23 H          -6.3638   -3.3435    0.7784 H       1  LIG1        0.0630
     24 H          -6.7024   -5.9695    0.8643 H       1  LIG1        0.0629
     25 C          -4.5149   -7.6263    0.0178 C.ar    1  LIG1        0.0259
     26 C          -3.3735   -8.3469    0.2250 C.ar    1  LIG1       -0.0464
     27 C          -3.5723   -9.7555    0.0583 C.ar    1  LIG1       -0.0541
     28 C          -4.8562  -10.0638   -0.2686 C.ar    1  LIG1       -0.0237
     29 S          -5.8386   -8.6566   -0.3990 S.2     1  LIG1       -0.0961
     30 H          -5.2811  -11.0383   -0.4455 H       1  LIG1        0.0693
     31 H          -2.4349   -7.8935    0.5093 H       1  LIG1        0.0629
     32 H          -2.7955  -10.4938    0.1877 H       1  LIG1        0.0623
@<TRIPOS>BOND
     1     6     5    1
     2    16    11    1
     3    17    12    1
     4    11    12   ar
     5    11    10   ar
     6    12    13   ar
     7     5     1   ar
     8     5     4   ar
     9     7     1    1
    10    30    28    1
    11    22    18   ar
    12    22    21   ar
    13    29    28   ar
    14    29    25   ar
    15    28    27   ar
    16    10     4    1
    17    10    14   ar
    18    13    18    1
    19    13    14   ar
    20     1     2   ar
    21     4     3   ar
    22    18    19   ar
    23    25    21    1
    24    25    26   ar
    25    14    15    1
    26    27    32    1
    27    27    26   ar
    28    21    20   ar
    29    26    31    1
    30    19    20   ar
    31    19    23    1
    32     2     3   ar
    33     2     8    1
    34    20    24    1
    35     3     9    1
