@<TRIPOS>MOLECULE
mol_data/opt/m06hf/geoms/mol2/1313-12-13-.out
 33 36 0 0 0
SMALL
GASTEIGER

@<TRIPOS>ATOM
      1 C           1.2852   -0.3509   -0.0010 C.ar    1  LIG1        0.0022
      2 C           0.8866    0.9631    0.0025 C.ar    1  LIG1       -0.0438
      3 C          -0.5354    0.9702    0.0035 C.ar    1  LIG1       -0.0350
      4 C          -0.9547   -0.3446    0.0006 C.ar    1  LIG1        0.0629
      5 N           0.1638   -1.1282   -0.0022 N.ar    1  LIG1       -0.3595
      6 H           0.1534   -2.1345   -0.0049 H       1  LIG1        0.1654
      7 H           2.2678   -0.7894   -0.0028 H       1  LIG1        0.0807
      8 H           1.5370    1.8210    0.0043 H       1  LIG1        0.0633
      9 H          -1.1693    1.8413    0.0064 H       1  LIG1        0.0639
     10 C          -2.2937   -0.9299    0.0001 C.ar    1  LIG1        0.0634
     11 C          -2.7180   -2.2462    0.0004 C.ar    1  LIG1       -0.0343
     12 C          -4.1355   -2.2386   -0.0002 C.ar    1  LIG1       -0.0328
     13 C          -4.5338   -0.9182   -0.0007 C.ar    1  LIG1        0.0826
     14 N          -3.4081   -0.1454   -0.0006 N.ar    1  LIG1       -0.3506
     15 H          -3.4151    0.8616   -0.0012 H       1  LIG1        0.1660
     16 H          -2.0879   -3.1200    0.0012 H       1  LIG1        0.0639
     17 H          -4.7901   -3.0937   -0.0001 H       1  LIG1        0.0640
     18 C          -5.8561   -0.3126   -0.0011 C.ar    1  LIG1        0.1518
     19 C          -7.1183   -0.8150   -0.0007 C.ar    1  LIG1       -0.0137
     20 C          -8.0021    0.3167   -0.0013 C.ar    1  LIG1       -0.0137
     21 C          -7.2095    1.4199   -0.0019 C.ar    1  LIG1        0.1518
     22 O          -5.9017    1.0466   -0.0018 O.2     1  LIG1       -0.4519
     23 H          -7.3880   -1.8571   -0.0001 H       1  LIG1        0.0656
     24 H          -9.0780    0.3077   -0.0013 H       1  LIG1        0.0656
     25 C          -7.4802    2.8501   -0.0025 C.ar    1  LIG1        0.0821
     26 C          -8.6677    3.5515   -0.0011 C.ar    1  LIG1       -0.0334
     27 C          -8.3358    4.9333   -0.0024 C.ar    1  LIG1       -0.0437
     28 C          -6.9635    5.0239   -0.0050 C.ar    1  LIG1        0.0023
     29 N          -6.4599    3.7579   -0.0048 N.ar    1  LIG1       -0.3583
     30 H          -5.4850    3.5057   -0.0064 H       1  LIG1        0.1654
     31 H          -6.3143    5.8819   -0.0067 H       1  LIG1        0.0807
     32 H          -9.6534    3.1179    0.0010 H       1  LIG1        0.0640
     33 H          -9.0227    5.7619   -0.0016 H       1  LIG1        0.0633
@<TRIPOS>BOND
     1    31    28    1
     2    30    29    1
     3    28    29   ar
     4    28    27   ar
     5     6     5    1
     6    29    25   ar
     7     7     1    1
     8    25    21    1
     9    25    26   ar
    10    27    33    1
    11    27    26   ar
    12     5     1   ar
    13     5     4   ar
    14    21    22   ar
    15    21    20   ar
    16    22    18   ar
    17    20    24    1
    18    20    19   ar
    19    15    14    1
    20    18    19   ar
    21    18    13    1
    22    26    32    1
    23     1     2   ar
    24    19    23    1
    25    13    14   ar
    26    13    12   ar
    27    14    10   ar
    28    12    17    1
    29    12    11   ar
    30    10    11   ar
    31    10     4    1
    32    11    16    1
    33     4     3   ar
    34     2     3   ar
    35     2     8    1
    36     3     9    1
