@<TRIPOS>MOLECULE
mol_data/opt/m06hf/geoms/mol2/131313-.out
 26 28 0 0 0
SMALL
GASTEIGER

@<TRIPOS>ATOM
      1 C           1.2108   -0.0973    0.1662 C.ar    1  LIG1        0.0022
      2 C           0.7896    1.0117   -0.5262 C.ar    1  LIG1       -0.0438
      3 C          -0.6277    0.9281   -0.6351 C.ar    1  LIG1       -0.0350
      4 C          -1.0202   -0.2279   -0.0003 C.ar    1  LIG1        0.0629
      5 N           0.1092   -0.8421    0.4756 N.ar    1  LIG1       -0.3595
      6 H           0.0997   -1.6597    1.0644 H       1  LIG1        0.1654
      7 H           2.1967   -0.4114    0.4615 H       1  LIG1        0.0807
      8 H           1.4242    1.7874   -0.9198 H       1  LIG1        0.0633
      9 H          -1.2916    1.6119   -1.1362 H       1  LIG1        0.0639
     10 C          -2.3490   -0.8120    0.2001 C.ar    1  LIG1        0.0633
     11 C          -3.5308   -0.2445    0.6213 C.ar    1  LIG1       -0.0343
     12 C          -4.5148   -1.2713    0.6336 C.ar    1  LIG1       -0.0343
     13 C          -3.8995   -2.4342    0.2188 C.ar    1  LIG1        0.0633
     14 N          -2.5901   -2.1403   -0.0357 N.ar    1  LIG1       -0.3519
     15 H          -1.9504   -2.7722   -0.4924 H       1  LIG1        0.1660
     16 H          -3.6486    0.7834    0.9207 H       1  LIG1        0.0639
     17 H          -5.5389   -1.1886    0.9583 H       1  LIG1        0.0639
     18 C          -4.4183   -3.7889    0.0276 C.ar    1  LIG1        0.0629
     19 C          -3.8578   -5.0230    0.2814 C.ar    1  LIG1       -0.0350
     20 C          -4.8104   -6.0069   -0.1068 C.ar    1  LIG1       -0.0438
     21 C          -5.9153   -5.3389   -0.5777 C.ar    1  LIG1        0.0022
     22 N          -5.6635   -4.0008   -0.4920 N.ar    1  LIG1       -0.3595
     23 H          -6.2649   -3.2605   -0.8158 H       1  LIG1        0.1654
     24 H          -6.8490   -5.7073   -0.9656 H       1  LIG1        0.0807
     25 H          -2.8925   -5.1905    0.7300 H       1  LIG1        0.0639
     26 H          -4.7019   -7.0758   -0.0374 H       1  LIG1        0.0633
@<TRIPOS>BOND
     1     9     3    1
     2    24    21    1
     3     8     2    1
     4    23    22    1
     5     3     2   ar
     6     3     4   ar
     7    21    22   ar
     8    21    20   ar
     9     2     1   ar
    10    15    14    1
    11    22    18   ar
    12    20    26    1
    13    20    19   ar
    14    14    10   ar
    15    14    13   ar
    16     4    10    1
    17     4     5   ar
    18    18    13    1
    19    18    19   ar
    20     1     7    1
    21     1     5   ar
    22    10    11   ar
    23    13    12   ar
    24    19    25    1
    25     5     6    1
    26    11    12   ar
    27    11    16    1
    28    12    17    1
