@<TRIPOS>MOLECULE
mol_data/opt/m06hf/geoms/mol2/1313-.out
 18 19 0 0 0
SMALL
GASTEIGER

@<TRIPOS>ATOM
      1 C           1.1893   -0.2818   -0.0006 C.ar    1  LIG1        0.0022
      2 C           0.7884    1.0311    0.0010 C.ar    1  LIG1       -0.0438
      3 C          -0.6347    1.0353    0.0011 C.ar    1  LIG1       -0.0350
      4 C          -1.0520   -0.2798    0.0001 C.ar    1  LIG1        0.0629
      5 N           0.0684   -1.0611   -0.0009 N.ar    1  LIG1       -0.3595
      6 H           0.0584   -2.0674   -0.0021 H       1  LIG1        0.1654
      7 H           2.1721   -0.7197   -0.0013 H       1  LIG1        0.0807
      8 H           1.4373    1.8904    0.0018 H       1  LIG1        0.0633
      9 H          -1.2704    1.9059    0.0023 H       1  LIG1        0.0639
     10 C          -2.3899   -0.8724   -0.0000 C.ar    1  LIG1        0.0629
     11 C          -2.8072   -2.1875    0.0008 C.ar    1  LIG1       -0.0350
     12 C          -4.2303   -2.1833    0.0004 C.ar    1  LIG1       -0.0438
     13 C          -4.6313   -0.8705   -0.0012 C.ar    1  LIG1        0.0022
     14 N          -3.5104   -0.0912   -0.0013 N.ar    1  LIG1       -0.3595
     15 H          -3.5003    0.9151   -0.0022 H       1  LIG1        0.1654
     16 H          -5.6140   -0.4326   -0.0021 H       1  LIG1        0.0807
     17 H          -2.1715   -3.0581    0.0020 H       1  LIG1        0.0639
     18 H          -4.8793   -3.0426    0.0010 H       1  LIG1        0.0633
@<TRIPOS>BOND
     1    15    14    1
     2    16    13    1
     3     6     5    1
     4     7     1    1
     5    14    13   ar
     6    14    10   ar
     7    13    12   ar
     8     5     1   ar
     9     5     4   ar
    10     1     2   ar
    11    10     4    1
    12    10    11   ar
    13     4     3   ar
    14    12    11   ar
    15    12    18    1
    16    11    17    1
    17     2     3   ar
    18     2     8    1
    19     3     9    1
