@<TRIPOS>MOLECULE
mol_data/opt/m06hf/geoms/mol2/1313.out
 18 19 0 0 0
SMALL
GASTEIGER

@<TRIPOS>ATOM
      1 C           1.1700   -0.2197   -0.2981 C.ar    1  LIG1        0.0022
      2 C           0.8065    0.9737    0.2761 C.ar    1  LIG1       -0.0438
      3 C          -0.6018    0.9307    0.4826 C.ar    1  LIG1       -0.0350
      4 C          -1.0473   -0.2871    0.0229 C.ar    1  LIG1        0.0629
      5 N           0.0429   -0.9764   -0.4426 N.ar    1  LIG1       -0.3595
      6 H          -0.0120   -1.8601   -0.9227 H       1  LIG1        0.1654
      7 H           2.1318   -0.5850   -0.6140 H       1  LIG1        0.0807
      8 H           1.4743    1.7794    0.5286 H       1  LIG1        0.0633
      9 H          -1.2252    1.6833    0.9348 H       1  LIG1        0.0639
     10 C          -2.3970   -0.8595   -0.0223 C.ar    1  LIG1        0.0629
     11 C          -3.5821   -0.3333   -0.4820 C.ar    1  LIG1       -0.0350
     12 C          -4.5920   -1.3157   -0.2752 C.ar    1  LIG1       -0.0438
     13 C          -3.9867   -2.4068    0.2984 C.ar    1  LIG1        0.0022
     14 N          -2.6593   -2.1225    0.4430 N.ar    1  LIG1       -0.3595
     15 H          -1.9859   -2.6972    0.9233 H       1  LIG1        0.1654
     16 H          -4.3926   -3.3522    0.6140 H       1  LIG1        0.0807
     17 H          -3.6899    0.6380   -0.9341 H       1  LIG1        0.0639
     18 H          -5.6355   -1.2356   -0.5275 H       1  LIG1        0.0633
@<TRIPOS>BOND
     1    17    11    1
     2     6     5    1
     3     7     1    1
     4    18    12    1
     5    11    12   ar
     6    11    10   ar
     7     5     1   ar
     8     5     4   ar
     9     1     2   ar
    10    12    13   ar
    11    10     4    1
    12    10    14   ar
    13     4     3   ar
    14     2     3   ar
    15     2     8    1
    16    13    14   ar
    17    13    16    1
    18    14    15    1
    19     3     9    1
