@<TRIPOS>MOLECULE
mol_data/opt/m06hf/geoms/mol2/131312-.out
 25 27 0 0 0
SMALL
GASTEIGER

@<TRIPOS>ATOM
      1 C           1.2060   -0.1293   -0.2416 C.ar    1  LIG1        0.0022
      2 C           0.8200    0.9607    0.5002 C.ar    1  LIG1       -0.0438
      3 C          -0.5922    0.8830    0.6616 C.ar    1  LIG1       -0.0350
      4 C          -1.0175   -0.2505    0.0077 C.ar    1  LIG1        0.0629
      5 N           0.0880   -0.8580   -0.5295 N.ar    1  LIG1       -0.3595
      6 H           0.0484   -1.6531   -1.1469 H       1  LIG1        0.1654
      7 H           2.1774   -0.4398   -0.5846 H       1  LIG1        0.0807
      8 H           1.4754    1.7196    0.8923 H       1  LIG1        0.0633
      9 H          -1.2313    1.5551    1.2094 H       1  LIG1        0.0639
     10 C          -2.3576   -0.8197   -0.1566 C.ar    1  LIG1        0.0634
     11 C          -3.5501   -0.2354   -0.5232 C.ar    1  LIG1       -0.0343
     12 C          -4.5435   -1.2509   -0.5114 C.ar    1  LIG1       -0.0328
     13 C          -3.9212   -2.4238   -0.1440 C.ar    1  LIG1        0.0826
     14 N          -2.5977   -2.1507    0.0627 N.ar    1  LIG1       -0.3506
     15 H          -1.9391   -2.7812    0.4928 H       1  LIG1        0.1660
     16 H          -3.6721    0.7999   -0.7934 H       1  LIG1        0.0639
     17 H          -5.5866   -1.1567   -0.7612 H       1  LIG1        0.0640
     18 C          -4.4582   -3.7676    0.0229 C.ar    1  LIG1        0.1509
     19 C          -3.8837   -5.0001    0.0894 C.ar    1  LIG1       -0.0144
     20 C          -4.9656   -5.9304    0.2729 C.ar    1  LIG1       -0.0233
     21 C          -6.0952   -5.1844    0.2931 C.ar    1  LIG1        0.0926
     22 O          -5.7972   -3.8759    0.1452 O.2     1  LIG1       -0.4615
     23 H          -7.1370   -5.4273    0.4004 H       1  LIG1        0.1029
     24 H          -2.8359   -5.2300   -0.0050 H       1  LIG1        0.0656
     25 H          -4.9003   -7.0005    0.3675 H       1  LIG1        0.0649
@<TRIPOS>BOND
     1     6     5    1
     2    16    11    1
     3    17    12    1
     4     7     1    1
     5     5     1   ar
     6     5     4   ar
     7    11    12   ar
     8    11    10   ar
     9    12    13   ar
    10     1     2   ar
    11    10     4    1
    12    10    14   ar
    13    13    18    1
    14    13    14   ar
    15    24    19    1
    16     4     3   ar
    17    18    19   ar
    18    18    22   ar
    19    14    15    1
    20    19    20   ar
    21    22    21   ar
    22    20    21   ar
    23    20    25    1
    24    21    23    1
    25     2     3   ar
    26     2     8    1
    27     3     9    1
