@<TRIPOS>MOLECULE
mol_data/opt/m06hf/geoms/mol2/13134-.out
 28 30 0 0 0
SMALL
GASTEIGER

@<TRIPOS>ATOM
      1 C           1.1187    0.0108   -0.7481 C.ar    1  LIG1        0.0022
      2 C           0.9474    0.8963    0.2879 C.ar    1  LIG1       -0.0438
      3 C          -0.3891    0.7456    0.7549 C.ar    1  LIG1       -0.0350
      4 C          -0.9867   -0.2242   -0.0164 C.ar    1  LIG1        0.0629
      5 N          -0.0548   -0.6650   -0.9209 N.ar    1  LIG1       -0.3595
      6 H          -0.2565   -1.3057   -1.6718 H       1  LIG1        0.1654
      7 H           1.9739   -0.1881   -1.3705 H       1  LIG1        0.0807
      8 H           1.6968    1.5661    0.6741 H       1  LIG1        0.0633
      9 H          -0.8633    1.2607    1.5734 H       1  LIG1        0.0639
     10 C          -2.3442   -0.7779    0.0190 C.ar    1  LIG1        0.0633
     11 C          -3.5732   -0.1559    0.0447 C.ar    1  LIG1       -0.0344
     12 C          -4.5633   -1.1743    0.0651 C.ar    1  LIG1       -0.0358
     13 C          -3.9100   -2.3897    0.0499 C.ar    1  LIG1        0.0469
     14 N          -2.5675   -2.1287    0.0260 N.ar    1  LIG1       -0.3530
     15 H          -1.8430   -2.8301    0.0244 H       1  LIG1        0.1659
     16 H          -3.7240    0.9104    0.0344 H       1  LIG1        0.0639
     17 H          -5.6318   -1.0438    0.1130 H       1  LIG1        0.0639
     18 C          -3.7738   -4.7762    0.7864 C.ar    1  LIG1       -0.0526
     19 C          -4.2709   -6.0756    0.7952 C.ar    1  LIG1       -0.0611
     20 C          -4.4342   -3.7697    0.0747 C.ar    1  LIG1       -0.0017
     21 C          -5.4425   -6.3808    0.1075 C.ar    1  LIG1       -0.0617
     22 H          -3.7513   -6.8451    1.3508 H       1  LIG1        0.0618
     23 C          -5.6088   -4.0837   -0.6159 C.ar    1  LIG1       -0.0526
     24 C          -6.1126   -5.3793   -0.5922 C.ar    1  LIG1       -0.0611
     25 H          -6.1090   -3.3098   -1.1831 H       1  LIG1        0.0624
     26 H          -5.8317   -7.3902    0.1183 H       1  LIG1        0.0618
     27 H          -2.8880   -4.5342    1.3618 H       1  LIG1        0.0624
     28 H          -7.0224   -5.6112   -1.1308 H       1  LIG1        0.0618
@<TRIPOS>BOND
     1     6     5    1
     2     7     1    1
     3    25    23    1
     4    28    24    1
     5     5     1   ar
     6     5     4   ar
     7     1     2   ar
     8    23    24   ar
     9    23    20   ar
    10    24    21   ar
    11     4    10    1
    12     4     3   ar
    13    10    14   ar
    14    10    11   ar
    15    15    14    1
    16    14    13   ar
    17    16    11    1
    18    11    12   ar
    19    13    12   ar
    20    13    20    1
    21    12    17    1
    22    20    18   ar
    23    21    26    1
    24    21    19   ar
    25     2     8    1
    26     2     3   ar
    27     3     9    1
    28    18    19   ar
    29    18    27    1
    30    19    22    1
