@<TRIPOS>MOLECULE
mol_data/opt/m06hf/geoms/mol2/1313-12.out
 25 27 0 0 0
SMALL
GASTEIGER

@<TRIPOS>ATOM
      1 C           1.1633   -0.2238   -0.4933 C.ar    1  LIG1        0.0022
      2 C           0.8650    0.9811    0.0966 C.ar    1  LIG1       -0.0438
      3 C          -0.5096    0.9408    0.4642 C.ar    1  LIG1       -0.0350
      4 C          -0.9991   -0.2894    0.0797 C.ar    1  LIG1        0.0629
      5 N           0.0282   -0.9803   -0.4979 N.ar    1  LIG1       -0.3595
      6 H          -0.0775   -1.8913   -0.9148 H       1  LIG1        0.1654
      7 H           2.0838   -0.5965   -0.9075 H       1  LIG1        0.0807
      8 H           1.5545    1.7921    0.2584 H       1  LIG1        0.0633
      9 H          -1.0684    1.7002    0.9861 H       1  LIG1        0.0639
     10 C          -2.3352   -0.8747    0.1918 C.ar    1  LIG1        0.0634
     11 C          -2.7490   -2.1633    0.4656 C.ar    1  LIG1       -0.0343
     12 C          -4.1682   -2.1692    0.4274 C.ar    1  LIG1       -0.0328
     13 C          -4.5718   -0.8833    0.1379 C.ar    1  LIG1        0.0826
     14 N          -3.4514   -0.1145   -0.0022 N.ar    1  LIG1       -0.3506
     15 H          -3.4307    0.8414   -0.3218 H       1  LIG1        0.1660
     16 H          -2.1012   -2.9897    0.7079 H       1  LIG1        0.0639
     17 H          -4.8296   -2.9987    0.6099 H       1  LIG1        0.0640
     18 C          -5.9086   -0.3245   -0.0109 C.ar    1  LIG1        0.1509
     19 C          -6.3964    0.9465    0.0014 C.ar    1  LIG1       -0.0144
     20 C          -7.8149    0.8265   -0.2059 C.ar    1  LIG1       -0.0233
     21 C          -8.0619   -0.5000   -0.3169 C.ar    1  LIG1        0.0926
     22 O          -6.9147   -1.2029   -0.2031 O.2     1  LIG1       -0.4615
     23 H          -8.9587   -1.0722   -0.4726 H       1  LIG1        0.1029
     24 H          -5.8364    1.8520    0.1628 H       1  LIG1        0.0656
     25 H          -8.5388    1.6212   -0.2551 H       1  LIG1        0.0649
@<TRIPOS>BOND
     1     6     5    1
     2     7     1    1
     3     5     1   ar
     4     5     4   ar
     5     1     2   ar
     6    23    21    1
     7    15    14    1
     8    21    20   ar
     9    21    22   ar
    10    25    20    1
    11    20    19   ar
    12    22    18   ar
    13    18    19   ar
    14    18    13    1
    15    14    13   ar
    16    14    10   ar
    17    19    24    1
    18     4    10    1
    19     4     3   ar
    20     2     8    1
    21     2     3   ar
    22    13    12   ar
    23    10    11   ar
    24    12    11   ar
    25    12    17    1
    26     3     9    1
    27    11    16    1
