@<TRIPOS>MOLECULE
mol_data/opt/m06hf/geoms/mol2/13131312.out
 33 36 0 0 0
SMALL
GASTEIGER

@<TRIPOS>ATOM
      1 C           0.9057    0.4529   -1.0370 C.ar    1  LIG1        0.0022
      2 C           0.9535    0.9854    0.2284 C.ar    1  LIG1       -0.0438
      3 C          -0.2509    0.6110    0.8890 C.ar    1  LIG1       -0.0350
      4 C          -0.9922   -0.1332    0.0008 C.ar    1  LIG1        0.0629
      5 N          -0.2718   -0.2258   -1.1628 N.ar    1  LIG1       -0.3595
      6 H          -0.6271   -0.6279   -2.0153 H       1  LIG1        0.1654
      7 H           1.6076    0.5071   -1.8509 H       1  LIG1        0.0807
      8 H           1.7622    1.5672    0.6367 H       1  LIG1        0.0633
      9 H          -0.5438    0.8334    1.9013 H       1  LIG1        0.0639
     10 C          -2.3075   -0.7666    0.1396 C.ar    1  LIG1        0.0633
     11 C          -3.5135   -0.2598    0.5712 C.ar    1  LIG1       -0.0343
     12 C          -4.4663   -1.3121    0.5053 C.ar    1  LIG1       -0.0343
     13 C          -3.8152   -2.4278    0.0262 C.ar    1  LIG1        0.0634
     14 N          -2.5077   -2.0812   -0.1890 N.ar    1  LIG1       -0.3519
     15 H          -1.7930   -2.7036   -0.5329 H       1  LIG1        0.1660
     16 H          -3.6755    0.7577    0.8836 H       1  LIG1        0.0639
     17 H          -5.5060   -1.2787    0.7846 H       1  LIG1        0.0639
     18 C          -4.3048   -3.7820   -0.2425 C.ar    1  LIG1        0.0634
     19 C          -5.4300   -4.2176   -0.9103 C.ar    1  LIG1       -0.0343
     20 C          -5.4220   -5.6366   -0.8787 C.ar    1  LIG1       -0.0328
     21 C          -4.2873   -6.0202   -0.1944 C.ar    1  LIG1        0.0826
     22 N          -3.6216   -4.8892    0.1807 N.ar    1  LIG1       -0.3506
     23 H          -2.8054   -4.8863    0.7741 H       1  LIG1        0.1660
     24 H          -6.1531   -3.5757   -1.3842 H       1  LIG1        0.0639
     25 H          -6.1475   -6.3034   -1.3128 H       1  LIG1        0.0640
     26 C          -3.7620   -7.3334    0.1544 C.ar    1  LIG1        0.1509
     27 C          -4.2022   -8.6052   -0.0332 C.ar    1  LIG1       -0.0144
     28 C          -3.2097   -9.4586    0.5660 C.ar    1  LIG1       -0.0233
     29 C          -2.2578   -8.6358    1.0640 C.ar    1  LIG1        0.0926
     30 O          -2.5816   -7.3447    0.8183 O.2     1  LIG1       -0.4615
     31 H          -1.3365   -8.8041    1.5923 H       1  LIG1        0.1029
     32 H          -5.1125   -8.8987   -0.5263 H       1  LIG1        0.0656
     33 H          -3.2155  -10.5337    0.6137 H       1  LIG1        0.0649
@<TRIPOS>BOND
     1     6     5    1
     2     7     1    1
     3    24    19    1
     4    25    20    1
     5     5     1   ar
     6     5     4   ar
     7     1     2   ar
     8    19    20   ar
     9    19    18   ar
    10    20    21   ar
    11    15    14    1
    12    32    27    1
    13    18    13    1
    14    18    22   ar
    15    21    26    1
    16    21    22   ar
    17    14    13   ar
    18    14    10   ar
    19    27    26   ar
    20    27    28   ar
    21     4    10    1
    22     4     3   ar
    23    13    12   ar
    24    10    11   ar
    25    26    30   ar
    26    22    23    1
    27     2     8    1
    28     2     3   ar
    29    12    11   ar
    30    12    17    1
    31    28    33    1
    32    28    29   ar
    33    11    16    1
    34    30    29   ar
    35     3     9    1
    36    29    31    1
