@<TRIPOS>MOLECULE
mol_data/opt/m06hf/geoms/mol2/1313-84.out
 34 37 0 0 0
SMALL
GASTEIGER

@<TRIPOS>ATOM
      1 C           1.2679   -0.2586   -0.0116 C.ar    1  LIG1        0.0022
      2 C           0.8470    1.0492    0.0052 C.ar    1  LIG1       -0.0438
      3 C          -0.5740    1.0318    0.0132 C.ar    1  LIG1       -0.0350
      4 C          -0.9696   -0.2904    0.0014 C.ar    1  LIG1        0.0629
      5 N           0.1625   -1.0558   -0.0137 N.ar    1  LIG1       -0.3595
      6 H           0.1736   -2.0624   -0.0267 H       1  LIG1        0.1654
      7 H           2.2579   -0.6801   -0.0224 H       1  LIG1        0.0807
      8 H           1.4820    1.9179    0.0111 H       1  LIG1        0.0633
      9 H          -1.2238    1.8914    0.0275 H       1  LIG1        0.0639
     10 C          -2.2979   -0.8962    0.0025 C.ar    1  LIG1        0.0634
     11 C          -2.6929   -2.2293    0.0040 C.ar    1  LIG1       -0.0343
     12 C          -4.1046   -2.2549    0.0043 C.ar    1  LIG1       -0.0326
     13 C          -4.5261   -0.9401    0.0031 C.ar    1  LIG1        0.0880
     14 N          -3.4216   -0.1373    0.0019 N.ar    1  LIG1       -0.3505
     15 H          -3.4722    0.8716   -0.0006 H       1  LIG1        0.1660
     16 H          -2.0418   -3.0873    0.0060 H       1  LIG1        0.0639
     17 H          -4.7526   -3.1144    0.0056 H       1  LIG1        0.0640
     18 C          -5.8573   -0.3634    0.0023 C.ar    1  LIG1        0.2194
     19 N          -5.9569    0.9693    0.0003 N.ar    1  LIG1       -0.1237
     20 C          -8.1985    0.6822   -0.0000 C.ar    1  LIG1        0.2034
     21 N          -6.9153   -1.1870    0.0034 N.ar    1  LIG1       -0.1237
     22 N          -7.1423    1.4959   -0.0009 N.ar    1  LIG1       -0.1252
     23 N          -8.0917   -0.6547    0.0022 N.ar    1  LIG1       -0.1252
     24 C          -9.7074    2.6668   -0.0050 C.ar    1  LIG1       -0.0509
     25 C         -10.9830    3.2192   -0.0069 C.ar    1  LIG1       -0.0611
     26 C          -9.5573    1.2786   -0.0018 C.ar    1  LIG1        0.0226
     27 C         -12.1046    2.3925   -0.0057 C.ar    1  LIG1       -0.0617
     28 H         -11.1023    4.2946   -0.0094 H       1  LIG1        0.0618
     29 C         -10.6784    0.4470   -0.0006 C.ar    1  LIG1       -0.0509
     30 C         -11.9505    1.0078   -0.0025 C.ar    1  LIG1       -0.0611
     31 H         -10.5397   -0.6257    0.0018 H       1  LIG1        0.0625
     32 H         -13.0960    2.8266   -0.0073 H       1  LIG1        0.0618
     33 H          -8.8270    3.2953   -0.0059 H       1  LIG1        0.0625
     34 H         -12.8203    0.3645   -0.0016 H       1  LIG1        0.0618
@<TRIPOS>BOND
     1     6     5    1
     2     7     1    1
     3     5     1   ar
     4     5     4   ar
     5     1     2   ar
     6    28    25    1
     7    32    27    1
     8    25    27   ar
     9    25    24   ar
    10    33    24    1
    11    27    30   ar
    12    24    26   ar
    13    30    34    1
    14    30    29   ar
    15    26    29   ar
    16    26    20    1
    17    22    20   ar
    18    22    19   ar
    19    29    31    1
    20    15    14    1
    21    20    23   ar
    22    19    18   ar
    23     4    10    1
    24     4     3   ar
    25    14    10   ar
    26    14    13   ar
    27    23    21   ar
    28    18    13    1
    29    18    21   ar
    30    10    11   ar
    31    13    12   ar
    32    11    12   ar
    33    11    16    1
    34    12    17    1
    35     2     8    1
    36     2     3   ar
    37     3     9    1
