@<TRIPOS>MOLECULE
mol_data/opt/m06hf/geoms/mol2/134-.out
 20 21 0 0 0
SMALL
GASTEIGER

@<TRIPOS>ATOM
      1 C           1.1912   -0.2377   -0.2685 C.ar    1  LIG1        0.0022
      2 C           0.8294    0.9889    0.2337 C.ar    1  LIG1       -0.0438
      3 C          -0.5811    0.9672    0.4178 C.ar    1  LIG1       -0.0364
      4 C          -1.0310   -0.2747    0.0233 C.ar    1  LIG1        0.0465
      5 N           0.0610   -0.9929   -0.3835 N.ar    1  LIG1       -0.3607
      6 H           0.0115   -1.9096   -0.7979 H       1  LIG1        0.1653
      7 H           2.1530   -0.6260   -0.5549 H       1  LIG1        0.0807
      8 H           1.4997    1.8024    0.4526 H       1  LIG1        0.0633
      9 H          -1.1969    1.7500    0.8284 H       1  LIG1        0.0639
     10 C          -2.6027   -2.1994    0.3113 C.ar    1  LIG1       -0.0526
     11 C          -3.8879   -2.7323    0.2927 C.ar    1  LIG1       -0.0611
     12 C          -2.3904   -0.8502    0.0112 C.ar    1  LIG1       -0.0017
     13 C          -4.9779   -1.9198   -0.0079 C.ar    1  LIG1       -0.0617
     14 H          -4.0384   -3.7776    0.5287 H       1  LIG1        0.0618
     15 C          -3.4890   -0.0415   -0.2951 C.ar    1  LIG1       -0.0526
     16 C          -4.7743   -0.5718   -0.2960 C.ar    1  LIG1       -0.0611
     17 H          -3.3234    0.9973   -0.5494 H       1  LIG1        0.0624
     18 H          -5.9781   -2.3328   -0.0161 H       1  LIG1        0.0618
     19 H          -1.7638   -2.8252    0.5918 H       1  LIG1        0.0624
     20 H          -5.6161    0.0651   -0.5346 H       1  LIG1        0.0618
@<TRIPOS>BOND
     1     6     5    1
     2     7     1    1
     3    17    15    1
     4    20    16    1
     5     5     1   ar
     6     5     4   ar
     7    16    15   ar
     8    16    13   ar
     9    15    12   ar
    10     1     2   ar
    11    18    13    1
    12    13    11   ar
    13    12     4    1
    14    12    10   ar
    15     4     3   ar
    16     2     3   ar
    17     2     8    1
    18    11    10   ar
    19    11    14    1
    20    10    19    1
    21     3     9    1
