@<TRIPOS>MOLECULE
mol_data/opt/m06hf/geoms/mol2/134-12-.out
 27 29 0 0 0
SMALL
GASTEIGER

@<TRIPOS>ATOM
      1 C           1.2496   -0.2170   -0.3088 C.ar    1  LIG1        0.0022
      2 C           0.9031    0.9918    0.2448 C.ar    1  LIG1       -0.0438
      3 C          -0.5035    0.9699    0.4536 C.ar    1  LIG1       -0.0364
      4 C          -0.9668   -0.2551    0.0222 C.ar    1  LIG1        0.0465
      5 N           0.1140   -0.9628   -0.4306 N.ar    1  LIG1       -0.3607
      6 H           0.0531   -1.8635   -0.8770 H       1  LIG1        0.1653
      7 H           2.2042   -0.5986   -0.6269 H       1  LIG1        0.0807
      8 H           1.5815    1.7937    0.4810 H       1  LIG1        0.0633
      9 H          -1.1080    1.7400    0.9032 H       1  LIG1        0.0639
     10 C          -2.5474   -2.1816    0.2602 C.ar    1  LIG1       -0.0520
     11 C          -3.8323   -2.7059    0.2500 C.ar    1  LIG1       -0.0505
     12 C          -2.3282   -0.8213    0.0158 C.ar    1  LIG1       -0.0017
     13 C          -4.9313   -1.8777    0.0097 C.ar    1  LIG1        0.0173
     14 H          -3.9812   -3.7589    0.4495 H       1  LIG1        0.0625
     15 C          -3.4310    0.0025   -0.2265 C.ar    1  LIG1       -0.0520
     16 C          -4.7188   -0.5158   -0.2225 C.ar    1  LIG1       -0.0505
     17 H          -3.2691    1.0511   -0.4385 H       1  LIG1        0.0624
     18 H          -1.7102   -2.8281    0.4940 H       1  LIG1        0.0624
     19 H          -5.5669    0.1280   -0.4127 H       1  LIG1        0.0625
     20 C          -6.2956   -2.4276    0.0006 C.ar    1  LIG1        0.1348
     21 C          -6.8000   -3.6848    0.1384 C.ar    1  LIG1       -0.0159
     22 C          -8.2276   -3.5592    0.0315 C.ar    1  LIG1       -0.0233
     23 C          -8.4683   -2.2406   -0.1619 C.ar    1  LIG1        0.0926
     24 O          -7.3097   -1.5515   -0.1820 O.2     1  LIG1       -0.4629
     25 H          -9.3676   -1.6662   -0.2964 H       1  LIG1        0.1029
     26 H          -6.2396   -4.5905    0.2930 H       1  LIG1        0.0655
     27 H          -8.9608   -4.3446    0.0910 H       1  LIG1        0.0649
@<TRIPOS>BOND
     1     6     5    1
     2     7     1    1
     3    17    15    1
     4     5     1   ar
     5     5     4   ar
     6    19    16    1
     7     1     2   ar
     8    25    23    1
     9    15    16   ar
    10    15    12   ar
    11    16    13   ar
    12    24    23   ar
    13    24    20   ar
    14    23    22   ar
    15    20    13    1
    16    20    21   ar
    17    13    11   ar
    18    12     4    1
    19    12    10   ar
    20     4     3   ar
    21    22    27    1
    22    22    21   ar
    23    21    26    1
    24     2     3   ar
    25     2     8    1
    26    11    10   ar
    27    11    14    1
    28    10    18    1
    29     3     9    1
