@<TRIPOS>MOLECULE
mol_data/opt/m06hf/geoms/mol2/134-13-13-.out
 36 39 0 0 0
SMALL
GASTEIGER

@<TRIPOS>ATOM
      1 C           1.3625   -0.2624   -0.0125 C.ar    1  LIG1        0.0022
      2 C           0.9821    0.9921    0.3991 C.ar    1  LIG1       -0.0438
      3 C          -0.4383    0.9959    0.4757 C.ar    1  LIG1       -0.0364
      4 C          -0.8757   -0.2596    0.1103 C.ar    1  LIG1        0.0465
      5 N           0.2330   -1.0103   -0.1752 N.ar    1  LIG1       -0.3607
      6 H           0.1994   -1.9450   -0.5488 H       1  LIG1        0.1653
      7 H           2.3377   -0.6741   -0.2056 H       1  LIG1        0.0807
      8 H           1.6457    1.8088    0.6277 H       1  LIG1        0.0633
      9 H          -1.0708    1.8061    0.7981 H       1  LIG1        0.0639
     10 C          -2.4978   -2.1497    0.3676 C.ar    1  LIG1       -0.0520
     11 C          -3.7837   -2.6664    0.2832 C.ar    1  LIG1       -0.0520
     12 C          -2.2371   -0.8188    0.0219 C.ar    1  LIG1       -0.0017
     13 C          -4.8448   -1.8653   -0.1493 C.ar    1  LIG1       -0.0017
     14 H          -3.9819   -3.6861    0.5867 H       1  LIG1        0.0624
     15 C          -3.2986   -0.0176   -0.4089 C.ar    1  LIG1       -0.0520
     16 C          -4.5845   -0.5341   -0.4935 C.ar    1  LIG1       -0.0520
     17 H          -3.0999    1.0028   -0.7097 H       1  LIG1        0.0624
     18 H          -1.6963   -2.7714    0.7486 H       1  LIG1        0.0624
     19 H          -5.3866    0.0885   -0.8716 H       1  LIG1        0.0624
     20 C          -6.2059   -2.4222   -0.2397 C.ar    1  LIG1        0.0469
     21 C          -6.6440   -3.6901   -0.5610 C.ar    1  LIG1       -0.0358
     22 C          -8.0642   -3.6790   -0.5098 C.ar    1  LIG1       -0.0344
     23 C          -8.4518   -2.4071   -0.1520 C.ar    1  LIG1        0.0633
     24 N          -7.3159   -1.6543   -0.0054 N.ar    1  LIG1       -0.3530
     25 H          -7.2944   -0.7400    0.4203 H       1  LIG1        0.1659
     26 H          -6.0110   -4.5127   -0.8491 H       1  LIG1        0.0639
     27 H          -8.7383   -4.4869   -0.7395 H       1  LIG1        0.0639
     28 C          -9.7832   -1.8345    0.0636 C.ar    1  LIG1        0.0629
     29 C         -10.8665   -2.3081    0.7674 C.ar    1  LIG1       -0.0350
     30 C         -11.9098   -1.3484    0.6375 C.ar    1  LIG1       -0.0438
     31 C         -11.4244   -0.3218   -0.1360 C.ar    1  LIG1        0.0022
     32 N         -10.1364   -0.6232   -0.4731 N.ar    1  LIG1       -0.3595
     33 H          -9.5612   -0.1028   -1.1162 H       1  LIG1        0.1654
     34 H         -11.8900    0.5885   -0.4716 H       1  LIG1        0.0807
     35 H         -10.8835   -3.2286    1.3262 H       1  LIG1        0.0639
     36 H         -12.8946   -1.3995    1.0701 H       1  LIG1        0.0633
@<TRIPOS>BOND
     1    33    32    1
     2    19    16    1
     3    26    21    1
     4    27    22    1
     5    17    15    1
     6    21    22   ar
     7    21    20   ar
     8     6     5    1
     9    22    23   ar
    10    16    15   ar
    11    16    13   ar
    12    32    31   ar
    13    32    28   ar
    14    34    31    1
    15    15    12   ar
    16    20    13    1
    17    20    24   ar
    18     7     1    1
    19     5     1   ar
    20     5     4   ar
    21    23    24   ar
    22    23    28    1
    23    13    11   ar
    24    31    30   ar
    25     1     2   ar
    26    24    25    1
    27    12     4    1
    28    12    10   ar
    29    28    29   ar
    30     4     3   ar
    31    11    10   ar
    32    11    14    1
    33    10    18    1
    34     2     3   ar
    35     2     8    1
    36     3     9    1
    37    30    29   ar
    38    30    36    1
    39    29    35    1
