@<TRIPOS>MOLECULE
mol_data/opt/m06hf/geoms/mol2/134-8-.out
 26 28 0 0 0
SMALL
GASTEIGER

@<TRIPOS>ATOM
      1 C           1.2702   -0.2447    0.0001 C.ar    1  LIG1        0.0022
      2 C           0.8569    1.0671    0.0017 C.ar    1  LIG1       -0.0438
      3 C          -0.5611    1.0550    0.0013 C.ar    1  LIG1       -0.0364
      4 C          -0.9727   -0.2648   -0.0002 C.ar    1  LIG1        0.0465
      5 N           0.1619   -1.0338   -0.0009 N.ar    1  LIG1       -0.3607
      6 H           0.1812   -2.0393   -0.0022 H       1  LIG1        0.1653
      7 H           2.2577   -0.6723   -0.0002 H       1  LIG1        0.0807
      8 H           1.4980    1.9319    0.0028 H       1  LIG1        0.0633
      9 H          -1.2048    1.9187    0.0023 H       1  LIG1        0.0639
     10 C          -2.5422   -2.2280   -0.0010 C.ar    1  LIG1       -0.0520
     11 C          -3.8270   -2.7521   -0.0018 C.ar    1  LIG1       -0.0503
     12 C          -2.3260   -0.8441   -0.0009 C.ar    1  LIG1       -0.0017
     13 C          -4.9283   -1.8969   -0.0025 C.ar    1  LIG1        0.0227
     14 H          -3.9848   -3.8220   -0.0018 H       1  LIG1        0.0625
     15 C          -3.4443    0.0014   -0.0017 C.ar    1  LIG1       -0.0520
     16 C          -4.7300   -0.5141   -0.0024 C.ar    1  LIG1       -0.0503
     17 H          -3.3054    1.0732   -0.0018 H       1  LIG1        0.0624
     18 H          -1.7116   -2.9216   -0.0002 H       1  LIG1        0.0624
     19 H          -5.5871    0.1455   -0.0030 H       1  LIG1        0.0625
     20 C          -6.3005   -2.4533   -0.0033 C.ar    1  LIG1        0.2033
     21 N          -6.4452   -3.7825   -0.0035 N.ar    1  LIG1       -0.1258
     22 C          -8.6626   -3.4108   -0.0047 C.ar    1  LIG1        0.1605
     23 N          -7.3298   -1.6001   -0.0038 N.ar    1  LIG1       -0.1258
     24 N          -7.6480   -4.2708   -0.0042 N.ar    1  LIG1       -0.1339
     25 N          -8.5331   -2.0873   -0.0045 N.ar    1  LIG1       -0.1339
     26 H          -9.6631   -3.8167   -0.0052 H       1  LIG1        0.1085
@<TRIPOS>BOND
     1    26    22    1
     2    22    25   ar
     3    22    24   ar
     4    25    23   ar
     5    24    21   ar
     6    23    20   ar
     7    21    20   ar
     8    20    13    1
     9    19    16    1
    10    13    16   ar
    11    13    11   ar
    12    16    15   ar
    13     6     5    1
    14    14    11    1
    15    17    15    1
    16    11    10   ar
    17    15    12   ar
    18    10    12   ar
    19    10    18    1
    20    12     4    1
    21     5     4   ar
    22     5     1   ar
    23     7     1    1
    24     4     3   ar
    25     1     2   ar
    26     3     2   ar
    27     3     9    1
    28     2     8    1
