@<TRIPOS>MOLECULE
mol_data/opt/m06hf/geoms/mol2/134-13-.out
 28 30 0 0 0
SMALL
GASTEIGER

@<TRIPOS>ATOM
      1 C           1.2283   -0.1331   -0.4693 C.ar    1  LIG1        0.0022
      2 C           0.9426    0.9503    0.3259 C.ar    1  LIG1       -0.0438
      3 C          -0.4400    0.8777    0.6527 C.ar    1  LIG1       -0.0364
      4 C          -0.9500   -0.2502    0.0459 C.ar    1  LIG1        0.0465
      5 N           0.0801   -0.8531   -0.6243 N.ar    1  LIG1       -0.3607
      6 H          -0.0279   -1.6603   -1.2171 H       1  LIG1        0.1653
      7 H           2.1477   -0.4419   -0.9353 H       1  LIG1        0.0807
      8 H           1.6448    1.7020    0.6435 H       1  LIG1        0.0633
      9 H          -0.9956    1.5467    1.2889 H       1  LIG1        0.0639
     10 C          -2.5201   -2.2009    0.0621 C.ar    1  LIG1       -0.0520
     11 C          -3.8063   -2.7246    0.0441 C.ar    1  LIG1       -0.0520
     12 C          -2.3120   -0.8174    0.0500 C.ar    1  LIG1       -0.0017
     13 C          -4.9187   -1.8781    0.0483 C.ar    1  LIG1       -0.0017
     14 H          -3.9587   -3.7958    0.0220 H       1  LIG1        0.0624
     15 C          -3.4243    0.0290    0.0469 C.ar    1  LIG1       -0.0520
     16 C          -4.7105   -0.4947    0.0632 C.ar    1  LIG1       -0.0520
     17 H          -3.2719    1.1003    0.0271 H       1  LIG1        0.0624
     18 H          -1.6705   -2.8718    0.1034 H       1  LIG1        0.0624
     19 H          -5.5602    0.1762    0.1054 H       1  LIG1        0.0624
     20 C          -6.2806   -2.4453    0.0423 C.ar    1  LIG1        0.0465
     21 C          -6.7909   -3.5745    0.6466 C.ar    1  LIG1       -0.0364
     22 C          -8.1734   -3.6464    0.3189 C.ar    1  LIG1       -0.0438
     23 C          -8.4586   -2.5615   -0.4743 C.ar    1  LIG1        0.0022
     24 N          -7.3104   -1.8411   -0.6273 N.ar    1  LIG1       -0.3607
     25 H          -7.2021   -1.0327   -1.2183 H       1  LIG1        0.1653
     26 H          -9.3778   -2.2517   -0.9402 H       1  LIG1        0.0807
     27 H          -6.2357   -4.2447    1.2818 H       1  LIG1        0.0639
     28 H          -8.8758   -4.3988    0.6347 H       1  LIG1        0.0633
@<TRIPOS>BOND
     1    25    24    1
     2     6     5    1
     3    26    23    1
     4     7     1    1
     5    24    23   ar
     6    24    20   ar
     7     5     1   ar
     8     5     4   ar
     9    23    22   ar
    10     1     2   ar
    11    14    11    1
    12    17    15    1
    13    20    13    1
    14    20    21   ar
    15    11    13   ar
    16    11    10   ar
    17     4    12    1
    18     4     3   ar
    19    15    12   ar
    20    15    16   ar
    21    13    16   ar
    22    12    10   ar
    23    10    18    1
    24    16    19    1
    25    22    28    1
    26    22    21   ar
    27     2     8    1
    28     2     3   ar
    29    21    27    1
    30     3     9    1
