@<TRIPOS>MOLECULE
mol_data/opt/m06hf/geoms/mol2/134-412-.out
 37 40 0 0 0
SMALL
GASTEIGER

@<TRIPOS>ATOM
      1 C           1.2737    0.0237   -0.5900 C.ar    1  LIG1        0.0022
      2 C           1.0496    0.9194    0.4276 C.ar    1  LIG1       -0.0438
      3 C          -0.3066    0.7673    0.8289 C.ar    1  LIG1       -0.0364
      4 C          -0.8624   -0.2200    0.0434 C.ar    1  LIG1        0.0465
      5 N           0.1150   -0.6629   -0.8066 N.ar    1  LIG1       -0.3607
      6 H          -0.0395   -1.3268   -1.5481 H       1  LIG1        0.1653
      7 H           2.1561   -0.1728   -1.1737 H       1  LIG1        0.0807
      8 H           1.7758    1.5976    0.8422 H       1  LIG1        0.0633
      9 H          -0.8126    1.2860    1.6266 H       1  LIG1        0.0639
     10 C          -2.4274   -2.1541   -0.2231 C.ar    1  LIG1       -0.0521
     11 C          -3.7122   -2.6840   -0.2390 C.ar    1  LIG1       -0.0534
     12 C          -2.2210   -0.7949    0.0325 C.ar    1  LIG1       -0.0017
     13 C          -4.8211   -1.8740    0.0200 C.ar    1  LIG1       -0.0178
     14 H          -3.8597   -3.7333   -0.4630 H       1  LIG1        0.0624
     15 C          -3.3302    0.0178    0.2865 C.ar    1  LIG1       -0.0521
     16 C          -4.6115   -0.5177    0.2894 C.ar    1  LIG1       -0.0534
     17 H          -3.1799    1.0734    0.4714 H       1  LIG1        0.0624
     18 H          -1.5778   -2.8058   -0.3877 H       1  LIG1        0.0624
     19 H          -5.4599    0.1173    0.5131 H       1  LIG1        0.0624
     20 C          -7.2510   -1.7599   -0.6027 C.ar    1  LIG1       -0.0534
     21 C          -8.5363   -2.2871   -0.6092 C.ar    1  LIG1       -0.0505
     22 C          -6.1990   -2.4438    0.0118 C.ar    1  LIG1       -0.0178
     23 C          -8.7952   -3.5166    0.0009 C.ar    1  LIG1        0.0173
     24 H          -9.3442   -1.7548   -1.0930 H       1  LIG1        0.0625
     25 C          -6.4657   -3.6738    0.6215 C.ar    1  LIG1       -0.0534
     26 C          -7.7475   -4.2057    0.6171 C.ar    1  LIG1       -0.0505
     27 H          -5.6661   -4.2029    1.1252 H       1  LIG1        0.0624
     28 H          -7.0553   -0.8178   -1.0994 H       1  LIG1        0.0624
     29 H          -7.9349   -5.1531    1.1052 H       1  LIG1        0.0625
     30 C         -10.1573   -4.0727   -0.0071 C.ar    1  LIG1        0.1348
     31 C         -10.6998   -5.2344    0.4517 C.ar    1  LIG1       -0.0159
     32 C         -12.1007   -5.1761    0.1364 C.ar    1  LIG1       -0.0233
     33 C         -12.2893   -3.9883   -0.4866 C.ar    1  LIG1        0.0926
     34 O         -11.1236   -3.3174   -0.5773 O.2     1  LIG1       -0.4629
     35 H         -13.1534   -3.5024   -0.9034 H       1  LIG1        0.1029
     36 H         -10.1807   -6.0357    0.9486 H       1  LIG1        0.0655
     37 H         -12.8511   -5.9182    0.3474 H       1  LIG1        0.0649
@<TRIPOS>BOND
     1     6     5    1
     2     7     1    1
     3    28    20    1
     4    24    21    1
     5    35    33    1
     6     5     1   ar
     7     5     4   ar
     8    21    20   ar
     9    21    23   ar
    10    20    22   ar
    11     1     2   ar
    12    34    33   ar
    13    34    30   ar
    14    33    32   ar
    15    14    11    1
    16    18    10    1
    17    11    10   ar
    18    11    13   ar
    19    10    12   ar
    20    30    23    1
    21    30    31   ar
    22    23    26   ar
    23    22    13    1
    24    22    25   ar
    25    13    16   ar
    26    12     4    1
    27    12    15   ar
    28     4     3   ar
    29    32    37    1
    30    32    31   ar
    31    15    16   ar
    32    15    17    1
    33    16    19    1
    34     2     3   ar
    35     2     8    1
    36    31    36    1
    37    26    25   ar
    38    26    29    1
    39    25    27    1
    40     3     9    1
