@<TRIPOS>MOLECULE
mol_data/opt/m06hf/geoms/mol2/134-128.out
 33 36 0 0 0
SMALL
GASTEIGER

@<TRIPOS>ATOM
      1 C           1.2863   -0.0612   -0.2759 C.ar    1  LIG1        0.0022
      2 C           0.9052    1.1171    0.3206 C.ar    1  LIG1       -0.0438
      3 C          -0.5004    1.0491    0.5222 C.ar    1  LIG1       -0.0364
      4 C          -0.9290   -0.1716    0.0439 C.ar    1  LIG1        0.0465
      5 N           0.1726   -0.8327   -0.4300 N.ar    1  LIG1       -0.3607
      6 H           0.1389   -1.7188   -0.9078 H       1  LIG1        0.1653
      7 H           2.2516   -0.4058   -0.6036 H       1  LIG1        0.0807
      8 H           1.5597    1.9286    0.5896 H       1  LIG1        0.0633
      9 H          -1.1259    1.7860    0.9979 H       1  LIG1        0.0639
     10 C          -2.4512   -2.1538    0.1611 C.ar    1  LIG1       -0.0520
     11 C          -3.7204   -2.7156    0.1195 C.ar    1  LIG1       -0.0505
     12 C          -2.2724   -0.7747    0.0102 C.ar    1  LIG1       -0.0017
     13 C          -4.8405   -1.8999   -0.0558 C.ar    1  LIG1        0.0173
     14 H          -3.8523   -3.7830    0.2382 H       1  LIG1        0.0625
     15 C          -3.3997    0.0345   -0.1722 C.ar    1  LIG1       -0.0520
     16 C          -4.6700   -0.5194   -0.1968 C.ar    1  LIG1       -0.0505
     17 H          -3.2678    1.0987   -0.3164 H       1  LIG1        0.0624
     18 H          -1.5948   -2.7904    0.3465 H       1  LIG1        0.0624
     19 H          -5.5296    0.1207   -0.3458 H       1  LIG1        0.0625
     20 C          -6.1836   -2.4945   -0.0840 C.ar    1  LIG1        0.1358
     21 C          -7.4447   -1.9703   -0.1638 C.ar    1  LIG1       -0.0151
     22 C          -8.3419   -3.0809   -0.1381 C.ar    1  LIG1       -0.0120
     23 C          -7.5534   -4.1870   -0.0441 C.ar    1  LIG1        0.1760
     24 O          -6.2540   -3.8374   -0.0123 O.2     1  LIG1       -0.4516
     25 H          -7.7064   -0.9286   -0.2261 H       1  LIG1        0.0656
     26 H          -9.4177   -3.0757   -0.1800 H       1  LIG1        0.0657
     27 C          -7.8851   -5.6068    0.0254 C.ar    1  LIG1        0.2381
     28 N          -9.1860   -5.9198    0.0035 N.ar    1  LIG1       -0.1226
     29 C          -8.5119   -8.0608    0.1478 C.ar    1  LIG1        0.1605
     30 N          -6.8925   -6.4952    0.1058 N.ar    1  LIG1       -0.1226
     31 N          -9.5045   -7.1747    0.0662 N.ar    1  LIG1       -0.1338
     32 N          -7.2197   -7.7533    0.1684 N.ar    1  LIG1       -0.1338
     33 H          -8.7798   -9.1051    0.2013 H       1  LIG1        0.1085
@<TRIPOS>BOND
     1     6     5    1
     2     7     1    1
     3     5     1   ar
     4     5     4   ar
     5    19    16    1
     6    17    15    1
     7     1     2   ar
     8    25    21    1
     9    16    15   ar
    10    16    13   ar
    11    26    22    1
    12    15    12   ar
    13    21    22   ar
    14    21    20   ar
    15    22    23   ar
    16    20    13    1
    17    20    24   ar
    18    13    11   ar
    19    23    24   ar
    20    23    27    1
    21    28    27   ar
    22    28    31   ar
    23    12     4    1
    24    12    10   ar
    25    27    30   ar
    26     4     3   ar
    27    31    29   ar
    28    30    32   ar
    29    11    10   ar
    30    11    14    1
    31    29    32   ar
    32    29    33    1
    33    10    18    1
    34     2     3   ar
    35     2     8    1
    36     3     9    1
