@<TRIPOS>MOLECULE
mol_data/opt/m06hf/geoms/mol2/134-8-13-.out
 34 37 0 0 0
SMALL
GASTEIGER

@<TRIPOS>ATOM
      1 C           1.3167   -0.2019   -0.0025 C.ar    1  LIG1        0.0022
      2 C           0.8953    1.1067    0.0049 C.ar    1  LIG1       -0.0438
      3 C          -0.5231    1.0861    0.0066 C.ar    1  LIG1       -0.0364
      4 C          -0.9264   -0.2360    0.0002 C.ar    1  LIG1        0.0465
      5 N           0.2126   -0.9982   -0.0052 N.ar    1  LIG1       -0.3607
      6 H           0.2374   -2.0035   -0.0115 H       1  LIG1        0.1653
      7 H           2.3069   -0.6235   -0.0062 H       1  LIG1        0.0807
      8 H           1.5311    1.9755    0.0089 H       1  LIG1        0.0633
      9 H          -1.1716    1.9461    0.0129 H       1  LIG1        0.0639
     10 C          -2.4852   -2.2087    0.0014 C.ar    1  LIG1       -0.0520
     11 C          -3.7674   -2.7406    0.0002 C.ar    1  LIG1       -0.0503
     12 C          -2.2772   -0.8241   -0.0008 C.ar    1  LIG1       -0.0017
     13 C          -4.8739   -1.8922   -0.0029 C.ar    1  LIG1        0.0227
     14 H          -3.9196   -3.8113    0.0020 H       1  LIG1        0.0625
     15 C          -3.4003    0.0149   -0.0040 C.ar    1  LIG1       -0.0520
     16 C          -4.6831   -0.5081   -0.0049 C.ar    1  LIG1       -0.0503
     17 H          -3.2667    1.0875   -0.0064 H       1  LIG1        0.0624
     18 H          -1.6505   -2.8974    0.0050 H       1  LIG1        0.0624
     19 H          -5.5440    0.1465   -0.0074 H       1  LIG1        0.0625
     20 C          -6.2427   -2.4572   -0.0040 C.ar    1  LIG1        0.2034
     21 N          -6.3805   -3.7908   -0.0029 N.ar    1  LIG1       -0.1252
     22 C          -8.6075   -3.4481   -0.0056 C.ar    1  LIG1        0.2194
     23 N          -7.2802   -1.6184   -0.0059 N.ar    1  LIG1       -0.1252
     24 N          -7.5693   -4.2958   -0.0038 N.ar    1  LIG1       -0.1237
     25 N          -8.4765   -2.1190   -0.0067 N.ar    1  LIG1       -0.1237
     26 C          -9.9555   -3.9920   -0.0066 C.ar    1  LIG1        0.0875
     27 C         -10.4139   -5.2942   -0.0061 C.ar    1  LIG1       -0.0333
     28 C         -11.8277   -5.2281   -0.0075 C.ar    1  LIG1       -0.0437
     29 C         -12.1756   -3.8910   -0.0091 C.ar    1  LIG1        0.0023
     30 N         -11.0357   -3.1574   -0.0085 N.ar    1  LIG1       -0.3582
     31 H         -10.9527   -2.1513   -0.0093 H       1  LIG1        0.1654
     32 H         -13.1430   -3.4192   -0.0105 H       1  LIG1        0.0807
     33 H          -9.7887   -6.1713   -0.0047 H       1  LIG1        0.0640
     34 H         -12.5145   -6.0567   -0.0074 H       1  LIG1        0.0633
@<TRIPOS>BOND
     1     6     5    1
     2    32    29    1
     3    31    30    1
     4    29    30   ar
     5    29    28   ar
     6    30    26   ar
     7    28    34    1
     8    28    27   ar
     9    19    16    1
    10    25    23   ar
    11    25    22   ar
    12    26    27   ar
    13    26    22    1
    14    17    15    1
    15     7     1    1
    16    27    33    1
    17    23    20   ar
    18    22    24   ar
    19     5     1   ar
    20     5     4   ar
    21    16    15   ar
    22    16    13   ar
    23    15    12   ar
    24    20    13    1
    25    20    21   ar
    26    24    21   ar
    27    13    11   ar
    28     1     2   ar
    29    12     4    1
    30    12    10   ar
    31    11    10   ar
    32    11    14    1
    33     4     3   ar
    34    10    18    1
    35     2     3   ar
    36     2     8    1
    37     3     9    1
