@<TRIPOS>MOLECULE
mol_data/opt/m06hf/geoms/mol2/134-13-5.out
 35 38 0 0 0
SMALL
GASTEIGER

@<TRIPOS>ATOM
      1 C           1.2225   -0.1263   -0.8575 C.ar    1  LIG1        0.0022
      2 C           1.1025    0.8202    0.1313 C.ar    1  LIG1       -0.0438
      3 C          -0.2198    0.7228    0.6467 C.ar    1  LIG1       -0.0364
      4 C          -0.8602   -0.2835   -0.0443 C.ar    1  LIG1        0.0465
      5 N           0.0345   -0.7908   -0.9479 N.ar    1  LIG1       -0.3607
      6 H          -0.1972   -1.4798   -1.6452 H       1  LIG1        0.1653
      7 H           2.0500   -0.3733   -1.4996 H       1  LIG1        0.0807
      8 H           1.8762    1.4953    0.4549 H       1  LIG1        0.0633
      9 H          -0.6467    1.2896    1.4576 H       1  LIG1        0.0639
     10 C          -2.4881   -2.1836   -0.1013 C.ar    1  LIG1       -0.0520
     11 C          -3.7824   -2.6772   -0.0083 C.ar    1  LIG1       -0.0520
     12 C          -2.2287   -0.8202    0.0767 C.ar    1  LIG1       -0.0017
     13 C          -4.8469   -1.8249    0.2981 C.ar    1  LIG1       -0.0017
     14 H          -3.9790   -3.7277   -0.1786 H       1  LIG1        0.0624
     15 C          -3.2948    0.0327    0.3762 C.ar    1  LIG1       -0.0520
     16 C          -4.5845   -0.4660    0.5022 C.ar    1  LIG1       -0.0520
     17 H          -3.1036    1.0902    0.5045 H       1  LIG1        0.0624
     18 H          -1.6688   -2.8647   -0.2975 H       1  LIG1        0.0624
     19 H          -5.3927    0.2019    0.7754 H       1  LIG1        0.0624
     20 C          -6.2159   -2.3611    0.4056 C.ar    1  LIG1        0.0469
     21 C          -6.6745   -3.5791    0.8664 C.ar    1  LIG1       -0.0358
     22 C          -8.0884   -3.5768    0.7455 C.ar    1  LIG1       -0.0353
     23 C          -8.4515   -2.3571    0.2129 C.ar    1  LIG1        0.0536
     24 N          -7.3076   -1.6323    0.0230 N.ar    1  LIG1       -0.3537
     25 H          -7.2681   -0.7599   -0.4815 H       1  LIG1        0.1659
     26 H          -6.0596   -4.3586    1.2843 H       1  LIG1        0.0639
     27 H          -8.7719   -4.3541    1.0439 H       1  LIG1        0.0639
     28 C          -9.7609   -1.8068   -0.1427 C.ar    1  LIG1        0.0355
     29 C         -10.1943   -0.5164   -0.0252 C.ar    1  LIG1       -0.0455
     30 C         -11.5361   -0.3393   -0.4967 C.ar    1  LIG1       -0.0541
     31 C         -12.0838   -1.4989   -0.9500 C.ar    1  LIG1       -0.0237
     32 S         -10.9799   -2.8151   -0.8356 S.2     1  LIG1       -0.0952
     33 H         -13.0742   -1.6551   -1.3451 H       1  LIG1        0.0693
     34 H          -9.5953    0.2687    0.4137 H       1  LIG1        0.0629
     35 H         -12.0622    0.6032   -0.4801 H       1  LIG1        0.0623
@<TRIPOS>BOND
     1     6     5    1
     2     7     1    1
     3    33    31    1
     4    31    32   ar
     5    31    30   ar
     6     5     1   ar
     7     5     4   ar
     8     1     2   ar
     9    32    28   ar
    10    30    35    1
    11    30    29   ar
    12    25    24    1
    13    18    10    1
    14    14    11    1
    15    28    29   ar
    16    28    23    1
    17    10    11   ar
    18    10    12   ar
    19     4    12    1
    20     4     3   ar
    21    29    34    1
    22    11    13   ar
    23    24    23   ar
    24    24    20   ar
    25    12    15   ar
    26     2     8    1
    27     2     3   ar
    28    23    22   ar
    29    13    20    1
    30    13    16   ar
    31    15    16   ar
    32    15    17    1
    33    20    21   ar
    34    16    19    1
    35     3     9    1
    36    22    21   ar
    37    22    27    1
    38    21    26    1
