@<TRIPOS>MOLECULE
mol_data/opt/m06hf/geoms/mol2/134-5-.out
 27 29 0 0 0
SMALL
GASTEIGER

@<TRIPOS>ATOM
      1 C           1.2446   -0.1284   -0.4092 C.ar    1  LIG1        0.0022
      2 C           0.9169    0.9776    0.3376 C.ar    1  LIG1       -0.0438
      3 C          -0.4760    0.8982    0.6154 C.ar    1  LIG1       -0.0364
      4 C          -0.9497   -0.2567    0.0301 C.ar    1  LIG1        0.0465
      5 N           0.1119   -0.8686   -0.5808 N.ar    1  LIG1       -0.3607
      6 H           0.0341   -1.6910   -1.1577 H       1  LIG1        0.1653
      7 H           2.1838   -0.4400   -0.8319 H       1  LIG1        0.0807
      8 H           1.5978    1.7489    0.6549 H       1  LIG1        0.0633
      9 H          -1.0625    1.5817    1.2068 H       1  LIG1        0.0639
     10 C          -2.4972   -2.2241    0.0444 C.ar    1  LIG1       -0.0520
     11 C          -3.7772   -2.7621    0.0001 C.ar    1  LIG1       -0.0529
     12 C          -2.3041   -0.8394    0.0047 C.ar    1  LIG1       -0.0017
     13 C          -4.8969   -1.9278   -0.0512 C.ar    1  LIG1       -0.0113
     14 H          -3.9150   -3.8356   -0.0022 H       1  LIG1        0.0624
     15 C          -3.4248   -0.0062   -0.0597 C.ar    1  LIG1       -0.0520
     16 C          -4.7051   -0.5426   -0.0756 C.ar    1  LIG1       -0.0529
     17 H          -3.2834    1.0655   -0.1097 H       1  LIG1        0.0624
     18 H          -1.6429   -2.8851    0.1274 H       1  LIG1        0.0624
     19 H          -5.5642    0.1162   -0.1031 H       1  LIG1        0.0624
     20 C          -6.2547   -2.5164   -0.0790 C.ar    1  LIG1        0.0193
     21 C          -6.7072   -3.6121    0.5981 C.ar    1  LIG1       -0.0469
     22 C          -8.0803   -3.9126    0.3187 C.ar    1  LIG1       -0.0541
     23 C          -8.6331   -3.0366   -0.5625 C.ar    1  LIG1       -0.0237
     24 S          -7.5027   -1.8437   -1.0701 S.2     1  LIG1       -0.0967
     25 H          -9.6412   -3.0239   -0.9430 H       1  LIG1        0.0693
     26 H          -6.0922   -4.1674    1.2916 H       1  LIG1        0.0629
     27 H          -8.6215   -4.7345    0.7629 H       1  LIG1        0.0623
@<TRIPOS>BOND
     1     6     5    1
     2    24    23   ar
     3    24    20   ar
     4    25    23    1
     5     7     1    1
     6     5     1   ar
     7     5     4   ar
     8    23    22   ar
     9     1     2   ar
    10    17    15    1
    11    19    16    1
    12    20    13    1
    13    20    21   ar
    14    16    15   ar
    15    16    13   ar
    16    15    12   ar
    17    13    11   ar
    18    14    11    1
    19    11    10   ar
    20    12     4    1
    21    12    10   ar
    22     4     3   ar
    23    10    18    1
    24    22    21   ar
    25    22    27    1
    26     2     3   ar
    27     2     8    1
    28    21    26    1
    29     3     9    1
