@<TRIPOS>MOLECULE
mol_data/opt/m06hf/geoms/mol2/134.out
 20 21 0 0 0
SMALL
GASTEIGER

@<TRIPOS>ATOM
      1 C           1.2214   -0.2399   -0.0012 C.ar    1  LIG1        0.0022
      2 C           0.7911    1.0648    0.0003 C.ar    1  LIG1       -0.0438
      3 C          -0.6286    1.0343    0.0013 C.ar    1  LIG1       -0.0364
      4 C          -1.0229   -0.2894    0.0005 C.ar    1  LIG1        0.0465
      5 N           0.1208   -1.0434   -0.0009 N.ar    1  LIG1       -0.3607
      6 H           0.1508   -2.0484   -0.0020 H       1  LIG1        0.1653
      7 H           2.2140   -0.6555   -0.0023 H       1  LIG1        0.0807
      8 H           1.4209    1.9382    0.0005 H       1  LIG1        0.0633
      9 H          -1.2833    1.8897    0.0026 H       1  LIG1        0.0639
     10 C          -3.4998   -0.0594    0.0010 C.ar    1  LIG1       -0.0526
     11 C          -4.7804   -0.5968    0.0015 C.ar    1  LIG1       -0.0611
     12 C          -2.3726   -0.8897    0.0011 C.ar    1  LIG1       -0.0017
     13 C          -4.9654   -1.9777    0.0021 C.ar    1  LIG1       -0.0617
     14 H          -5.6361    0.0657    0.0014 H       1  LIG1        0.0618
     15 C          -2.5698   -2.2742    0.0018 C.ar    1  LIG1       -0.0526
     16 C          -3.8531   -2.8125    0.0023 C.ar    1  LIG1       -0.0611
     17 H          -1.7285   -2.9558    0.0021 H       1  LIG1        0.0624
     18 H          -5.9630   -2.3964    0.0025 H       1  LIG1        0.0618
     19 H          -3.3721    1.0144    0.0003 H       1  LIG1        0.0624
     20 H          -3.9794   -3.8873    0.0028 H       1  LIG1        0.0618
@<TRIPOS>BOND
     1     7     1    1
     2     6     5    1
     3     1     5   ar
     4     1     2   ar
     5     5     4   ar
     6     2     8    1
     7     2     3   ar
     8    19    10    1
     9     4    12    1
    10     4     3   ar
    11    10    12   ar
    12    10    11   ar
    13    12    15   ar
    14     3     9    1
    15    14    11    1
    16    11    13   ar
    17    15    17    1
    18    15    16   ar
    19    13    16   ar
    20    13    18    1
    21    16    20    1
