@<TRIPOS>MOLECULE
mol_data/opt/m06hf/geoms/mol2/13413.out
 28 30 0 0 0
SMALL
GASTEIGER

@<TRIPOS>ATOM
      1 C           1.2758   -0.2001    0.2156 C.ar    1  LIG1        0.0022
      2 C           0.8830    1.0637   -0.1538 C.ar    1  LIG1       -0.0438
      3 C          -0.5323    1.0376   -0.2988 C.ar    1  LIG1       -0.0364
      4 C          -0.9537   -0.2439   -0.0147 C.ar    1  LIG1        0.0465
      5 N           0.1596   -0.9809    0.2884 N.ar    1  LIG1       -0.3607
      6 H           0.1333   -1.9346    0.6110 H       1  LIG1        0.1653
      7 H           2.2508   -0.5989    0.4356 H       1  LIG1        0.0807
      8 H           1.5352    1.9057   -0.3112 H       1  LIG1        0.0633
      9 H          -1.1708    1.8464   -0.6133 H       1  LIG1        0.0639
     10 C          -3.4050   -0.0947    0.4094 C.ar    1  LIG1       -0.0520
     11 C          -4.6776   -0.6485    0.4097 C.ar    1  LIG1       -0.0520
     12 C          -2.3026   -0.8413   -0.0197 C.ar    1  LIG1       -0.0017
     13 C          -4.8828   -1.9641   -0.0190 C.ar    1  LIG1       -0.0017
     14 H          -5.5207   -0.0755    0.7734 H       1  LIG1        0.0624
     15 C          -2.5083   -2.1534   -0.4564 C.ar    1  LIG1       -0.0520
     16 C          -3.7827   -2.7080   -0.4560 C.ar    1  LIG1       -0.0520
     17 H          -1.6745   -2.7281   -0.8417 H       1  LIG1        0.0624
     18 H          -3.2494    0.9129    0.7728 H       1  LIG1        0.0624
     19 H          -3.9306   -3.7099   -0.8410 H       1  LIG1        0.0624
     20 C          -6.2394   -2.5439   -0.0133 C.ar    1  LIG1        0.0465
     21 C          -7.4644   -1.9788   -0.2971 C.ar    1  LIG1       -0.0364
     22 C          -8.4482   -2.9965   -0.1512 C.ar    1  LIG1       -0.0438
     23 C          -7.7911   -4.1452    0.2185 C.ar    1  LIG1        0.0022
     24 N          -6.4589   -3.8607    0.2905 N.ar    1  LIG1       -0.3607
     25 H          -5.7430   -4.4916    0.6130 H       1  LIG1        0.1653
     26 H          -8.1638   -5.1304    0.4392 H       1  LIG1        0.0807
     27 H          -7.6211   -0.9605   -0.6121 H       1  LIG1        0.0639
     28 H          -9.5088   -2.8999   -0.3082 H       1  LIG1        0.0633
@<TRIPOS>BOND
     1    17    15    1
     2    19    16    1
     3     9     3    1
     4    27    21    1
     5    15    16   ar
     6    15    12   ar
     7    16    13   ar
     8     8     2    1
     9    28    22    1
    10     3     2   ar
    11     3     4   ar
    12    21    22   ar
    13    21    20   ar
    14     2     1   ar
    15    22    23   ar
    16    12     4    1
    17    12    10   ar
    18    13    20    1
    19    13    11   ar
    20     4     5   ar
    21    20    24   ar
    22     1     5   ar
    23     1     7    1
    24    23    24   ar
    25    23    26    1
    26     5     6    1
    27    24    25    1
    28    10    11   ar
    29    10    18    1
    30    11    14    1
