@<TRIPOS>MOLECULE
mol_data/opt/m06hf/geoms/mol2/13412-8-.out
 33 36 0 0 0
SMALL
GASTEIGER

@<TRIPOS>ATOM
      1 C           1.3216   -0.2376   -0.4155 C.ar    1  LIG1        0.0022
      2 C           1.0066    0.9432    0.2136 C.ar    1  LIG1       -0.0438
      3 C          -0.3892    0.9155    0.4827 C.ar    1  LIG1       -0.0364
      4 C          -0.8780   -0.2848    0.0111 C.ar    1  LIG1        0.0465
      5 N           0.1782   -0.9729   -0.5239 N.ar    1  LIG1       -0.3607
      6 H           0.0930   -1.8481   -1.0151 H       1  LIG1        0.1653
      7 H           2.2588   -0.6051   -0.7952 H       1  LIG1        0.0807
      8 H           1.6983    1.7305    0.4598 H       1  LIG1        0.0633
      9 H          -0.9682    1.6647    0.9972 H       1  LIG1        0.0639
     10 C          -3.3499   -0.0074   -0.0966 C.ar    1  LIG1       -0.0520
     11 C          -4.6376   -0.5231   -0.0634 C.ar    1  LIG1       -0.0505
     12 C          -2.2395   -0.8468    0.0381 C.ar    1  LIG1       -0.0017
     13 C          -4.8386   -1.8981    0.0896 C.ar    1  LIG1        0.0173
     14 H          -5.4933    0.1306   -0.1698 H       1  LIG1        0.0625
     15 C          -2.4495   -2.2203    0.2071 C.ar    1  LIG1       -0.0520
     16 C          -3.7344   -2.7428    0.2242 C.ar    1  LIG1       -0.0505
     17 H          -1.6035   -2.8792    0.3597 H       1  LIG1        0.0624
     18 H          -3.1939    1.0523   -0.2501 H       1  LIG1        0.0624
     19 H          -3.8775   -3.8065    0.3630 H       1  LIG1        0.0625
     20 C          -6.2019   -2.4454    0.1050 C.ar    1  LIG1        0.1358
     21 C          -6.7049   -3.7152    0.1857 C.ar    1  LIG1       -0.0151
     22 C          -8.1261   -3.5858    0.1455 C.ar    1  LIG1       -0.0120
     23 C          -8.3697   -2.2502    0.0427 C.ar    1  LIG1        0.1760
     24 O          -7.2138   -1.5609    0.0188 O.2     1  LIG1       -0.4516
     25 H          -6.1406   -4.6281    0.2603 H       1  LIG1        0.0656
     26 H          -8.8721   -4.3609    0.1843 H       1  LIG1        0.0657
     27 C          -9.6217   -1.5045   -0.0423 C.ar    1  LIG1        0.2381
     28 N         -10.7481   -2.2269   -0.0259 N.ar    1  LIG1       -0.1226
     29 C         -11.8259   -0.2598   -0.1888 C.ar    1  LIG1        0.1605
     30 N          -9.5752   -0.1738   -0.1302 N.ar    1  LIG1       -0.1226
     31 N         -11.8740   -1.5891   -0.1008 N.ar    1  LIG1       -0.1338
     32 N         -10.7096    0.4601   -0.2051 N.ar    1  LIG1       -0.1338
     33 H         -12.7649    0.2692   -0.2519 H       1  LIG1        0.1085
@<TRIPOS>BOND
     1     6     5    1
     2     7     1    1
     3     5     1   ar
     4     5     4   ar
     5     1     2   ar
     6    33    29    1
     7    18    10    1
     8    32    29   ar
     9    32    30   ar
    10    29    31   ar
    11    14    11    1
    12    30    27   ar
    13    31    28   ar
    14    10    11   ar
    15    10    12   ar
    16    11    13   ar
    17    27    28   ar
    18    27    23    1
    19     4    12    1
    20     4     3   ar
    21    24    23   ar
    22    24    20   ar
    23    12    15   ar
    24    23    22   ar
    25    13    20    1
    26    13    16   ar
    27    20    21   ar
    28    22    26    1
    29    22    21   ar
    30    21    25    1
    31    15    16   ar
    32    15    17    1
    33     2     8    1
    34     2     3   ar
    35    16    19    1
    36     3     9    1
