@<TRIPOS>MOLECULE
mol_data/opt/m06hf/geoms/mol2/1341312-.out
 35 38 0 0 0
SMALL
GASTEIGER

@<TRIPOS>ATOM
      1 C           1.2468    0.1394   -0.3368 C.ar    1  LIG1        0.0022
      2 C           0.9229    0.9698    0.7091 C.ar    1  LIG1       -0.0438
      3 C          -0.4505    0.7514    1.0086 C.ar    1  LIG1       -0.0364
      4 C          -0.9164   -0.2084    0.1359 C.ar    1  LIG1        0.0465
      5 N           0.1305   -0.5720   -0.6675 N.ar    1  LIG1       -0.3607
      6 H           0.0471   -1.1967   -1.4532 H       1  LIG1        0.1653
      7 H           2.1722    0.0047   -0.8690 H       1  LIG1        0.0807
      8 H           1.5949    1.6483    1.2063 H       1  LIG1        0.0633
      9 H          -1.0275    1.2086    1.7955 H       1  LIG1        0.0639
     10 C          -3.4034   -0.0568    0.1813 C.ar    1  LIG1       -0.0520
     11 C          -4.6610   -0.6329    0.0742 C.ar    1  LIG1       -0.0520
     12 C          -2.2492   -0.8263    0.0011 C.ar    1  LIG1       -0.0017
     13 C          -4.7985   -1.9876   -0.2469 C.ar    1  LIG1       -0.0017
     14 H          -5.5494   -0.0388    0.2446 H       1  LIG1        0.0624
     15 C          -2.3865   -2.1840   -0.3033 C.ar    1  LIG1       -0.0520
     16 C          -3.6461   -2.7544   -0.4417 C.ar    1  LIG1       -0.0520
     17 H          -1.5029   -2.8004   -0.4165 H       1  LIG1        0.0624
     18 H          -3.3034    0.9983    0.4006 H       1  LIG1        0.0624
     19 H          -3.7352   -3.7979   -0.7191 H       1  LIG1        0.0624
     20 C          -6.1404   -2.5839   -0.3781 C.ar    1  LIG1        0.0470
     21 C          -7.3154   -2.0589   -0.8778 C.ar    1  LIG1       -0.0357
     22 C          -8.3118   -3.0636   -0.7731 C.ar    1  LIG1       -0.0328
     23 C          -7.7133   -4.1704   -0.2101 C.ar    1  LIG1        0.0825
     24 N          -6.3997   -3.8685    0.0143 N.ar    1  LIG1       -0.3518
     25 H          -5.7560   -4.4428    0.5355 H       1  LIG1        0.1660
     26 H          -7.4254   -1.0763   -1.3051 H       1  LIG1        0.0639
     27 H          -9.3416   -3.0072   -1.0820 H       1  LIG1        0.0640
     28 C          -8.2735   -5.4710    0.1320 C.ar    1  LIG1        0.1509
     29 C          -7.7225   -6.6770    0.4411 C.ar    1  LIG1       -0.0144
     30 C          -8.8278   -7.5641    0.6877 C.ar    1  LIG1       -0.0233
     31 C          -9.9458   -6.8239    0.4994 C.ar    1  LIG1        0.0926
     32 O          -9.6193   -5.5568    0.1661 O.2     1  LIG1       -0.4615
     33 H         -10.9966   -7.0429    0.5641 H       1  LIG1        0.1029
     34 H          -6.6737   -6.9200    0.4689 H       1  LIG1        0.0656
     35 H          -8.7825   -8.6044    0.9591 H       1  LIG1        0.0649
@<TRIPOS>BOND
     1     6     5    1
     2    26    21    1
     3    27    22    1
     4    21    22   ar
     5    21    20   ar
     6     7     1    1
     7    22    23   ar
     8    19    16    1
     9     5     1   ar
    10     5     4   ar
    11    16    15   ar
    12    16    13   ar
    13    17    15    1
    14    20    13    1
    15    20    24   ar
    16     1     2   ar
    17    15    12   ar
    18    13    11   ar
    19    23    24   ar
    20    23    28    1
    21    12     4    1
    22    12    10   ar
    23    24    25    1
    24    11    10   ar
    25    11    14    1
    26    28    32   ar
    27    28    29   ar
    28     4     3   ar
    29    32    31   ar
    30    10    18    1
    31    29    34    1
    32    29    30   ar
    33    31    33    1
    34    31    30   ar
    35    30    35    1
    36     2     3   ar
    37     2     8    1
    38     3     9    1
