@<TRIPOS>MOLECULE
mol_data/opt/m06hf/geoms/mol2/1344.out
 30 32 0 0 0
SMALL
GASTEIGER

@<TRIPOS>ATOM
      1 C           1.3072   -0.2062    0.0938 C.ar    1  LIG1        0.0022
      2 C           0.8976    1.0828   -0.1491 C.ar    1  LIG1       -0.0438
      3 C          -0.5227    1.0639   -0.2273 C.ar    1  LIG1       -0.0364
      4 C          -0.9306   -0.2385   -0.0316 C.ar    1  LIG1        0.0465
      5 N           0.1953   -0.9944    0.1548 N.ar    1  LIG1       -0.3607
      6 H           0.1844   -1.9708    0.4010 H       1  LIG1        0.1653
      7 H           2.2917   -0.6187    0.2317 H       1  LIG1        0.0807
      8 H           1.5423    1.9370   -0.2668 H       1  LIG1        0.0633
      9 H          -1.1751    1.8944   -0.4411 H       1  LIG1        0.0639
     10 C          -3.3611   -0.1232    0.5012 C.ar    1  LIG1       -0.0521
     11 C          -4.6348   -0.6766    0.5077 C.ar    1  LIG1       -0.0534
     12 C          -2.2787   -0.8372   -0.0208 C.ar    1  LIG1       -0.0017
     13 C          -4.8594   -1.9625    0.0066 C.ar    1  LIG1       -0.0178
     14 H          -5.4598   -0.1229    0.9387 H       1  LIG1        0.0624
     15 C          -2.5032   -2.1189   -0.5326 C.ar    1  LIG1       -0.0521
     16 C          -3.7761   -2.6763   -0.5119 C.ar    1  LIG1       -0.0534
     17 H          -1.6861   -2.6671   -0.9866 H       1  LIG1        0.0624
     18 H          -3.1904    0.8572    0.9268 H       1  LIG1        0.0624
     19 H          -3.9406   -3.6590   -0.9364 H       1  LIG1        0.0624
     20 C          -7.3388   -1.7952   -0.3450 C.ar    1  LIG1       -0.0540
     21 C          -8.6143   -2.3511   -0.3289 C.ar    1  LIG1       -0.0612
     22 C          -6.2271   -2.5589    0.0229 C.ar    1  LIG1       -0.0179
     23 C          -8.7937   -3.6786    0.0519 C.ar    1  LIG1       -0.0617
     24 H          -9.4653   -1.7504   -0.6222 H       1  LIG1        0.0618
     25 C          -6.4166   -3.8899    0.4056 C.ar    1  LIG1       -0.0540
     26 C          -7.6915   -4.4470    0.4183 C.ar    1  LIG1       -0.0612
     27 H          -5.5631   -4.4798    0.7168 H       1  LIG1        0.0624
     28 H          -9.7856   -4.1113    0.0632 H       1  LIG1        0.0618
     29 H          -7.1966   -0.7711   -0.6674 H       1  LIG1        0.0624
     30 H          -7.8245   -5.4769    0.7228 H       1  LIG1        0.0618
@<TRIPOS>BOND
     1    17    15    1
     2    19    16    1
     3    29    20    1
     4    24    21    1
     5    15    16   ar
     6    15    12   ar
     7    16    13   ar
     8     9     3    1
     9    20    21   ar
    10    20    22   ar
    11    21    23   ar
    12     8     2    1
    13     3     2   ar
    14     3     4   ar
    15     2     1   ar
    16     4    12    1
    17     4     5   ar
    18    12    10   ar
    19    13    22    1
    20    13    11   ar
    21    22    25   ar
    22    23    28    1
    23    23    26   ar
    24     1     5   ar
    25     1     7    1
    26     5     6    1
    27    25    26   ar
    28    25    27    1
    29    26    30    1
    30    10    11   ar
    31    10    18    1
    32    11    14    1
