@<TRIPOS>MOLECULE
mol_data/opt/m06hf/geoms/mol2/1345-.out
 27 29 0 0 0
SMALL
GASTEIGER

@<TRIPOS>ATOM
      1 C           1.3028   -0.1701   -0.0022 C.ar    1  LIG1        0.0022
      2 C           0.8529    1.1284   -0.0003 C.ar    1  LIG1       -0.0438
      3 C          -0.5658    1.0769    0.0011 C.ar    1  LIG1       -0.0364
      4 C          -0.9401   -0.2531    0.0002 C.ar    1  LIG1        0.0465
      5 N           0.2149   -0.9903   -0.0018 N.ar    1  LIG1       -0.3607
      6 H           0.2603   -1.9949   -0.0029 H       1  LIG1        0.1653
      7 H           2.3016   -0.5706   -0.0037 H       1  LIG1        0.0807
      8 H           1.4695    2.0113    0.0001 H       1  LIG1        0.0633
      9 H          -1.2340    1.9215    0.0028 H       1  LIG1        0.0639
     10 C          -3.4217   -0.0642    0.0024 C.ar    1  LIG1       -0.0520
     11 C          -4.6918   -0.6197    0.0036 C.ar    1  LIG1       -0.0529
     12 C          -2.2785   -0.8711    0.0012 C.ar    1  LIG1       -0.0017
     13 C          -4.8755   -2.0064    0.0033 C.ar    1  LIG1       -0.0113
     14 H          -5.5491    0.0426    0.0048 H       1  LIG1        0.0624
     15 C          -2.4633   -2.2576    0.0010 C.ar    1  LIG1       -0.0520
     16 C          -3.7347   -2.8140    0.0019 C.ar    1  LIG1       -0.0529
     17 H          -1.6169   -2.9327   -0.0000 H       1  LIG1        0.0624
     18 H          -3.3178    1.0120    0.0026 H       1  LIG1        0.0624
     19 H          -3.8326   -3.8909    0.0012 H       1  LIG1        0.0624
     20 C          -6.2280   -2.6083    0.0045 C.ar    1  LIG1        0.0193
     21 C          -6.5705   -3.9307    0.0080 C.ar    1  LIG1       -0.0469
     22 C          -7.9858   -4.1495    0.0079 C.ar    1  LIG1       -0.0541
     23 C          -8.6898   -2.9872    0.0043 C.ar    1  LIG1       -0.0237
     24 S          -7.6511   -1.6158    0.0016 S.2     1  LIG1       -0.0967
     25 H          -9.7591   -2.8552    0.0034 H       1  LIG1        0.0693
     26 H          -5.8508   -4.7354    0.0108 H       1  LIG1        0.0629
     27 H          -8.4440   -5.1271    0.0103 H       1  LIG1        0.0623
@<TRIPOS>BOND
     1     7     1    1
     2     6     5    1
     3     1     5   ar
     4     1     2   ar
     5     5     4   ar
     6     2     8    1
     7     2     3   ar
     8    17    15    1
     9     4     3   ar
    10     4    12    1
    11    15    12   ar
    12    15    16   ar
    13     3     9    1
    14    12    10   ar
    15    19    16    1
    16    24    23   ar
    17    24    20   ar
    18    16    13   ar
    19    10    18    1
    20    10    11   ar
    21    13    11   ar
    22    13    20    1
    23    25    23    1
    24    11    14    1
    25    23    22   ar
    26    20    21   ar
    27    22    21   ar
    28    22    27    1
    29    21    26    1
