@<TRIPOS>MOLECULE
mol_data/opt/m06hf/geoms/mol2/13454-.out
 37 40 0 0 0
SMALL
GASTEIGER

@<TRIPOS>ATOM
      1 C           1.3116    0.1206   -0.2145 C.ar    1  LIG1        0.0022
      2 C           0.9293    1.0965    0.6737 C.ar    1  LIG1       -0.0438
      3 C          -0.4633    0.9275    0.9085 C.ar    1  LIG1       -0.0364
      4 C          -0.8820   -0.1498    0.1566 C.ar    1  LIG1        0.0465
      5 N           0.2120   -0.6301   -0.5118 N.ar    1  LIG1       -0.3607
      6 H           0.1762   -1.3638   -1.2010 H       1  LIG1        0.1653
      7 H           2.2687   -0.0931   -0.6575 H       1  LIG1        0.0807
      8 H           1.5745    1.8391    1.1109 H       1  LIG1        0.0633
      9 H          -1.0852    1.4969    1.5795 H       1  LIG1        0.0639
     10 C          -3.3645    0.0159    0.0686 C.ar    1  LIG1       -0.0520
     11 C          -4.6218   -0.5625   -0.0273 C.ar    1  LIG1       -0.0529
     12 C          -2.2112   -0.7746    0.0279 C.ar    1  LIG1       -0.0017
     13 C          -4.7593   -1.9442   -0.2006 C.ar    1  LIG1       -0.0113
     14 H          -5.5089    0.0540    0.0408 H       1  LIG1        0.0624
     15 C          -2.3498   -2.1578   -0.1224 C.ar    1  LIG1       -0.0520
     16 C          -3.6073   -2.7344   -0.2483 C.ar    1  LIG1       -0.0529
     17 H          -1.4705   -2.7903   -0.1175 H       1  LIG1        0.0624
     18 H          -3.2648    1.0887    0.1724 H       1  LIG1        0.0624
     19 H          -3.6973   -3.8049   -0.3874 H       1  LIG1        0.0624
     20 C          -6.1057   -2.5425   -0.3273 C.ar    1  LIG1        0.0199
     21 C          -7.2061   -2.0134   -0.9393 C.ar    1  LIG1       -0.0463
     22 C          -8.3518   -2.8663   -0.8636 C.ar    1  LIG1       -0.0463
     23 C          -8.1071   -4.0312   -0.1949 C.ar    1  LIG1        0.0199
     24 S          -6.4694   -4.0882    0.3647 S.2     1  LIG1       -0.0883
     25 H          -7.1906   -1.0662   -1.4589 H       1  LIG1        0.0629
     26 H          -9.3052   -2.6424   -1.3203 H       1  LIG1        0.0629
     27 C          -8.6338   -6.4724    0.0138 C.ar    1  LIG1       -0.0535
     28 C          -9.5380   -7.5021    0.2524 C.ar    1  LIG1       -0.0612
     29 C          -9.0515   -5.1397    0.0710 C.ar    1  LIG1       -0.0113
     30 C         -10.8686   -7.2128    0.5428 C.ar    1  LIG1       -0.0617
     31 H          -9.2044   -8.5301    0.2015 H       1  LIG1        0.0618
     32 C         -10.3860   -4.8550    0.3756 C.ar    1  LIG1       -0.0535
     33 C         -11.2903   -5.8865    0.6018 C.ar    1  LIG1       -0.0612
     34 H         -10.7023   -3.8228    0.4541 H       1  LIG1        0.0624
     35 H         -11.5712   -8.0151    0.7255 H       1  LIG1        0.0618
     36 H          -7.6052   -6.6996   -0.2382 H       1  LIG1        0.0624
     37 H         -12.3208   -5.6546    0.8373 H       1  LIG1        0.0618
@<TRIPOS>BOND
     1    25    21    1
     2    26    22    1
     3     6     5    1
     4    21    22   ar
     5    21    20   ar
     6    22    23   ar
     7     7     1    1
     8     5     1   ar
     9     5     4   ar
    10    19    16    1
    11    20    13    1
    12    20    24   ar
    13    16    13   ar
    14    16    15   ar
    15    36    27    1
    16     1     2   ar
    17    13    11   ar
    18    23    29    1
    19    23    24   ar
    20    15    17    1
    21    15    12   ar
    22    11    14    1
    23    11    10   ar
    24    27    29   ar
    25    27    28   ar
    26    12    10   ar
    27    12     4    1
    28    10    18    1
    29    29    32   ar
    30     4     3   ar
    31    31    28    1
    32    28    30   ar
    33    32    34    1
    34    32    33   ar
    35    30    33   ar
    36    30    35    1
    37    33    37    1
    38     2     3   ar
    39     2     8    1
    40     3     9    1
