@<TRIPOS>MOLECULE
mol_data/opt/m06hf/geoms/mol2/1348-.out
 26 28 0 0 0
SMALL
GASTEIGER

@<TRIPOS>ATOM
      1 C           1.2707   -0.2077   -0.0017 C.ar    1  LIG1        0.0022
      2 C           0.8332    1.0962   -0.0006 C.ar    1  LIG1       -0.0438
      3 C          -0.5843    1.0578    0.0006 C.ar    1  LIG1       -0.0364
      4 C          -0.9714   -0.2694    0.0004 C.ar    1  LIG1        0.0465
      5 N           0.1773   -1.0173   -0.0011 N.ar    1  LIG1       -0.3607
      6 H           0.2152   -2.0222   -0.0018 H       1  LIG1        0.1653
      7 H           2.2660   -0.6169   -0.0029 H       1  LIG1        0.0807
      8 H           1.4581    1.9727   -0.0007 H       1  LIG1        0.0633
      9 H          -1.2440    1.9094    0.0018 H       1  LIG1        0.0639
     10 C          -3.4475   -0.0492    0.0017 C.ar    1  LIG1       -0.0520
     11 C          -4.7234   -0.5884    0.0027 C.ar    1  LIG1       -0.0503
     12 C          -2.3137   -0.8737    0.0014 C.ar    1  LIG1       -0.0017
     13 C          -4.8960   -1.9746    0.0034 C.ar    1  LIG1        0.0227
     14 H          -5.5925    0.0552    0.0029 H       1  LIG1        0.0625
     15 C          -2.5042   -2.2614    0.0022 C.ar    1  LIG1       -0.0520
     16 C          -3.7791   -2.8093    0.0031 C.ar    1  LIG1       -0.0503
     17 H          -1.6608   -2.9394    0.0021 H       1  LIG1        0.0624
     18 H          -3.3285    1.0251    0.0011 H       1  LIG1        0.0624
     19 H          -3.9169   -3.8819    0.0037 H       1  LIG1        0.0625
     20 C          -6.2577   -2.5564    0.0044 C.ar    1  LIG1        0.2033
     21 N          -6.3777   -3.8880    0.0049 N.ar    1  LIG1       -0.1258
     22 C          -8.6016   -3.5576    0.0061 C.ar    1  LIG1        0.1605
     23 N          -7.3026   -1.7224    0.0048 N.ar    1  LIG1       -0.1258
     24 N          -7.5712   -4.3985    0.0058 N.ar    1  LIG1       -0.1339
     25 N          -8.4967   -2.2319    0.0057 N.ar    1  LIG1       -0.1339
     26 H          -9.5944   -3.9819    0.0069 H       1  LIG1        0.1085
@<TRIPOS>BOND
     1     7     1    1
     2     6     5    1
     3     1     5   ar
     4     1     2   ar
     5     5     4   ar
     6     8     2    1
     7     2     3   ar
     8     4     3   ar
     9     4    12    1
    10     3     9    1
    11    18    10    1
    12    12    10   ar
    13    12    15   ar
    14    10    11   ar
    15    17    15    1
    16    15    16   ar
    17    11    14    1
    18    11    13   ar
    19    16    13   ar
    20    16    19    1
    21    13    20    1
    22    20    23   ar
    23    20    21   ar
    24    23    25   ar
    25    21    24   ar
    26    25    22   ar
    27    24    22   ar
    28    22    26    1
