@<TRIPOS>MOLECULE
mol_data/opt/m06hf/geoms/mol2/1348-8.out
 32 35 0 0 0
SMALL
GASTEIGER

@<TRIPOS>ATOM
      1 C           1.3053   -0.1845   -0.0026 C.ar    1  LIG1        0.0022
      2 C           0.8645    1.1185   -0.0009 C.ar    1  LIG1       -0.0438
      3 C          -0.5525    1.0767    0.0003 C.ar    1  LIG1       -0.0364
      4 C          -0.9363   -0.2518    0.0002 C.ar    1  LIG1        0.0465
      5 N           0.2142   -0.9969   -0.0017 N.ar    1  LIG1       -0.3607
      6 H           0.2555   -2.0018   -0.0025 H       1  LIG1        0.1653
      7 H           2.3018   -0.5909   -0.0041 H       1  LIG1        0.0807
      8 H           1.4874    1.9965   -0.0009 H       1  LIG1        0.0633
      9 H          -1.2137    1.9271    0.0017 H       1  LIG1        0.0639
     10 C          -3.4124   -0.0355    0.0017 C.ar    1  LIG1       -0.0520
     11 C          -4.6869   -0.5771    0.0029 C.ar    1  LIG1       -0.0503
     12 C          -2.2769   -0.8586    0.0014 C.ar    1  LIG1       -0.0017
     13 C          -4.8547   -1.9647    0.0038 C.ar    1  LIG1        0.0227
     14 H          -5.5578    0.0642    0.0031 H       1  LIG1        0.0625
     15 C          -2.4632   -2.2474    0.0024 C.ar    1  LIG1       -0.0520
     16 C          -3.7362   -2.7985    0.0036 C.ar    1  LIG1       -0.0503
     17 H          -1.6180   -2.9228    0.0024 H       1  LIG1        0.0624
     18 H          -3.2951    1.0389    0.0008 H       1  LIG1        0.0624
     19 H          -3.8716   -3.8714    0.0043 H       1  LIG1        0.0625
     20 C          -6.2114   -2.5490    0.0051 C.ar    1  LIG1        0.2034
     21 N          -6.3303   -3.8823    0.0058 N.ar    1  LIG1       -0.1251
     22 C          -8.5531   -3.5590    0.0073 C.ar    1  LIG1        0.2435
     23 N          -7.2624   -1.7203    0.0056 N.ar    1  LIG1       -0.1251
     24 N          -7.5191   -4.3965    0.0069 N.ar    1  LIG1       -0.1218
     25 N          -8.4524   -2.2323    0.0067 N.ar    1  LIG1       -0.1218
     26 C          -9.9255   -4.1517    0.0087 C.ar    1  LIG1        0.2434
     27 N         -10.9573   -3.3108    0.0091 N.ar    1  LIG1       -0.1224
     28 C         -12.2470   -5.1541    0.0108 C.ar    1  LIG1        0.1605
     29 N         -10.0209   -5.4793    0.0092 N.ar    1  LIG1       -0.1224
     30 N         -12.1504   -3.8274    0.0102 N.ar    1  LIG1       -0.1338
     31 N         -11.2150   -5.9935    0.0103 N.ar    1  LIG1       -0.1338
     32 H         -13.2385   -5.5824    0.0116 H       1  LIG1        0.1085
@<TRIPOS>BOND
     1     7     1    1
     2     1     5   ar
     3     1     2   ar
     4     6     5    1
     5     5     4   ar
     6     2     8    1
     7     2     3   ar
     8     4     3   ar
     9     4    12    1
    10     3     9    1
    11    18    10    1
    12    12    10   ar
    13    12    15   ar
    14    10    11   ar
    15    15    17    1
    16    15    16   ar
    17    11    14    1
    18    11    13   ar
    19    16    13   ar
    20    16    19    1
    21    13    20    1
    22    20    23   ar
    23    20    21   ar
    24    23    25   ar
    25    21    24   ar
    26    25    22   ar
    27    24    22   ar
    28    22    26    1
    29    26    27   ar
    30    26    29   ar
    31    27    30   ar
    32    29    31   ar
    33    30    28   ar
    34    31    28   ar
    35    28    32    1
