@<TRIPOS>MOLECULE
mol_data/opt/m06hf/geoms/mol2/135-8-4-.out
 33 36 0 0 0
SMALL
GASTEIGER

@<TRIPOS>ATOM
      1 C           1.2657   -0.1956   -0.4428 C.ar    1  LIG1        0.0022
      2 C           0.9429    0.9580    0.2330 C.ar    1  LIG1       -0.0438
      3 C          -0.4429    0.8915    0.5397 C.ar    1  LIG1       -0.0359
      4 C          -0.9149   -0.3042    0.0402 C.ar    1  LIG1        0.0531
      5 N           0.1371   -0.9507   -0.5500 N.ar    1  LIG1       -0.3603
      6 H           0.0536   -1.8179   -1.0555 H       1  LIG1        0.1653
      7 H           2.2012   -0.5307   -0.8557 H       1  LIG1        0.0807
      8 H           1.6230    1.7535    0.4848 H       1  LIG1        0.0633
      9 H          -1.0276    1.6120    1.0873 H       1  LIG1        0.0639
     10 C          -2.2488   -0.9042    0.0751 C.ar    1  LIG1        0.0361
     11 C          -2.5733   -2.2298    0.2075 C.ar    1  LIG1       -0.0448
     12 C          -3.9805   -2.4509    0.1965 C.ar    1  LIG1       -0.0432
     13 C          -4.6828   -1.2860    0.0627 C.ar    1  LIG1        0.0604
     14 S          -3.6501    0.0892   -0.0760 S.2     1  LIG1       -0.0836
     15 H          -1.8382   -3.0087    0.3489 H       1  LIG1        0.0630
     16 H          -4.4620   -3.4119    0.2992 H       1  LIG1        0.0630
     17 C          -6.1363   -1.1373    0.0348 C.ar    1  LIG1        0.2099
     18 N          -6.8904   -2.2336    0.1742 N.ar    1  LIG1       -0.1247
     19 C          -8.6840   -0.8634   -0.0110 C.ar    1  LIG1        0.2034
     20 N          -6.6376    0.0897   -0.1293 N.ar    1  LIG1       -0.1247
     21 N          -8.1761   -2.0909    0.1503 N.ar    1  LIG1       -0.1252
     22 N          -7.9251    0.2267   -0.1520 N.ar    1  LIG1       -0.1252
     23 C         -10.9796   -1.8214    0.1458 C.ar    1  LIG1       -0.0509
     24 C         -12.3611   -1.6672    0.1238 C.ar    1  LIG1       -0.0611
     25 C         -10.1593   -0.7063   -0.0348 C.ar    1  LIG1        0.0226
     26 C         -12.9216   -0.4074   -0.0779 C.ar    1  LIG1       -0.0617
     27 H         -12.9992   -2.5295    0.2644 H       1  LIG1        0.0618
     28 C         -10.7165    0.5579   -0.2368 C.ar    1  LIG1       -0.0509
     29 C         -12.0989    0.7026   -0.2585 C.ar    1  LIG1       -0.0611
     30 H         -10.0627    1.4085   -0.3740 H       1  LIG1        0.0625
     31 H         -13.9973   -0.2904   -0.0947 H       1  LIG1        0.0618
     32 H         -10.5283   -2.7919    0.3009 H       1  LIG1        0.0625
     33 H         -12.5337    1.6806   -0.4158 H       1  LIG1        0.0618
@<TRIPOS>BOND
     1     6     5    1
     2     7     1    1
     3     5     1   ar
     4     5     4   ar
     5     1     2   ar
     6    33    29    1
     7    30    28    1
     8    29    28   ar
     9    29    26   ar
    10    28    25   ar
    11    22    20   ar
    12    22    19   ar
    13    20    17   ar
    14    31    26    1
    15    26    24   ar
    16    14    13   ar
    17    14    10   ar
    18    25    19    1
    19    25    23   ar
    20    19    21   ar
    21    17    13    1
    22    17    18   ar
    23     4    10    1
    24     4     3   ar
    25    13    12   ar
    26    10    11   ar
    27    24    23   ar
    28    24    27    1
    29    23    32    1
    30    21    18   ar
    31    12    11   ar
    32    12    16    1
    33    11    15    1
    34     2     8    1
    35     2     3   ar
    36     3     9    1
