@<TRIPOS>MOLECULE
mol_data/opt/m06hf/geoms/mol2/135-5-.out
 24 26 0 0 0
SMALL
GASTEIGER

@<TRIPOS>ATOM
      1 C           1.2326   -0.3027   -0.4466 C.ar    1  LIG1        0.0022
      2 C           0.9044    0.9699   -0.0433 C.ar    1  LIG1       -0.0438
      3 C          -0.4863    0.9728    0.2511 C.ar    1  LIG1       -0.0359
      4 C          -0.9559   -0.3020    0.0175 C.ar    1  LIG1        0.0531
      5 N           0.1013   -1.0618   -0.4033 N.ar    1  LIG1       -0.3603
      6 H           0.0172   -2.0168   -0.7123 H       1  LIG1        0.1653
      7 H           2.1730   -0.7199   -0.7616 H       1  LIG1        0.0807
      8 H           1.5847    1.8006    0.0381 H       1  LIG1        0.0633
      9 H          -1.0759    1.7957    0.6194 H       1  LIG1        0.0639
     10 C          -2.2936   -0.8815    0.1569 C.ar    1  LIG1        0.0361
     11 C          -2.6322   -2.1260    0.6078 C.ar    1  LIG1       -0.0449
     12 C          -4.0445   -2.3486    0.6080 C.ar    1  LIG1       -0.0458
     13 C          -4.7495   -1.2698    0.1561 C.ar    1  LIG1        0.0265
     14 S          -3.6932    0.0228   -0.2989 S.2     1  LIG1       -0.0863
     15 H          -1.9063   -2.8378    0.9741 H       1  LIG1        0.0630
     16 H          -4.5220   -3.2492    0.9655 H       1  LIG1        0.0629
     17 C          -6.2069   -1.1654    0.0181 C.ar    1  LIG1        0.0259
     18 C          -7.0604   -2.1373   -0.4193 C.ar    1  LIG1       -0.0464
     19 C          -8.4291   -1.7156   -0.4112 C.ar    1  LIG1       -0.0541
     20 C          -8.5739   -0.4344    0.0215 C.ar    1  LIG1       -0.0237
     21 S          -7.0652    0.2740    0.4454 S.2     1  LIG1       -0.0961
     22 H          -9.4837    0.1355    0.1171 H       1  LIG1        0.0693
     23 H          -6.7176   -3.1034   -0.7590 H       1  LIG1        0.0629
     24 H          -9.2546   -2.3357   -0.7268 H       1  LIG1        0.0623
@<TRIPOS>BOND
     1     7     1    1
     2    23    18    1
     3    24    19    1
     4     6     5    1
     5     1     5   ar
     6     1     2   ar
     7    18    19   ar
     8    18    17   ar
     9    19    20   ar
    10     5     4   ar
    11    14    13   ar
    12    14    10   ar
    13     2     8    1
    14     2     3   ar
    15     4    10    1
    16     4     3   ar
    17    17    13    1
    18    17    21   ar
    19    20    22    1
    20    20    21   ar
    21    13    12   ar
    22    10    11   ar
    23     3     9    1
    24    11    12   ar
    25    11    15    1
    26    12    16    1
