@<TRIPOS>MOLECULE
mol_data/opt/m06hf/geoms/mol2/135-13-12-.out
 32 35 0 0 0
SMALL
GASTEIGER

@<TRIPOS>ATOM
      1 C           1.3269   -0.2620   -0.0012 C.ar    1  LIG1        0.0022
      2 C           0.8854    1.0393    0.0002 C.ar    1  LIG1       -0.0438
      3 C          -0.5346    0.9987    0.0009 C.ar    1  LIG1       -0.0359
      4 C          -0.9110   -0.3293    0.0003 C.ar    1  LIG1        0.0531
      5 N           0.2347   -1.0773   -0.0010 N.ar    1  LIG1       -0.3603
      6 H           0.2664   -2.0832   -0.0022 H       1  LIG1        0.1653
      7 H           2.3236   -0.6681   -0.0022 H       1  LIG1        0.0807
      8 H           1.5071    1.9177    0.0005 H       1  LIG1        0.0633
      9 H          -1.2060    1.8417    0.0021 H       1  LIG1        0.0639
     10 C          -2.2363   -0.9460    0.0007 C.ar    1  LIG1        0.0361
     11 C          -2.5797   -2.2678    0.0022 C.ar    1  LIG1       -0.0449
     12 C          -3.9936   -2.4831    0.0022 C.ar    1  LIG1       -0.0449
     13 C          -4.7090   -1.3209    0.0007 C.ar    1  LIG1        0.0361
     14 S          -3.6497    0.0519   -0.0010 S.2     1  LIG1       -0.0853
     15 H          -1.8637   -3.0773    0.0037 H       1  LIG1        0.0630
     16 H          -4.4521   -3.4610    0.0035 H       1  LIG1        0.0630
     17 C          -6.1615   -1.1625    0.0002 C.ar    1  LIG1        0.0537
     18 C          -7.1631   -2.1176   -0.0001 C.ar    1  LIG1       -0.0352
     19 C          -8.4036   -1.4358   -0.0004 C.ar    1  LIG1       -0.0328
     20 C          -8.1226   -0.0841   -0.0004 C.ar    1  LIG1        0.0825
     21 N          -6.7674    0.0620    0.0000 N.ar    1  LIG1       -0.3514
     22 H          -6.3068    0.9609    0.0003 H       1  LIG1        0.1660
     23 H          -7.0112   -3.1836   -0.0002 H       1  LIG1        0.0639
     24 H          -9.3880   -1.8732   -0.0007 H       1  LIG1        0.0640
     25 C          -8.9883    1.0871   -0.0007 C.ar    1  LIG1        0.1509
     26 C         -10.3355    1.2645   -0.0011 C.ar    1  LIG1       -0.0144
     27 C         -10.5448    2.6890   -0.0011 C.ar    1  LIG1       -0.0233
     28 C          -9.3140    3.2500   -0.0009 C.ar    1  LIG1        0.0926
     29 O          -8.3626    2.2875   -0.0006 O.2     1  LIG1       -0.4615
     30 H          -8.9634    4.2664   -0.0009 H       1  LIG1        0.1029
     31 H         -11.0807    0.4879   -0.0012 H       1  LIG1        0.0656
     32 H         -11.4859    3.2114   -0.0014 H       1  LIG1        0.0649
@<TRIPOS>BOND
     1     6     5    1
     2     7     1    1
     3    32    27    1
     4    31    26    1
     5     1     5   ar
     6     1     2   ar
     7    27    26   ar
     8    27    28   ar
     9    26    25   ar
    10     5     4   ar
    11    14    13   ar
    12    14    10   ar
    13    28    30    1
    14    28    29   ar
    15    24    19    1
    16    25    29   ar
    17    25    20    1
    18    19    20   ar
    19    19    18   ar
    20    20    21   ar
    21    23    18    1
    22    18    17   ar
    23    21    17   ar
    24    21    22    1
    25     2     8    1
    26     2     3   ar
    27    17    13    1
    28     4    10    1
    29     4     3   ar
    30    13    12   ar
    31    10    11   ar
    32     3     9    1
    33    12    11   ar
    34    12    16    1
    35    11    15    1
