@<TRIPOS>MOLECULE
mol_data/opt/m06hf/geoms/mol2/135-12-.out
 24 26 0 0 0
SMALL
GASTEIGER

@<TRIPOS>ATOM
      1 C           1.2219   -0.2379   -0.4151 C.ar    1  LIG1        0.0022
      2 C           0.8970    0.9628    0.1707 C.ar    1  LIG1       -0.0438
      3 C          -0.4949    0.9283    0.4577 C.ar    1  LIG1       -0.0359
      4 C          -0.9689   -0.2963    0.0371 C.ar    1  LIG1        0.0531
      5 N           0.0872   -0.9896   -0.4882 N.ar    1  LIG1       -0.3603
      6 H           0.0027   -1.8912   -0.9291 H       1  LIG1        0.1653
      7 H           2.1614   -0.6090   -0.7853 H       1  LIG1        0.0807
      8 H           1.5802    1.7689    0.3767 H       1  LIG1        0.0633
      9 H          -1.0830    1.6908    0.9414 H       1  LIG1        0.0639
     10 C          -2.3076   -0.8864    0.0922 C.ar    1  LIG1        0.0361
     11 C          -2.6450   -2.1863    0.3476 C.ar    1  LIG1       -0.0448
     12 C          -4.0560   -2.4067    0.3176 C.ar    1  LIG1       -0.0433
     13 C          -4.7581   -1.2670    0.0488 C.ar    1  LIG1        0.0550
     14 S          -3.7063    0.0845   -0.1991 S.2     1  LIG1       -0.0837
     15 H          -1.9185   -2.9490    0.5895 H       1  LIG1        0.0630
     16 H          -4.5231   -3.3619    0.5072 H       1  LIG1        0.0630
     17 C          -6.2049   -1.1066   -0.0409 C.ar    1  LIG1        0.1413
     18 C          -7.2481   -1.9746    0.0610 C.ar    1  LIG1       -0.0154
     19 C          -8.4361   -1.1870   -0.1228 C.ar    1  LIG1       -0.0233
     20 C          -8.0136    0.0845   -0.3195 C.ar    1  LIG1        0.0926
     21 O          -6.6665    0.1423   -0.2715 O.2     1  LIG1       -0.4624
     22 H          -8.5250    1.0131   -0.4985 H       1  LIG1        0.1029
     23 H          -7.1846   -3.0339    0.2419 H       1  LIG1        0.0655
     24 H          -9.4565   -1.5293   -0.1084 H       1  LIG1        0.0649
@<TRIPOS>BOND
     1     6     5    1
     2     7     1    1
     3    22    20    1
     4     5     1   ar
     5     5     4   ar
     6     1     2   ar
     7    20    21   ar
     8    20    19   ar
     9    21    17   ar
    10    14    13   ar
    11    14    10   ar
    12    19    24    1
    13    19    18   ar
    14    17    13    1
    15    17    18   ar
    16     4    10    1
    17     4     3   ar
    18    13    12   ar
    19    18    23    1
    20    10    11   ar
    21     2     8    1
    22     2     3   ar
    23    12    11   ar
    24    12    16    1
    25    11    15    1
    26     3     9    1
