@<TRIPOS>MOLECULE
mol_data/opt/m06hf/geoms/mol2/135-13-.out
 25 27 0 0 0
SMALL
GASTEIGER

@<TRIPOS>ATOM
      1 C           1.2537   -0.3176   -0.4211 C.ar    1  LIG1        0.0022
      2 C           0.9211    0.9663   -0.0589 C.ar    1  LIG1       -0.0438
      3 C          -0.4749    0.9796    0.2099 C.ar    1  LIG1       -0.0359
      4 C          -0.9434   -0.3002    0.0022 C.ar    1  LIG1        0.0531
      5 N           0.1195   -1.0726   -0.3790 N.ar    1  LIG1       -0.3603
      6 H           0.0388   -2.0357   -0.6623 H       1  LIG1        0.1653
      7 H           2.1986   -0.7452   -0.7076 H       1  LIG1        0.0807
      8 H           1.6020    1.7975    0.0122 H       1  LIG1        0.0633
      9 H          -1.0689    1.8137    0.5438 H       1  LIG1        0.0639
     10 C          -2.2850   -0.8732    0.1306 C.ar    1  LIG1        0.0361
     11 C          -2.6379   -2.1092    0.5921 C.ar    1  LIG1       -0.0449
     12 C          -4.0527   -2.3264    0.5785 C.ar    1  LIG1       -0.0449
     13 C          -4.7479   -1.2528    0.1049 C.ar    1  LIG1        0.0361
     14 S          -3.6763    0.0251   -0.3669 S.2     1  LIG1       -0.0853
     15 H          -1.9206   -2.8190    0.9791 H       1  LIG1        0.0630
     16 H          -4.5384   -3.2203    0.9414 H       1  LIG1        0.0630
     17 C          -6.1983   -1.1261   -0.0515 C.ar    1  LIG1        0.0531
     18 C          -7.1354   -2.0509   -0.4589 C.ar    1  LIG1       -0.0359
     19 C          -8.4035   -1.4080   -0.4301 C.ar    1  LIG1       -0.0438
     20 C          -8.1944   -0.1150   -0.0128 C.ar    1  LIG1        0.0022
     21 N          -6.8588    0.0441    0.2096 N.ar    1  LIG1       -0.3603
     22 H          -6.4197    0.8750    0.5737 H       1  LIG1        0.1653
     23 H          -8.8845    0.6960    0.1426 H       1  LIG1        0.0807
     24 H          -6.9154   -3.0585   -0.7687 H       1  LIG1        0.0639
     25 H          -9.3537   -1.8394   -0.6947 H       1  LIG1        0.0633
@<TRIPOS>BOND
     1    24    18    1
     2     7     1    1
     3    25    19    1
     4     6     5    1
     5    18    19   ar
     6    18    17   ar
     7    19    20   ar
     8     1     5   ar
     9     1     2   ar
    10     5     4   ar
    11    14    13   ar
    12    14    10   ar
    13     2     8    1
    14     2     3   ar
    15    17    13    1
    16    17    21   ar
    17    20    23    1
    18    20    21   ar
    19     4    10    1
    20     4     3   ar
    21    13    12   ar
    22    10    11   ar
    23    21    22    1
    24     3     9    1
    25    12    11   ar
    26    12    16    1
    27    11    15    1
