@<TRIPOS>MOLECULE
mol_data/opt/m06hf/geoms/mol2/135-58.out
 30 33 0 0 0
SMALL
GASTEIGER

@<TRIPOS>ATOM
      1 C           1.2910   -0.0604   -0.1751 C.ar    1  LIG1        0.0022
      2 C           0.9211    0.9372    0.6961 C.ar    1  LIG1       -0.0438
      3 C          -0.4742    0.7977    0.9272 C.ar    1  LIG1       -0.0359
      4 C          -0.9048   -0.2837    0.1880 C.ar    1  LIG1        0.0531
      5 N           0.1804   -0.7921   -0.4722 N.ar    1  LIG1       -0.3603
      6 H           0.1312   -1.5448   -1.1400 H       1  LIG1        0.1653
      7 H           2.2480   -0.3010   -0.6038 H       1  LIG1        0.0807
      8 H           1.5772    1.6762    1.1237 H       1  LIG1        0.0633
      9 H          -1.0921    1.3928    1.5791 H       1  LIG1        0.0639
     10 C          -2.2280   -0.8932    0.0483 C.ar    1  LIG1        0.0361
     11 C          -2.5412   -2.2188   -0.0718 C.ar    1  LIG1       -0.0449
     12 C          -3.9455   -2.4455   -0.2087 C.ar    1  LIG1       -0.0458
     13 C          -4.6720   -1.2887   -0.1773 C.ar    1  LIG1        0.0265
     14 S          -3.6466    0.0931    0.0052 S.2     1  LIG1       -0.0863
     15 H          -1.8027   -3.0066   -0.0332 H       1  LIG1        0.0630
     16 H          -4.3938   -3.4211   -0.3321 H       1  LIG1        0.0629
     17 C          -6.1254   -1.1319   -0.2737 C.ar    1  LIG1        0.0266
     18 C          -6.8238   -0.0916   -0.8305 C.ar    1  LIG1       -0.0457
     19 C          -8.2332   -0.2769   -0.7498 C.ar    1  LIG1       -0.0432
     20 C          -8.5635   -1.4524   -0.1360 C.ar    1  LIG1        0.0604
     21 S          -7.1748   -2.3408    0.3707 S.2     1  LIG1       -0.0845
     22 H          -6.3470    0.7562   -1.3002 H       1  LIG1        0.0629
     23 H          -8.9748    0.4096   -1.1309 H       1  LIG1        0.0630
     24 C          -9.9117   -1.9622    0.1094 C.ar    1  LIG1        0.2098
     25 N         -10.9475   -1.2239   -0.3064 N.ar    1  LIG1       -0.1253
     26 C         -12.2528   -2.8463    0.5499 C.ar    1  LIG1        0.1605
     27 N         -10.0314   -3.1349    0.7372 N.ar    1  LIG1       -0.1253
     28 N         -12.1413   -1.6776   -0.0800 N.ar    1  LIG1       -0.1339
     29 N         -11.2284   -3.5864    0.9625 N.ar    1  LIG1       -0.1339
     30 H         -13.2478   -3.2192    0.7390 H       1  LIG1        0.1085
@<TRIPOS>BOND
     1    22    18    1
     2     6     5    1
     3    23    19    1
     4    18    19   ar
     5    18    17   ar
     6    19    20   ar
     7     7     1    1
     8     5     1   ar
     9     5     4   ar
    10    16    12    1
    11    25    28   ar
    12    25    24   ar
    13    17    13    1
    14    17    21   ar
    15    12    13   ar
    16    12    11   ar
    17    13    14   ar
    18     1     2   ar
    19    20    24    1
    20    20    21   ar
    21    28    26   ar
    22    11    15    1
    23    11    10   ar
    24    14    10   ar
    25    10     4    1
    26    24    27   ar
    27     4     3   ar
    28    26    30    1
    29    26    29   ar
    30     2     3   ar
    31     2     8    1
    32    27    29   ar
    33     3     9    1
