@<TRIPOS>MOLECULE
mol_data/opt/m06hf/geoms/mol2/135-5-13.out
 32 35 0 0 0
SMALL
GASTEIGER

@<TRIPOS>ATOM
      1 C           1.3346   -0.4575   -0.5731 C.ar    1  LIG1        0.0022
      2 C           1.0281    0.8691   -0.3823 C.ar    1  LIG1       -0.0438
      3 C          -0.3583    0.9409   -0.0757 C.ar    1  LIG1       -0.0359
      4 C          -0.8471   -0.3479   -0.0892 C.ar    1  LIG1        0.0531
      5 N           0.1946   -1.1823   -0.3909 N.ar    1  LIG1       -0.3603
      6 H           0.0952   -2.1737   -0.5397 H       1  LIG1        0.1653
      7 H           2.2642   -0.9363   -0.8261 H       1  LIG1        0.0807
      8 H           1.7190    1.6925   -0.4481 H       1  LIG1        0.0633
      9 H          -0.9328    1.8218    0.1580 H       1  LIG1        0.0639
     10 C          -2.1904   -0.8750    0.1585 C.ar    1  LIG1        0.0361
     11 C          -2.5413   -2.0276    0.8039 C.ar    1  LIG1       -0.0449
     12 C          -3.9569   -2.2231    0.8557 C.ar    1  LIG1       -0.0458
     13 C          -4.6516   -1.2165    0.2477 C.ar    1  LIG1        0.0265
     14 S          -3.5814   -0.0299   -0.4179 S.2     1  LIG1       -0.0863
     15 H          -1.8206   -2.6848    1.2693 H       1  LIG1        0.0630
     16 H          -4.4437   -3.0473    1.3556 H       1  LIG1        0.0629
     17 C          -6.1078   -1.1097    0.1059 C.ar    1  LIG1        0.0265
     18 C          -6.9762   -2.1184   -0.1978 C.ar    1  LIG1       -0.0458
     19 C          -8.3388   -1.6857   -0.2259 C.ar    1  LIG1       -0.0449
     20 C          -8.4752   -0.3516    0.0361 C.ar    1  LIG1        0.0361
     21 S          -6.9434    0.3894    0.3369 S.2     1  LIG1       -0.0863
     22 H          -6.6487   -3.1268   -0.4034 H       1  LIG1        0.0629
     23 H          -9.1795   -2.3396   -0.4091 H       1  LIG1        0.0630
     24 C          -9.7055    0.4427    0.0595 C.ar    1  LIG1        0.0531
     25 C         -10.1071    1.4806    0.8729 C.ar    1  LIG1       -0.0359
     26 C         -11.4045    1.8741    0.4447 C.ar    1  LIG1       -0.0438
     27 C         -11.7463    1.0658   -0.6134 C.ar    1  LIG1        0.0022
     28 N         -10.7133    0.2044   -0.8347 N.ar    1  LIG1       -0.3603
     29 H         -10.6460   -0.4537   -1.5943 H       1  LIG1        0.1653
     30 H         -12.6337    1.0398   -1.2217 H       1  LIG1        0.0807
     31 H          -9.5403    1.8819    1.6964 H       1  LIG1        0.0639
     32 H         -12.0169    2.6522    0.8675 H       1  LIG1        0.0633
@<TRIPOS>BOND
     1    29    28    1
     2    30    27    1
     3    28    27   ar
     4    28    24   ar
     5     7     1    1
     6    27    26   ar
     7     1     5   ar
     8     1     2   ar
     9     6     5    1
    10     8     2    1
    11    14    10   ar
    12    14    13   ar
    13    23    19    1
    14    22    18    1
    15     5     4   ar
    16     2     3   ar
    17    19    18   ar
    18    19    20   ar
    19    18    17   ar
    20     4     3   ar
    21     4    10    1
    22     3     9    1
    23    20    24    1
    24    20    21   ar
    25    24    25   ar
    26    17    13    1
    27    17    21   ar
    28    10    11   ar
    29    13    12   ar
    30    26    32    1
    31    26    25   ar
    32    11    12   ar
    33    11    15    1
    34    12    16    1
    35    25    31    1
