@<TRIPOS>MOLECULE
mol_data/opt/m06hf/geoms/mol2/135-.out
 17 18 0 0 0
SMALL
GASTEIGER

@<TRIPOS>ATOM
      1 C           1.2061   -0.2658   -0.0006 C.ar    1  LIG1        0.0022
      2 C           0.7754    1.0393    0.0004 C.ar    1  LIG1       -0.0438
      3 C          -0.6455    1.0109    0.0009 C.ar    1  LIG1       -0.0359
      4 C          -1.0328   -0.3133    0.0001 C.ar    1  LIG1        0.0531
      5 N           0.1062   -1.0712   -0.0008 N.ar    1  LIG1       -0.3603
      6 H           0.1256   -2.0774   -0.0018 H       1  LIG1        0.1653
      7 H           2.1988   -0.6807   -0.0013 H       1  LIG1        0.0807
      8 H           1.4050    1.9127    0.0007 H       1  LIG1        0.0633
      9 H          -1.3108    1.8587    0.0018 H       1  LIG1        0.0639
     10 C          -2.3644   -0.9213    0.0002 C.ar    1  LIG1        0.0354
     11 C          -2.7084   -2.2434    0.0015 C.ar    1  LIG1       -0.0455
     12 C          -4.1273   -2.4511    0.0012 C.ar    1  LIG1       -0.0541
     13 C          -4.8231   -1.2854   -0.0001 C.ar    1  LIG1       -0.0237
     14 S          -3.7732    0.0827   -0.0013 S.2     1  LIG1       -0.0952
     15 H          -5.8913   -1.1455   -0.0005 H       1  LIG1        0.0693
     16 H          -1.9945   -3.0545    0.0028 H       1  LIG1        0.0629
     17 H          -4.5917   -3.4258    0.0021 H       1  LIG1        0.0623
@<TRIPOS>BOND
     1     6     5    1
     2    14    13   ar
     3    14    10   ar
     4     7     1    1
     5     5     1   ar
     6     5     4   ar
     7     1     2   ar
     8    15    13    1
     9    13    12   ar
    10     4    10    1
    11     4     3   ar
    12    10    11   ar
    13     2     8    1
    14     2     3   ar
    15     3     9    1
    16    12    11   ar
    17    12    17    1
    18    11    16    1
