@<TRIPOS>MOLECULE
mol_data/opt/m06hf/geoms/mol2/135-4-8.out
 33 36 0 0 0
SMALL
GASTEIGER

@<TRIPOS>ATOM
      1 C           1.3142   -0.3568   -0.5900 C.ar    1  LIG1        0.0022
      2 C           1.0181    0.9331   -0.2178 C.ar    1  LIG1       -0.0438
      3 C          -0.3636    0.9686    0.1150 C.ar    1  LIG1       -0.0359
      4 C          -0.8597   -0.3052   -0.0647 C.ar    1  LIG1        0.0531
      5 N           0.1730   -1.0950   -0.4912 N.ar    1  LIG1       -0.3603
      6 H           0.0654   -2.0572   -0.7689 H       1  LIG1        0.1653
      7 H           2.2382   -0.7997   -0.9182 H       1  LIG1        0.0807
      8 H           1.7134    1.7542   -0.1814 H       1  LIG1        0.0633
      9 H          -0.9281    1.8127    0.4747 H       1  LIG1        0.0639
     10 C          -2.1996   -0.8599    0.1343 C.ar    1  LIG1        0.0360
     11 C          -2.5416   -2.0908    0.6205 C.ar    1  LIG1       -0.0449
     12 C          -3.9557   -2.2969    0.6590 C.ar    1  LIG1       -0.0463
     13 C          -4.6629   -1.2172    0.2112 C.ar    1  LIG1        0.0200
     14 S          -3.6031    0.0537   -0.2941 S.2     1  LIG1       -0.0868
     15 H          -1.8149   -2.8051    0.9809 H       1  LIG1        0.0630
     16 H          -4.4266   -3.1884    1.0471 H       1  LIG1        0.0629
     17 C          -6.9259   -2.1665   -0.2170 C.ar    1  LIG1       -0.0529
     18 C          -8.3065   -2.0454   -0.2817 C.ar    1  LIG1       -0.0503
     19 C          -6.1311   -1.0677    0.1299 C.ar    1  LIG1       -0.0113
     20 C          -8.9079   -0.8145   -0.0131 C.ar    1  LIG1        0.0227
     21 H          -8.9258   -2.8902   -0.5516 H       1  LIG1        0.0625
     22 C          -6.7448    0.1610    0.3972 C.ar    1  LIG1       -0.0529
     23 C          -8.1244    0.2907    0.3234 C.ar    1  LIG1       -0.0503
     24 H          -6.1395    1.0118    0.6831 H       1  LIG1        0.0624
     25 H          -6.4528   -3.1092   -0.4578 H       1  LIG1        0.0624
     26 H          -8.6034    1.2377    0.5315 H       1  LIG1        0.0625
     27 C         -10.3823   -0.6777   -0.0938 C.ar    1  LIG1        0.2033
     28 N         -10.9209    0.5172    0.1684 N.ar    1  LIG1       -0.1258
     29 C         -12.9153   -0.4387   -0.2370 C.ar    1  LIG1        0.1605
     30 N         -11.1015   -1.7548   -0.4251 N.ar    1  LIG1       -0.1258
     31 N         -12.2116    0.6403    0.0958 N.ar    1  LIG1       -0.1339
     32 N         -12.3927   -1.6332   -0.4987 N.ar    1  LIG1       -0.1339
     33 H         -13.9883   -0.3360   -0.3004 H       1  LIG1        0.1085
@<TRIPOS>BOND
     1     7     1    1
     2     6     5    1
     3     1     5   ar
     4     1     2   ar
     5    21    18    1
     6    32    30   ar
     7    32    29   ar
     8     5     4   ar
     9    25    17    1
    10    30    27   ar
    11    33    29    1
    12    14    10   ar
    13    14    13   ar
    14    18    17   ar
    15    18    20   ar
    16    29    31   ar
    17     2     8    1
    18     2     3   ar
    19    17    19   ar
    20    27    20    1
    21    27    28   ar
    22     4     3   ar
    23     4    10    1
    24    20    23   ar
    25    31    28   ar
    26     3     9    1
    27    19    13    1
    28    19    22   ar
    29    10    11   ar
    30    13    12   ar
    31    23    22   ar
    32    23    26    1
    33    22    24    1
    34    11    12   ar
    35    11    15    1
    36    12    16    1
