@<TRIPOS>MOLECULE
mol_data/opt/m06hf/geoms/mol2/135-4.out
 27 29 0 0 0
SMALL
GASTEIGER

@<TRIPOS>ATOM
      1 C           1.2677   -0.3207   -0.4646 C.ar    1  LIG1        0.0022
      2 C           0.9393    0.9716   -0.1293 C.ar    1  LIG1       -0.0438
      3 C          -0.4529    0.9908    0.1580 C.ar    1  LIG1       -0.0359
      4 C          -0.9235   -0.2937   -0.0121 C.ar    1  LIG1        0.0531
      5 N           0.1348   -1.0750   -0.3884 N.ar    1  LIG1       -0.3603
      6 H           0.0509   -2.0445   -0.6481 H       1  LIG1        0.1653
      7 H           2.2091   -0.7548   -0.7534 H       1  LIG1        0.0807
      8 H           1.6204    1.8044   -0.0875 H       1  LIG1        0.0633
      9 H          -1.0433    1.8320    0.4805 H       1  LIG1        0.0639
     10 C          -2.2629   -0.8636    0.1504 C.ar    1  LIG1        0.0360
     11 C          -2.6059   -2.0864    0.6538 C.ar    1  LIG1       -0.0449
     12 C          -4.0188   -2.3089    0.6503 C.ar    1  LIG1       -0.0463
     13 C          -4.7240   -1.2510    0.1525 C.ar    1  LIG1        0.0200
     14 S          -3.6608    0.0184   -0.3498 S.2     1  LIG1       -0.0868
     15 H          -1.8835   -2.7818    1.0566 H       1  LIG1        0.0630
     16 H          -4.4925   -3.1962    1.0451 H       1  LIG1        0.0629
     17 C          -6.8346    0.0970    0.2383 C.ar    1  LIG1       -0.0535
     18 C          -8.2158    0.1979    0.1098 C.ar    1  LIG1       -0.0612
     19 C          -6.1922   -1.1241    0.0129 C.ar    1  LIG1       -0.0113
     20 C          -8.9712   -0.9197   -0.2353 C.ar    1  LIG1       -0.0617
     21 H          -8.7023    1.1477    0.2886 H       1  LIG1        0.0618
     22 C          -6.9547   -2.2400   -0.3455 C.ar    1  LIG1       -0.0535
     23 C          -8.3366   -2.1391   -0.4609 C.ar    1  LIG1       -0.0612
     24 H          -6.4557   -3.1776   -0.5536 H       1  LIG1        0.0624
     25 H         -10.0458   -0.8404   -0.3328 H       1  LIG1        0.0618
     26 H          -6.2522    0.9616    0.5322 H       1  LIG1        0.0624
     27 H          -8.9163   -3.0094   -0.7394 H       1  LIG1        0.0618
@<TRIPOS>BOND
     1     7     1    1
     2    27    23    1
     3     6     5    1
     4    24    22    1
     5     1     5   ar
     6     1     2   ar
     7    23    22   ar
     8    23    20   ar
     9     5     4   ar
    10    14    10   ar
    11    14    13   ar
    12    22    19   ar
    13    25    20    1
    14    20    18   ar
    15     2     8    1
    16     2     3   ar
    17     4    10    1
    18     4     3   ar
    19    19    13    1
    20    19    17   ar
    21    18    17   ar
    22    18    21    1
    23    10    11   ar
    24    13    12   ar
    25     3     9    1
    26    17    26    1
    27    12    11   ar
    28    12    16    1
    29    11    15    1
