@<TRIPOS>MOLECULE
mol_data/opt/m06hf/geoms/mol2/135-8-.out
 23 25 0 0 0
SMALL
GASTEIGER

@<TRIPOS>ATOM
      1 C           1.2163   -0.2480   -0.3526 C.ar    1  LIG1        0.0022
      2 C           0.8775    0.9599    0.2112 C.ar    1  LIG1       -0.0438
      3 C          -0.5203    0.9299    0.4615 C.ar    1  LIG1       -0.0359
      4 C          -0.9839   -0.2999    0.0428 C.ar    1  LIG1        0.0531
      5 N           0.0850   -1.0011   -0.4456 N.ar    1  LIG1       -0.3603
      6 H           0.0144   -1.9073   -0.8796 H       1  LIG1        0.1653
      7 H           2.1648   -0.6227   -0.6952 H       1  LIG1        0.0807
      8 H           1.5556    1.7679    0.4259 H       1  LIG1        0.0633
      9 H          -1.1193    1.6989    0.9212 H       1  LIG1        0.0639
     10 C          -2.3228   -0.8866    0.0750 C.ar    1  LIG1        0.0361
     11 C          -2.6596   -2.1983    0.2928 C.ar    1  LIG1       -0.0448
     12 C          -4.0664   -2.4139    0.2536 C.ar    1  LIG1       -0.0432
     13 C          -4.7577   -1.2596    0.0158 C.ar    1  LIG1        0.0604
     14 S          -3.7127    0.0984   -0.1930 S.2     1  LIG1       -0.0836
     15 H          -1.9347   -2.9680    0.5153 H       1  LIG1        0.0630
     16 H          -4.5567   -3.3634    0.4105 H       1  LIG1        0.0630
     17 C          -6.2096   -1.1159   -0.0643 C.ar    1  LIG1        0.2098
     18 N          -6.9563   -2.2168    0.0887 N.ar    1  LIG1       -0.1253
     19 C          -8.7354   -0.8678   -0.1992 C.ar    1  LIG1        0.1605
     20 N          -6.7090    0.1029   -0.2852 N.ar    1  LIG1       -0.1253
     21 N          -8.2448   -2.0873    0.0198 N.ar    1  LIG1       -0.1339
     22 N          -8.0008    0.2288   -0.3538 N.ar    1  LIG1       -0.1339
     23 H          -9.8084   -0.7637   -0.2552 H       1  LIG1        0.1085
@<TRIPOS>BOND
     1     6     5    1
     2     7     1    1
     3     5     1   ar
     4     5     4   ar
     5    22    20   ar
     6    22    19   ar
     7     1     2   ar
     8    20    17   ar
     9    23    19    1
    10    19    21   ar
    11    14    13   ar
    12    14    10   ar
    13    17    13    1
    14    17    18   ar
    15    13    12   ar
    16    21    18   ar
    17     4    10    1
    18     4     3   ar
    19    10    11   ar
    20     2     8    1
    21     2     3   ar
    22    12    11   ar
    23    12    16    1
    24    11    15    1
    25     3     9    1
