@<TRIPOS>MOLECULE
mol_data/opt/m06hf/geoms/mol2/135.out
 17 18 0 0 0
SMALL
GASTEIGER

@<TRIPOS>ATOM
      1 C           1.1865   -0.2840   -0.0006 C.ar    1  LIG1        0.0022
      2 C           0.7935    1.0331    0.0008 C.ar    1  LIG1       -0.0438
      3 C          -0.6264    1.0472    0.0015 C.ar    1  LIG1       -0.0359
      4 C          -1.0537   -0.2650    0.0003 C.ar    1  LIG1        0.0531
      5 N           0.0633   -1.0564   -0.0009 N.ar    1  LIG1       -0.3603
      6 H           0.0587   -2.0639   -0.0021 H       1  LIG1        0.1653
      7 H           2.1667   -0.7274   -0.0014 H       1  LIG1        0.0807
      8 H           1.4484    1.8873    0.0014 H       1  LIG1        0.0633
      9 H          -1.2651    1.9143    0.0028 H       1  LIG1        0.0639
     10 C          -2.4107   -0.8152    0.0002 C.ar    1  LIG1        0.0354
     11 C          -3.5892   -0.1284   -0.0018 C.ar    1  LIG1       -0.0455
     12 C          -4.7371   -0.9880   -0.0012 C.ar    1  LIG1       -0.0541
     13 C          -4.4073   -2.3049    0.0010 C.ar    1  LIG1       -0.0237
     14 S          -2.6967   -2.5265    0.0030 S.2     1  LIG1       -0.0952
     15 H          -5.0618   -3.1603    0.0018 H       1  LIG1        0.0693
     16 H          -3.6426    0.9497   -0.0039 H       1  LIG1        0.0629
     17 H          -5.7558   -0.6300   -0.0027 H       1  LIG1        0.0623
@<TRIPOS>BOND
     1    16    11    1
     2    17    12    1
     3     6     5    1
     4    11    12   ar
     5    11    10   ar
     6     7     1    1
     7    12    13   ar
     8     5     1   ar
     9     5     4   ar
    10     1     2   ar
    11    10     4    1
    12    10    14   ar
    13     4     3   ar
    14     2     8    1
    15     2     3   ar
    16    13    15    1
    17    13    14   ar
    18     3     9    1
