@<TRIPOS>MOLECULE
mol_data/opt/m06hf/geoms/mol2/13512-.out
 24 26 0 0 0
SMALL
GASTEIGER

@<TRIPOS>ATOM
      1 C           1.2265   -0.1707   -0.2035 C.ar    1  LIG1        0.0022
      2 C           0.8476    1.0296    0.3498 C.ar    1  LIG1       -0.0438
      3 C          -0.5650    0.9947    0.5031 C.ar    1  LIG1       -0.0359
      4 C          -0.9983   -0.2256    0.0310 C.ar    1  LIG1        0.0531
      5 N           0.1040   -0.9215   -0.3885 N.ar    1  LIG1       -0.3603
      6 H           0.0697   -1.8251   -0.8337 H       1  LIG1        0.1653
      7 H           2.1973   -0.5443   -0.4794 H       1  LIG1        0.0807
      8 H           1.5083    1.8342    0.6239 H       1  LIG1        0.0633
      9 H          -1.1985    1.7516    0.9343 H       1  LIG1        0.0639
     10 C          -2.3490   -0.7810   -0.0550 C.ar    1  LIG1        0.0361
     11 C          -3.5065   -0.1230   -0.3471 C.ar    1  LIG1       -0.0448
     12 C          -4.6554   -0.9762   -0.3235 C.ar    1  LIG1       -0.0433
     13 C          -4.3426   -2.2697   -0.0254 C.ar    1  LIG1        0.0550
     14 S          -2.6496   -2.4622    0.2708 S.2     1  LIG1       -0.0837
     15 H          -3.5319    0.9276   -0.5954 H       1  LIG1        0.0630
     16 H          -5.6644   -0.6558   -0.5362 H       1  LIG1        0.0630
     17 C          -5.2571   -3.4026    0.0547 C.ar    1  LIG1        0.1413
     18 C          -5.0799   -4.7370    0.2520 C.ar    1  LIG1       -0.0154
     19 C          -6.3939   -5.3190    0.2197 C.ar    1  LIG1       -0.0233
     20 C          -7.2491   -4.2912    0.0058 C.ar    1  LIG1        0.0926
     21 O          -6.5715   -3.1280   -0.0937 O.2     1  LIG1       -0.4624
     22 H          -8.3181   -4.2294   -0.0944 H       1  LIG1        0.1029
     23 H          -4.1408   -5.2434    0.3979 H       1  LIG1        0.0655
     24 H          -6.6533   -6.3567    0.3386 H       1  LIG1        0.0649
@<TRIPOS>BOND
     1     6     5    1
     2    15    11    1
     3    16    12    1
     4     7     1    1
     5     5     1   ar
     6     5     4   ar
     7    11    12   ar
     8    11    10   ar
     9    12    13   ar
    10     1     2   ar
    11    22    20    1
    12    21    20   ar
    13    21    17   ar
    14    10     4    1
    15    10    14   ar
    16    13    17    1
    17    13    14   ar
    18    20    19   ar
    19     4     3   ar
    20    17    18   ar
    21    19    18   ar
    22    19    24    1
    23    18    23    1
    24     2     3   ar
    25     2     8    1
    26     3     9    1
