@<TRIPOS>MOLECULE
mol_data/opt/m06hf/geoms/mol2/13513-13.out
 33 36 0 0 0
SMALL
GASTEIGER

@<TRIPOS>ATOM
      1 C           1.0236    0.1678   -1.0489 C.ar    1  LIG1        0.0022
      2 C           1.0125    0.9440    0.0858 C.ar    1  LIG1       -0.0438
      3 C          -0.2284    0.7138    0.7404 C.ar    1  LIG1       -0.0359
      4 C          -0.9327   -0.1917   -0.0235 C.ar    1  LIG1        0.0531
      5 N          -0.1548   -0.5155   -1.1024 N.ar    1  LIG1       -0.3603
      6 H          -0.4487   -1.1181   -1.8549 H       1  LIG1        0.1653
      7 H           1.7696    0.0514   -1.8154 H       1  LIG1        0.0807
      8 H           1.8068    1.5923    0.4139 H       1  LIG1        0.0633
      9 H          -0.5664    1.1292    1.6749 H       1  LIG1        0.0639
     10 C          -2.2636   -0.7675    0.1793 C.ar    1  LIG1        0.0361
     11 C          -3.3751   -0.1404    0.6607 C.ar    1  LIG1       -0.0449
     12 C          -4.5004   -1.0171    0.7778 C.ar    1  LIG1       -0.0449
     13 C          -4.2293   -2.2889    0.3601 C.ar    1  LIG1        0.0361
     14 S          -2.5841   -2.4387   -0.1542 S.2     1  LIG1       -0.0853
     15 H          -3.3873    0.9091    0.9143 H       1  LIG1        0.0630
     16 H          -5.4604   -0.7187    1.1751 H       1  LIG1        0.0630
     17 C          -5.1337   -3.4382    0.3115 C.ar    1  LIG1        0.0536
     18 C          -4.9116   -4.7814    0.5404 C.ar    1  LIG1       -0.0353
     19 C          -6.1532   -5.4487    0.3739 C.ar    1  LIG1       -0.0344
     20 C          -7.0952   -4.4909    0.0538 C.ar    1  LIG1        0.0633
     21 N          -6.4602   -3.2845    0.0207 N.ar    1  LIG1       -0.3526
     22 H          -6.9090   -2.4101   -0.2048 H       1  LIG1        0.1660
     23 H          -3.9655   -5.2187    0.8140 H       1  LIG1        0.0639
     24 H          -6.3388   -6.5075    0.4474 H       1  LIG1        0.0639
     25 C          -8.5289   -4.5975   -0.2203 C.ar    1  LIG1        0.0629
     26 C          -9.3310   -3.9549   -1.1396 C.ar    1  LIG1       -0.0350
     27 C         -10.6570   -4.4362   -0.9512 C.ar    1  LIG1       -0.0438
     28 C         -10.6146   -5.3553    0.0697 C.ar    1  LIG1        0.0022
     29 N          -9.3238   -5.4419    0.5018 N.ar    1  LIG1       -0.3595
     30 H          -8.9928   -5.9933    1.2775 H       1  LIG1        0.1654
     31 H         -11.3941   -5.9459    0.5186 H       1  LIG1        0.0807
     32 H          -8.9917   -3.2536   -1.8841 H       1  LIG1        0.0639
     33 H         -11.5337   -4.1506   -1.5068 H       1  LIG1        0.0633
@<TRIPOS>BOND
     1    32    26    1
     2     6     5    1
     3     7     1    1
     4    33    27    1
     5    26    27   ar
     6    26    25   ar
     7     5     1   ar
     8     5     4   ar
     9     1     2   ar
    10    27    28   ar
    11    25    20    1
    12    25    29   ar
    13    22    21    1
    14    14    10   ar
    15    14    13   ar
    16     4    10    1
    17     4     3   ar
    18    21    20   ar
    19    21    17   ar
    20    20    19   ar
    21    28    29   ar
    22    28    31    1
    23     2     8    1
    24     2     3   ar
    25    10    11   ar
    26    17    13    1
    27    17    18   ar
    28    13    12   ar
    29    19    24    1
    30    19    18   ar
    31    29    30    1
    32    18    23    1
    33    11    12   ar
    34    11    15    1
    35     3     9    1
    36    12    16    1
