@<TRIPOS>MOLECULE
mol_data/opt/m06hf/geoms/mol2/13512.out
 24 26 0 0 0
SMALL
GASTEIGER

@<TRIPOS>ATOM
      1 C           1.2253   -0.1460   -0.1829 C.ar    1  LIG1        0.0022
      2 C           0.8314    1.0527    0.3631 C.ar    1  LIG1       -0.0438
      3 C          -0.5823    1.0063    0.5039 C.ar    1  LIG1       -0.0359
      4 C          -1.0010   -0.2195    0.0323 C.ar    1  LIG1        0.0531
      5 N           0.1108   -0.9071   -0.3752 N.ar    1  LIG1       -0.3603
      6 H           0.0885   -1.8136   -0.8151 H       1  LIG1        0.1653
      7 H           2.2015   -0.5129   -0.4485 H       1  LIG1        0.0807
      8 H           1.4829    1.8636    0.6405 H       1  LIG1        0.0633
      9 H          -1.2258    1.7589    0.9275 H       1  LIG1        0.0639
     10 C          -2.3460   -0.7886   -0.0615 C.ar    1  LIG1        0.0361
     11 C          -3.5055   -0.1365   -0.3648 C.ar    1  LIG1       -0.0448
     12 C          -4.6451   -0.9992   -0.3576 C.ar    1  LIG1       -0.0433
     13 C          -4.3264   -2.2913   -0.0556 C.ar    1  LIG1        0.0550
     14 S          -2.6317   -2.4700    0.2521 S.2     1  LIG1       -0.0837
     15 H          -3.5360    0.9138   -0.6142 H       1  LIG1        0.0630
     16 H          -5.6492   -0.6770   -0.5918 H       1  LIG1        0.0630
     17 C          -5.2221   -3.4382    0.0386 C.ar    1  LIG1        0.1413
     18 C          -6.5771   -3.5615    0.0542 C.ar    1  LIG1       -0.0154
     19 C          -6.8441   -4.9688    0.1703 C.ar    1  LIG1       -0.0233
     20 C          -5.6334   -5.5747    0.2213 C.ar    1  LIG1        0.0926
     21 O          -4.6472   -4.6570    0.1411 O.2     1  LIG1       -0.4624
     22 H          -5.3248   -6.6008    0.3095 H       1  LIG1        0.1029
     23 H          -7.2931   -2.7593    0.0030 H       1  LIG1        0.0655
     24 H          -7.8054   -5.4505    0.2152 H       1  LIG1        0.0649
@<TRIPOS>BOND
     1     6     5    1
     2    15    11    1
     3    16    12    1
     4     7     1    1
     5     5     1   ar
     6     5     4   ar
     7    11    12   ar
     8    11    10   ar
     9    12    13   ar
    10     1     2   ar
    11    10     4    1
    12    10    14   ar
    13    13    17    1
    14    13    14   ar
    15    23    18    1
    16     4     3   ar
    17    17    18   ar
    18    17    21   ar
    19    18    19   ar
    20    21    20   ar
    21    19    24    1
    22    19    20   ar
    23    20    22    1
    24     2     3   ar
    25     2     8    1
    26     3     9    1
