@<TRIPOS>MOLECULE
mol_data/opt/m06hf/geoms/mol2/13513-.out
 25 27 0 0 0
SMALL
GASTEIGER

@<TRIPOS>ATOM
      1 C           1.2426   -0.1417    0.0122 C.ar    1  LIG1        0.0022
      2 C           0.8108    1.0987    0.4179 C.ar    1  LIG1       -0.0438
      3 C          -0.6106    1.0617    0.4431 C.ar    1  LIG1       -0.0359
      4 C          -0.9944   -0.2008    0.0453 C.ar    1  LIG1        0.0531
      5 N           0.1437   -0.9185   -0.2066 N.ar    1  LIG1       -0.3603
      6 H           0.1534   -1.8611   -0.5633 H       1  LIG1        0.1653
      7 H           2.2356   -0.5286   -0.1373 H       1  LIG1        0.0807
      8 H           1.4409    1.9321    0.6772 H       1  LIG1        0.0633
      9 H          -1.2839    1.8462    0.7446 H       1  LIG1        0.0639
     10 C          -2.3302   -0.7801   -0.1098 C.ar    1  LIG1        0.0361
     11 C          -3.4511   -0.1698   -0.5910 C.ar    1  LIG1       -0.0449
     12 C          -4.5925   -1.0338   -0.6008 C.ar    1  LIG1       -0.0449
     13 C          -4.3164   -2.2853   -0.1289 C.ar    1  LIG1        0.0361
     14 S          -2.6665   -2.4102    0.3737 S.2     1  LIG1       -0.0853
     15 H          -3.4480    0.8446   -0.9616 H       1  LIG1        0.0630
     16 H          -5.5600   -0.7533   -0.9923 H       1  LIG1        0.0630
     17 C          -5.2244   -3.4263    0.0060 C.ar    1  LIG1        0.0531
     18 C          -5.0274   -4.7766   -0.1911 C.ar    1  LIG1       -0.0359
     19 C          -6.2623   -5.4268    0.0797 C.ar    1  LIG1       -0.0438
     20 C          -7.1664   -4.4528    0.4322 C.ar    1  LIG1        0.0022
     21 N          -6.5278   -3.2495    0.3823 N.ar    1  LIG1       -0.3603
     22 H          -6.9158   -2.3618    0.6575 H       1  LIG1        0.1653
     23 H          -8.2017   -4.5239    0.7167 H       1  LIG1        0.0807
     24 H          -4.1073   -5.2302   -0.5193 H       1  LIG1        0.0639
     25 H          -6.4657   -6.4822    0.0161 H       1  LIG1        0.0633
@<TRIPOS>BOND
     1    16    12    1
     2    15    11    1
     3    12    11   ar
     4    12    13   ar
     5    11    10   ar
     6     6     5    1
     7    24    18    1
     8     5     1   ar
     9     5     4   ar
    10    18    17   ar
    11    18    19   ar
    12     7     1    1
    13    13    17    1
    14    13    14   ar
    15    10     4    1
    16    10    14   ar
    17    17    21   ar
    18     1     2   ar
    19    25    19    1
    20     4     3   ar
    21    19    20   ar
    22    21    20   ar
    23    21    22    1
    24     2     3   ar
    25     2     8    1
    26    20    23    1
    27     3     9    1
