@<TRIPOS>MOLECULE
mol_data/opt/m06hf/geoms/mol2/13512-4-.out
 34 37 0 0 0
SMALL
GASTEIGER

@<TRIPOS>ATOM
      1 C           1.3108   -0.1338   -0.4943 C.ar    1  LIG1        0.0022
      2 C           1.0415    0.9532    0.3034 C.ar    1  LIG1       -0.0438
      3 C          -0.3395    0.8993    0.6354 C.ar    1  LIG1       -0.0359
      4 C          -0.8647   -0.2176    0.0217 C.ar    1  LIG1        0.0531
      5 N           0.1530   -0.8354   -0.6544 N.ar    1  LIG1       -0.3603
      6 H           0.0345   -1.6461   -1.2417 H       1  LIG1        0.1653
      7 H           2.2264   -0.4571   -0.9578 H       1  LIG1        0.0807
      8 H           1.7552    1.6942    0.6208 H       1  LIG1        0.0633
      9 H          -0.8902    1.5718    1.2714 H       1  LIG1        0.0639
     10 C          -2.2314   -0.7405    0.0218 C.ar    1  LIG1        0.0361
     11 C          -3.3957   -0.0331   -0.0245 C.ar    1  LIG1       -0.0448
     12 C          -4.5578   -0.8669    0.0178 C.ar    1  LIG1       -0.0433
     13 C          -4.2496   -2.1945    0.0828 C.ar    1  LIG1        0.0550
     14 S          -2.5385   -2.4478    0.1266 S.2     1  LIG1       -0.0837
     15 H          -3.4175    1.0431   -0.1086 H       1  LIG1        0.0630
     16 H          -5.5750   -0.5060   -0.0106 H       1  LIG1        0.0630
     17 C          -5.1790   -3.3150    0.1302 C.ar    1  LIG1        0.1422
     18 C          -5.0206   -4.6584    0.2866 C.ar    1  LIG1       -0.0147
     19 C          -6.3393   -5.2170    0.2622 C.ar    1  LIG1       -0.0152
     20 C          -7.1970   -4.1712    0.0966 C.ar    1  LIG1        0.1357
     21 O          -6.4915   -3.0187    0.0119 O.2     1  LIG1       -0.4543
     22 H          -4.0880   -5.1831    0.4099 H       1  LIG1        0.0656
     23 H          -6.6018   -6.2570    0.3516 H       1  LIG1        0.0656
     24 C          -9.4634   -5.1927    0.2092 C.ar    1  LIG1       -0.0511
     25 C         -10.8455   -5.0905    0.1166 C.ar    1  LIG1       -0.0611
     26 C          -8.6606   -4.0680   -0.0013 C.ar    1  LIG1        0.0173
     27 C         -11.4404   -3.8662   -0.1828 C.ar    1  LIG1       -0.0617
     28 H         -11.4600   -5.9656    0.2824 H       1  LIG1        0.0618
     29 C          -9.2583   -2.8413   -0.3013 C.ar    1  LIG1       -0.0511
     30 C         -10.6427   -2.7443   -0.3897 C.ar    1  LIG1       -0.0611
     31 H          -8.6334   -1.9735   -0.4631 H       1  LIG1        0.0625
     32 H         -12.5172   -3.7884   -0.2524 H       1  LIG1        0.0618
     33 H          -9.0081   -6.1434    0.4541 H       1  LIG1        0.0625
     34 H         -11.0980   -1.7907   -0.6228 H       1  LIG1        0.0618
@<TRIPOS>BOND
     1     6     5    1
     2     7     1    1
     3     5     1   ar
     4     5     4   ar
     5    34    30    1
     6     1     2   ar
     7    31    29    1
     8    30    29   ar
     9    30    27   ar
    10    29    26   ar
    11    32    27    1
    12    27    25   ar
    13    15    11    1
    14    11    12   ar
    15    11    10   ar
    16    16    12    1
    17    26    20    1
    18    26    24   ar
    19    21    20   ar
    20    21    17   ar
    21    12    13   ar
    22     4    10    1
    23     4     3   ar
    24    10    14   ar
    25    13    14   ar
    26    13    17    1
    27    20    19   ar
    28    25    24   ar
    29    25    28    1
    30    17    18   ar
    31    24    33    1
    32    19    18   ar
    33    19    23    1
    34    18    22    1
    35     2     8    1
    36     2     3   ar
    37     3     9    1
