@<TRIPOS>MOLECULE
mol_data/opt/m06hf/geoms/mol2/1354.out
 27 29 0 0 0
SMALL
GASTEIGER

@<TRIPOS>ATOM
      1 C           1.2635   -0.0844    0.0664 C.ar    1  LIG1        0.0022
      2 C           0.8047    1.1505    0.4594 C.ar    1  LIG1       -0.0438
      3 C          -0.6163    1.0917    0.4554 C.ar    1  LIG1       -0.0359
      4 C          -0.9724   -0.1774    0.0534 C.ar    1  LIG1        0.0531
      5 N           0.1816   -0.8785   -0.1725 N.ar    1  LIG1       -0.3603
      6 H           0.2129   -1.8214   -0.5268 H       1  LIG1        0.1653
      7 H           2.2651   -0.4563   -0.0616 H       1  LIG1        0.0807
      8 H           1.4167    1.9940    0.7296 H       1  LIG1        0.0633
      9 H          -1.3081    1.8661    0.7412 H       1  LIG1        0.0639
     10 C          -2.2968   -0.7753   -0.1275 C.ar    1  LIG1        0.0360
     11 C          -3.4126   -0.1838   -0.6420 C.ar    1  LIG1       -0.0449
     12 C          -4.5490   -1.0532   -0.6469 C.ar    1  LIG1       -0.0463
     13 C          -4.2785   -2.2933   -0.1458 C.ar    1  LIG1        0.0200
     14 S          -2.6306   -2.3986    0.3779 S.2     1  LIG1       -0.0868
     15 H          -3.4094    0.8235   -1.0313 H       1  LIG1        0.0630
     16 H          -5.5152   -0.7830   -1.0483 H       1  LIG1        0.0629
     17 C          -6.5375   -3.2160    0.3453 C.ar    1  LIG1       -0.0535
     18 C          -7.4226   -4.2819    0.4609 C.ar    1  LIG1       -0.0612
     19 C          -5.2034   -3.4407   -0.0080 C.ar    1  LIG1       -0.0113
     20 C          -6.9827   -5.5850    0.2405 C.ar    1  LIG1       -0.0617
     21 H          -8.4526   -4.0957    0.7359 H       1  LIG1        0.0618
     22 C          -4.7676   -4.7506   -0.2283 C.ar    1  LIG1       -0.0535
     23 C          -5.6524   -5.8160   -0.0996 C.ar    1  LIG1       -0.0612
     24 H          -3.7395   -4.9307   -0.5177 H       1  LIG1        0.0624
     25 H          -7.6706   -6.4144    0.3383 H       1  LIG1        0.0618
     26 H          -6.8678   -2.2060    0.5503 H       1  LIG1        0.0624
     27 H          -5.3044   -6.8255   -0.2746 H       1  LIG1        0.0618
@<TRIPOS>BOND
     1    16    12    1
     2    15    11    1
     3    12    11   ar
     4    12    13   ar
     5    11    10   ar
     6     6     5    1
     7    24    22    1
     8    27    23    1
     9    22    23   ar
    10    22    19   ar
    11     5     4   ar
    12     5     1   ar
    13    13    19    1
    14    13    14   ar
    15    10     4    1
    16    10    14   ar
    17    23    20   ar
    18     7     1    1
    19    19    17   ar
    20     4     3   ar
    21     1     2   ar
    22    20    25    1
    23    20    18   ar
    24    17    18   ar
    25    17    26    1
    26     3     2   ar
    27     3     9    1
    28     2     8    1
    29    18    21    1
