@<TRIPOS>MOLECULE
mol_data/opt/m06hf/geoms/mol2/1358.out
 23 25 0 0 0
SMALL
GASTEIGER

@<TRIPOS>ATOM
      1 C           1.2126   -0.1798   -0.1889 C.ar    1  LIG1        0.0022
      2 C           0.8270    1.0367    0.3246 C.ar    1  LIG1       -0.0438
      3 C          -0.5856    1.0037    0.4671 C.ar    1  LIG1       -0.0359
      4 C          -1.0122   -0.2333    0.0313 C.ar    1  LIG1        0.0531
      5 N           0.0950   -0.9398   -0.3573 N.ar    1  LIG1       -0.3603
      6 H           0.0694   -1.8577   -0.7734 H       1  LIG1        0.1653
      7 H           2.1860   -0.5586   -0.4479 H       1  LIG1        0.0807
      8 H           1.4839    1.8511    0.5779 H       1  LIG1        0.0633
      9 H          -1.2230    1.7729    0.8698 H       1  LIG1        0.0639
     10 C          -2.3594   -0.7957   -0.0400 C.ar    1  LIG1        0.0361
     11 C          -3.5224   -0.1293   -0.3188 C.ar    1  LIG1       -0.0448
     12 C          -4.6617   -0.9844   -0.2964 C.ar    1  LIG1       -0.0432
     13 C          -4.3330   -2.2795   -0.0126 C.ar    1  LIG1        0.0604
     14 S          -2.6404   -2.4749    0.2709 S.2     1  LIG1       -0.0836
     15 H          -3.5513    0.9231   -0.5579 H       1  LIG1        0.0630
     16 H          -5.6770   -0.6750   -0.4971 H       1  LIG1        0.0630
     17 C          -5.2431   -3.4195    0.0605 C.ar    1  LIG1        0.2098
     18 N          -6.5467   -3.1969   -0.1500 N.ar    1  LIG1       -0.1253
     19 C          -6.8218   -5.4073    0.1802 C.ar    1  LIG1        0.1605
     20 N          -4.7216   -4.6193    0.3301 N.ar    1  LIG1       -0.1253
     21 N          -7.3497   -4.2136   -0.0883 N.ar    1  LIG1       -0.1339
     22 N          -5.5294   -5.6357    0.3907 N.ar    1  LIG1       -0.1339
     23 H          -7.4940   -6.2506    0.2303 H       1  LIG1        0.1085
@<TRIPOS>BOND
     1     6     5    1
     2    15    11    1
     3    16    12    1
     4     7     1    1
     5     5     1   ar
     6     5     4   ar
     7    11    12   ar
     8    11    10   ar
     9    12    13   ar
    10     1     2   ar
    11    18    21   ar
    12    18    17   ar
    13    21    19   ar
    14    10     4    1
    15    10    14   ar
    16    13    17    1
    17    13    14   ar
    18     4     3   ar
    19    17    20   ar
    20    19    23    1
    21    19    22   ar
    22     2     3   ar
    23     2     8    1
    24    20    22   ar
    25     3     9    1
