@<TRIPOS>MOLECULE
mol_data/opt/m06hf/geoms/mol2/138-1312.out
 31 34 0 0 0
SMALL
GASTEIGER

@<TRIPOS>ATOM
      1 C           1.1883   -0.3371   -0.0004 C.ar    1  LIG1        0.0023
      2 C           0.8365    0.9985   -0.0001 C.ar    1  LIG1       -0.0437
      3 C          -0.5785    1.0603   -0.0004 C.ar    1  LIG1       -0.0333
      4 C          -1.0328   -0.2431    0.0000 C.ar    1  LIG1        0.0875
      5 N           0.0505   -1.0745   -0.0000 N.ar    1  LIG1       -0.3582
      6 H          -0.0286   -2.0809    0.0001 H       1  LIG1        0.1654
      7 H           2.1566   -0.8064   -0.0005 H       1  LIG1        0.0807
      8 H           1.5205    1.8300   -0.0001 H       1  LIG1        0.0633
      9 H          -1.2063    1.9351   -0.0006 H       1  LIG1        0.0640
     10 C          -2.3796   -0.7914    0.0004 C.ar    1  LIG1        0.2194
     11 N          -2.5091   -2.1182    0.0007 N.ar    1  LIG1       -0.1237
     12 C          -4.7398   -1.7743    0.0008 C.ar    1  LIG1        0.2194
     13 N          -3.4209    0.0599    0.0003 N.ar    1  LIG1       -0.1237
     14 N          -3.7079   -2.6189    0.0009 N.ar    1  LIG1       -0.1237
     15 N          -4.6103   -0.4366    0.0005 N.ar    1  LIG1       -0.1237
     16 C          -6.0794   -2.3385    0.0010 C.ar    1  LIG1        0.0880
     17 C          -7.3200   -1.7282    0.0010 C.ar    1  LIG1       -0.0325
     18 C          -8.2837   -2.7600    0.0013 C.ar    1  LIG1       -0.0327
     19 C          -7.5938   -3.9634    0.0016 C.ar    1  LIG1        0.0826
     20 N          -6.2655   -3.6885    0.0014 N.ar    1  LIG1       -0.3492
     21 H          -5.5179   -4.3694    0.0015 H       1  LIG1        0.1661
     22 H          -7.4867   -0.6648    0.0008 H       1  LIG1        0.0640
     23 H          -9.3547   -2.6504    0.0014 H       1  LIG1        0.0640
     24 C          -8.0685   -5.3402    0.0020 C.ar    1  LIG1        0.1509
     25 C          -9.3043   -5.9049    0.0022 C.ar    1  LIG1       -0.0144
     26 C          -9.0862   -7.3265    0.0026 C.ar    1  LIG1       -0.0233
     27 C          -7.7434   -7.5001    0.0026 C.ar    1  LIG1        0.0926
     28 O          -7.1169   -6.3017    0.0022 O.2     1  LIG1       -0.4615
     29 H          -7.1103   -8.3692    0.0028 H       1  LIG1        0.1029
     30 H         -10.2453   -5.3832    0.0020 H       1  LIG1        0.0656
     31 H          -9.8323   -8.1021    0.0028 H       1  LIG1        0.0649
@<TRIPOS>BOND
     1     9     3    1
     2     7     1    1
     3     3     2   ar
     4     3     4   ar
     5     1     2   ar
     6     1     5   ar
     7     2     8    1
     8     5     4   ar
     9     5     6    1
    10     4    10    1
    11    13    10   ar
    12    13    15   ar
    13    10    11   ar
    14    15    12   ar
    15    11    14   ar
    16    12    14   ar
    17    12    16    1
    18    22    17    1
    19    17    16   ar
    20    17    18   ar
    21    16    20   ar
    22    18    23    1
    23    18    19   ar
    24    20    21    1
    25    20    19   ar
    26    19    24    1
    27    24    25   ar
    28    24    28   ar
    29    30    25    1
    30    25    26   ar
    31    28    27   ar
    32    26    27   ar
    33    26    31    1
    34    27    29    1
