@<TRIPOS>MOLECULE
mol_data/opt/m06hf/geoms/mol2/138-12.out
 23 25 0 0 0
SMALL
GASTEIGER

@<TRIPOS>ATOM
      1 C           1.1615   -0.2737   -0.0001 C.ar    1  LIG1        0.0023
      2 C           0.7651    1.0502    0.0001 C.ar    1  LIG1       -0.0437
      3 C          -0.6499    1.0647    0.0000 C.ar    1  LIG1       -0.0333
      4 C          -1.0604   -0.2538    0.0001 C.ar    1  LIG1        0.0875
      5 N           0.0497   -1.0483   -0.0000 N.ar    1  LIG1       -0.3582
      6 H           0.0034   -2.0569   -0.0000 H       1  LIG1        0.1654
      7 H           2.1455   -0.7096   -0.0002 H       1  LIG1        0.0807
      8 H           1.4211    1.9033    0.0001 H       1  LIG1        0.0633
      9 H          -1.3065    1.9184    0.0001 H       1  LIG1        0.0640
     10 C          -2.3866   -0.8476    0.0003 C.ar    1  LIG1        0.2194
     11 N          -2.4666   -2.1801    0.0003 N.ar    1  LIG1       -0.1236
     12 C          -4.6998   -1.9230    0.0004 C.ar    1  LIG1        0.2381
     13 N          -3.4567   -0.0369    0.0003 N.ar    1  LIG1       -0.1236
     14 N          -3.6423   -2.7319    0.0004 N.ar    1  LIG1       -0.1220
     15 N          -4.6247   -0.5843    0.0004 N.ar    1  LIG1       -0.1220
     16 C          -6.0437   -2.5012    0.0005 C.ar    1  LIG1        0.1751
     17 C          -7.2699   -1.9117    0.0007 C.ar    1  LIG1       -0.0126
     18 C          -8.2136   -2.9906    0.0007 C.ar    1  LIG1       -0.0232
     19 C          -7.4731   -4.1296    0.0006 C.ar    1  LIG1        0.0927
     20 O          -6.1603   -3.8419    0.0005 O.2     1  LIG1       -0.4597
     21 H          -7.7304   -5.1740    0.0006 H       1  LIG1        0.1029
     22 H          -7.4590   -0.8519    0.0007 H       1  LIG1        0.0656
     23 H          -9.2872   -2.9228    0.0008 H       1  LIG1        0.0649
@<TRIPOS>BOND
     1     7     1    1
     2     1     5   ar
     3     1     2   ar
     4     6     5    1
     5     5     4   ar
     6     3     9    1
     7     3     2   ar
     8     3     4   ar
     9     2     8    1
    10     4    10    1
    11    10    11   ar
    12    10    13   ar
    13    11    14   ar
    14    13    15   ar
    15    14    12   ar
    16    15    12   ar
    17    12    16    1
    18    20    16   ar
    19    20    19   ar
    20    16    17   ar
    21    19    21    1
    22    19    18   ar
    23    17    22    1
    24    17    18   ar
    25    18    23    1
