@<TRIPOS>MOLECULE
mol_data/opt/m06hf/geoms/mol2/138-125.out
 30 33 0 0 0
SMALL
GASTEIGER

@<TRIPOS>ATOM
      1 C           1.2003   -0.1852    0.0000 C.ar    1  LIG1        0.0023
      2 C           0.7931    1.1354   -0.0000 C.ar    1  LIG1       -0.0437
      3 C          -0.6222    1.1383    0.0002 C.ar    1  LIG1       -0.0333
      4 C          -1.0220   -0.1835    0.0002 C.ar    1  LIG1        0.0875
      5 N           0.0952   -0.9690    0.0001 N.ar    1  LIG1       -0.3582
      6 H           0.0565   -1.9783    0.0002 H       1  LIG1        0.1654
      7 H           2.1877   -0.6129   -0.0000 H       1  LIG1        0.0807
      8 H           1.4421    1.9943   -0.0001 H       1  LIG1        0.0633
      9 H          -1.2857    1.9865    0.0003 H       1  LIG1        0.0640
     10 C          -2.3415   -0.7915    0.0002 C.ar    1  LIG1        0.2194
     11 N          -2.4046   -2.1249    0.0002 N.ar    1  LIG1       -0.1236
     12 C          -4.6404   -1.8957    0.0004 C.ar    1  LIG1        0.2381
     13 N          -3.4220    0.0067    0.0003 N.ar    1  LIG1       -0.1236
     14 N          -3.5730   -2.6924    0.0003 N.ar    1  LIG1       -0.1220
     15 N          -4.5831   -0.5559    0.0004 N.ar    1  LIG1       -0.1220
     16 C          -5.9738   -2.4907    0.0005 C.ar    1  LIG1        0.1760
     17 C          -7.2106   -1.9206    0.0006 C.ar    1  LIG1       -0.0120
     18 C          -8.1387   -3.0066    0.0006 C.ar    1  LIG1       -0.0146
     19 C          -7.3851   -4.1465    0.0005 C.ar    1  LIG1        0.1424
     20 O          -6.0750   -3.8345    0.0004 O.2     1  LIG1       -0.4511
     21 H          -7.4156   -0.8641    0.0007 H       1  LIG1        0.0657
     22 H          -9.2132   -2.9502    0.0007 H       1  LIG1        0.0656
     23 C          -7.7244   -5.5634    0.0005 C.ar    1  LIG1        0.0544
     24 C          -8.9716   -6.1210    0.0004 C.ar    1  LIG1       -0.0440
     25 C          -8.9289   -7.5502    0.0005 C.ar    1  LIG1       -0.0540
     26 C          -7.6541   -8.0293    0.0006 C.ar    1  LIG1       -0.0236
     27 S          -6.4870   -6.7675    0.0005 S.2     1  LIG1       -0.0936
     28 H          -7.3326   -9.0579    0.0006 H       1  LIG1        0.0693
     29 H          -9.8832   -5.5414    0.0004 H       1  LIG1        0.0630
     30 H          -9.8061   -8.1793    0.0004 H       1  LIG1        0.0623
@<TRIPOS>BOND
     1     8     2    1
     2     2     1   ar
     3     2     3   ar
     4     7     1    1
     5     1     5   ar
     6     5     4   ar
     7     5     6    1
     8     4    10    1
     9     4     3   ar
    10    11    10   ar
    11    11    14   ar
    12    10    13   ar
    13     3     9    1
    14    14    12   ar
    15    13    15   ar
    16    29    24    1
    17    12    15   ar
    18    12    16    1
    19    20    16   ar
    20    20    19   ar
    21    24    25   ar
    22    24    23   ar
    23    30    25    1
    24    16    17   ar
    25    25    26   ar
    26    23    27   ar
    27    23    19    1
    28    27    26   ar
    29    19    18   ar
    30    26    28    1
    31    17    18   ar
    32    17    21    1
    33    18    22    1
