@<TRIPOS>MOLECULE
mol_data/opt/m06hf/geoms/mol2/138-13.out
 24 26 0 0 0
SMALL
GASTEIGER

@<TRIPOS>ATOM
      1 C           1.1744   -0.3303   -0.0002 C.ar    1  LIG1        0.0023
      2 C           0.8119    1.0026   -0.0002 C.ar    1  LIG1       -0.0437
      3 C          -0.6031    1.0532    0.0000 C.ar    1  LIG1       -0.0333
      4 C          -1.0471   -0.2537    0.0001 C.ar    1  LIG1        0.0875
      5 N           0.0421   -1.0763   -0.0001 N.ar    1  LIG1       -0.3582
      6 H          -0.0287   -2.0831   -0.0000 H       1  LIG1        0.1654
      7 H           2.1468   -0.7914   -0.0004 H       1  LIG1        0.0807
      8 H           1.4892    1.8389   -0.0003 H       1  LIG1        0.0633
      9 H          -1.2377    1.9233    0.0001 H       1  LIG1        0.0640
     10 C          -2.3905   -0.8116    0.0003 C.ar    1  LIG1        0.2194
     11 N          -2.5112   -2.1393    0.0004 N.ar    1  LIG1       -0.1237
     12 C          -4.7452   -1.8100    0.0007 C.ar    1  LIG1        0.2194
     13 N          -3.4371    0.0315    0.0004 N.ar    1  LIG1       -0.1237
     14 N          -3.7068   -2.6463    0.0006 N.ar    1  LIG1       -0.1237
     15 N          -4.6236   -0.4716    0.0006 N.ar    1  LIG1       -0.1237
     16 C          -6.0802   -2.3877    0.0009 C.ar    1  LIG1        0.0875
     17 C          -7.3282   -1.7983    0.0010 C.ar    1  LIG1       -0.0333
     18 C          -8.2756   -2.8506    0.0012 C.ar    1  LIG1       -0.0437
     19 C          -7.5696   -4.0378    0.0011 C.ar    1  LIG1        0.0023
     20 N          -6.2461   -3.7425    0.0009 N.ar    1  LIG1       -0.3582
     21 H          -5.4732   -4.3917    0.0009 H       1  LIG1        0.1654
     22 H          -7.9141   -5.0573    0.0012 H       1  LIG1        0.0807
     23 H          -7.5124   -0.7372    0.0010 H       1  LIG1        0.0640
     24 H          -9.3476   -2.7560    0.0013 H       1  LIG1        0.0633
@<TRIPOS>BOND
     1     7     1    1
     2     8     2    1
     3     1     2   ar
     4     1     5   ar
     5     2     3   ar
     6     5     6    1
     7     5     4   ar
     8     3     4   ar
     9     3     9    1
    10     4    10    1
    11    10    11   ar
    12    10    13   ar
    13    11    14   ar
    14    13    15   ar
    15    14    12   ar
    16    15    12   ar
    17    12    16    1
    18    21    20    1
    19    16    20   ar
    20    16    17   ar
    21    20    19   ar
    22    23    17    1
    23    17    18   ar
    24    19    18   ar
    25    19    22    1
    26    18    24    1
