@<TRIPOS>MOLECULE
mol_data/opt/m06hf/geoms/mol2/138-13-.out
 24 26 0 0 0
SMALL
GASTEIGER

@<TRIPOS>ATOM
      1 C           1.1706   -0.2952    0.0001 C.ar    1  LIG1        0.0023
      2 C           0.7928    1.0336    0.0001 C.ar    1  LIG1       -0.0437
      3 C          -0.6227    1.0679    0.0001 C.ar    1  LIG1       -0.0333
      4 C          -1.0516   -0.2441    0.0001 C.ar    1  LIG1        0.0875
      5 N           0.0471   -1.0542    0.0001 N.ar    1  LIG1       -0.3582
      6 H          -0.0142   -2.0618    0.0001 H       1  LIG1        0.1654
      7 H           2.1481   -0.7452    0.0001 H       1  LIG1        0.0807
      8 H           1.4609    1.8774    0.0002 H       1  LIG1        0.0633
      9 H          -1.2674    1.9307    0.0001 H       1  LIG1        0.0640
     10 C          -2.3869   -0.8215    0.0002 C.ar    1  LIG1        0.2194
     11 N          -2.4799   -2.1575    0.0002 N.ar    1  LIG1       -0.1237
     12 C          -4.7139   -1.8825    0.0002 C.ar    1  LIG1        0.2194
     13 N          -3.4461   -0.0043    0.0002 N.ar    1  LIG1       -0.1237
     14 N          -3.6547   -2.6997    0.0002 N.ar    1  LIG1       -0.1237
     15 N          -4.6208   -0.5465    0.0002 N.ar    1  LIG1       -0.1237
     16 C          -6.0491   -2.4598    0.0002 C.ar    1  LIG1        0.0875
     17 C          -6.4780   -3.7718    0.0003 C.ar    1  LIG1       -0.0333
     18 C          -7.8935   -3.7375    0.0003 C.ar    1  LIG1       -0.0437
     19 C          -8.2713   -2.4088    0.0003 C.ar    1  LIG1        0.0023
     20 N          -7.1478   -1.6498    0.0003 N.ar    1  LIG1       -0.3582
     21 H          -7.0865   -0.6421    0.0002 H       1  LIG1        0.1654
     22 H          -9.2489   -1.9587    0.0003 H       1  LIG1        0.0807
     23 H          -5.8334   -4.6347    0.0003 H       1  LIG1        0.0640
     24 H          -8.5617   -4.5813    0.0004 H       1  LIG1        0.0633
@<TRIPOS>BOND
     1     7     1    1
     2     1     5   ar
     3     1     2   ar
     4     3     9    1
     5     3     4   ar
     6     3     2   ar
     7     5     6    1
     8     5     4   ar
     9     4    10    1
    10     2     8    1
    11    10    11   ar
    12    10    13   ar
    13    11    14   ar
    14    13    15   ar
    15    14    12   ar
    16    15    12   ar
    17    12    16    1
    18    16    20   ar
    19    16    17   ar
    20    21    20    1
    21    20    19   ar
    22    23    17    1
    23    22    19    1
    24    17    18   ar
    25    19    18   ar
    26    18    24    1
