@<TRIPOS>MOLECULE
mol_data/opt/m06hf/geoms/mol2/138-8-.out
 22 24 0 0 0
SMALL
GASTEIGER

@<TRIPOS>ATOM
      1 C           1.1604   -0.3193   -0.0002 C.ar    1  LIG1        0.0023
      2 C           0.7902    1.0144    0.0002 C.ar    1  LIG1       -0.0437
      3 C          -0.6216    1.0568   -0.0000 C.ar    1  LIG1       -0.0333
      4 C          -1.0588   -0.2551    0.0001 C.ar    1  LIG1        0.0875
      5 N           0.0364   -1.0718   -0.0001 N.ar    1  LIG1       -0.3582
      6 H          -0.0275   -2.0798   -0.0001 H       1  LIG1        0.1654
      7 H           2.1363   -0.7734   -0.0003 H       1  LIG1        0.0807
      8 H           1.4635    1.8538    0.0003 H       1  LIG1        0.0633
      9 H          -1.2621    1.9229    0.0000 H       1  LIG1        0.0640
     10 C          -2.3927   -0.8169    0.0003 C.ar    1  LIG1        0.2194
     11 N          -2.5006   -2.1516    0.0003 N.ar    1  LIG1       -0.1236
     12 C          -4.7230   -1.8378    0.0004 C.ar    1  LIG1        0.2435
     13 N          -3.4447    0.0165    0.0003 N.ar    1  LIG1       -0.1236
     14 N          -3.6875   -2.6716    0.0003 N.ar    1  LIG1       -0.1218
     15 N          -4.6264   -0.5069    0.0004 N.ar    1  LIG1       -0.1218
     16 C          -6.0930   -2.4337    0.0005 C.ar    1  LIG1        0.2434
     17 N          -6.1855   -3.7619    0.0007 N.ar    1  LIG1       -0.1224
     18 C          -8.4126   -3.4424    0.0008 C.ar    1  LIG1        0.1605
     19 N          -7.1276   -1.5957    0.0005 N.ar    1  LIG1       -0.1224
     20 N          -7.3783   -4.2791    0.0009 N.ar    1  LIG1       -0.1338
     21 N          -8.3193   -2.1156    0.0006 N.ar    1  LIG1       -0.1338
     22 H          -9.4028   -3.8737    0.0009 H       1  LIG1        0.1085
@<TRIPOS>BOND
     1     7     1    1
     2     1     5   ar
     3     1     2   ar
     4     6     5    1
     5     5     4   ar
     6     3     9    1
     7     3     4   ar
     8     3     2   ar
     9     4    10    1
    10     2     8    1
    11    11    10   ar
    12    11    14   ar
    13    10    13   ar
    14    13    15   ar
    15    14    12   ar
    16    12    15   ar
    17    12    16    1
    18    19    16   ar
    19    19    21   ar
    20    16    17   ar
    21    21    18   ar
    22    17    20   ar
    23    18    20   ar
    24    18    22    1
