@<TRIPOS>MOLECULE
mol_data/opt/m06hf/geoms/mol2/138-4.out
 26 28 0 0 0
SMALL
GASTEIGER

@<TRIPOS>ATOM
      1 C           1.1937   -0.2932   -0.0006 C.ar    1  LIG1        0.0023
      2 C           0.8193    1.0371   -0.0005 C.ar    1  LIG1       -0.0437
      3 C          -0.5953    1.0749    0.0001 C.ar    1  LIG1       -0.0333
      4 C          -1.0276   -0.2364    0.0001 C.ar    1  LIG1        0.0875
      5 N           0.0691   -1.0493   -0.0002 N.ar    1  LIG1       -0.3582
      6 H           0.0060   -2.0569   -0.0002 H       1  LIG1        0.1654
      7 H           2.1704   -0.7454   -0.0009 H       1  LIG1        0.0807
      8 H           1.4894    1.8792   -0.0008 H       1  LIG1        0.0633
      9 H          -1.2380    1.9392    0.0004 H       1  LIG1        0.0640
     10 C          -2.3642   -0.8073    0.0005 C.ar    1  LIG1        0.2194
     11 N          -2.4682   -2.1392    0.0005 N.ar    1  LIG1       -0.1237
     12 C          -4.7083   -1.8459    0.0012 C.ar    1  LIG1        0.2034
     13 N          -3.4190    0.0189    0.0009 N.ar    1  LIG1       -0.1237
     14 N          -3.6539   -2.6633    0.0008 N.ar    1  LIG1       -0.1252
     15 N          -4.5975   -0.5108    0.0012 N.ar    1  LIG1       -0.1252
     16 C          -7.1881   -1.6063    0.0020 C.ar    1  LIG1       -0.0509
     17 C          -8.4611   -2.1656    0.0024 C.ar    1  LIG1       -0.0611
     18 C          -6.0687   -2.4403    0.0016 C.ar    1  LIG1        0.0226
     19 C          -8.6172   -3.5499    0.0024 C.ar    1  LIG1       -0.0617
     20 H          -9.3294   -1.5205    0.0027 H       1  LIG1        0.0618
     21 C          -6.2206   -3.8281    0.0016 C.ar    1  LIG1       -0.0509
     22 C          -7.4972   -4.3788    0.0020 C.ar    1  LIG1       -0.0611
     23 H          -5.3420   -4.4588    0.0013 H       1  LIG1        0.0625
     24 H          -9.6095   -3.9822    0.0027 H       1  LIG1        0.0618
     25 H          -7.0500   -0.5338    0.0020 H       1  LIG1        0.0625
     26 H          -7.6168   -5.4539    0.0020 H       1  LIG1        0.0618
@<TRIPOS>BOND
     1     7     1    1
     2     8     2    1
     3     1     2   ar
     4     1     5   ar
     5     2     3   ar
     6     6     5    1
     7     5     4   ar
     8     3     4   ar
     9     3     9    1
    10     4    10    1
    11    11    10   ar
    12    11    14   ar
    13    10    13   ar
    14    14    12   ar
    15    13    15   ar
    16    12    15   ar
    17    12    18    1
    18    23    21    1
    19    21    18   ar
    20    21    22   ar
    21    18    16   ar
    22    26    22    1
    23    22    19   ar
    24    16    25    1
    25    16    17   ar
    26    19    17   ar
    27    19    24    1
    28    17    20    1
