@<TRIPOS>MOLECULE
mol_data/opt/m06hf/geoms/mol2/138-5-5-.out
 30 33 0 0 0
SMALL
GASTEIGER

@<TRIPOS>ATOM
      1 C           1.2381   -0.3036    0.0037 C.ar    1  LIG1        0.0023
      2 C           0.8646    1.0154   -0.1707 C.ar    1  LIG1       -0.0437
      3 C          -0.5498    1.0495   -0.2114 C.ar    1  LIG1       -0.0333
      4 C          -0.9827   -0.2530   -0.0599 C.ar    1  LIG1        0.0875
      5 N           0.1135   -1.0569    0.0686 N.ar    1  LIG1       -0.3582
      6 H           0.0492   -2.0565    0.1940 H       1  LIG1        0.1654
      7 H           2.2140   -0.7499    0.0854 H       1  LIG1        0.0807
      8 H           1.5345    1.8533   -0.2585 H       1  LIG1        0.0633
      9 H          -1.1918    1.9050   -0.3353 H       1  LIG1        0.0640
     10 C          -2.3189   -0.8214   -0.0224 C.ar    1  LIG1        0.2194
     11 N          -2.4218   -2.1469    0.1305 N.ar    1  LIG1       -0.1237
     12 C          -4.6543   -1.8577    0.0536 C.ar    1  LIG1        0.2099
     13 N          -3.3732   -0.0036   -0.1408 N.ar    1  LIG1       -0.1237
     14 N          -3.6040   -2.6739    0.1691 N.ar    1  LIG1       -0.1246
     15 N          -4.5520   -0.5320   -0.1017 N.ar    1  LIG1       -0.1246
     16 C          -5.9931   -2.4456    0.1001 C.ar    1  LIG1        0.0604
     17 C          -6.2974   -3.7670    0.2672 C.ar    1  LIG1       -0.0432
     18 C          -7.7033   -3.9951    0.2859 C.ar    1  LIG1       -0.0457
     19 C          -8.4241   -2.8424    0.1225 C.ar    1  LIG1        0.0266
     20 S          -7.4017   -1.4623   -0.0567 S.2     1  LIG1       -0.0845
     21 H          -5.5408   -4.5282    0.3848 H       1  LIG1        0.0630
     22 H          -8.1669   -4.9579    0.4408 H       1  LIG1        0.0629
     23 C          -9.8866   -2.7314    0.0705 C.ar    1  LIG1        0.0259
     24 C         -10.7486   -3.5974   -0.5388 C.ar    1  LIG1       -0.0464
     25 C         -12.1191   -3.2173   -0.3756 C.ar    1  LIG1       -0.0541
     26 C         -12.2557   -2.0714    0.3457 C.ar    1  LIG1       -0.0237
     27 S         -10.7381   -1.4440    0.8510 S.2     1  LIG1       -0.0961
     28 H         -13.1660   -1.5587    0.6108 H       1  LIG1        0.0693
     29 H         -10.4124   -4.4557   -1.1015 H       1  LIG1        0.0629
     30 H         -12.9518   -3.7676   -0.7869 H       1  LIG1        0.0623
@<TRIPOS>BOND
     1    29    24    1
     2    30    25    1
     3    24    25   ar
     4    24    23   ar
     5    25    26   ar
     6     9     3    1
     7     8     2    1
     8     3     2   ar
     9     3     4   ar
    10     2     1   ar
    11    13    15   ar
    12    13    10   ar
    13    15    12   ar
    14     4    10    1
    15     4     5   ar
    16    20    16   ar
    17    20    19   ar
    18    10    11   ar
    19     1     5   ar
    20     1     7    1
    21    12    16    1
    22    12    14   ar
    23     5     6    1
    24    23    19    1
    25    23    27   ar
    26    16    17   ar
    27    19    18   ar
    28    11    14   ar
    29    17    18   ar
    30    17    21    1
    31    18    22    1
    32    26    28    1
    33    26    27   ar
