@<TRIPOS>MOLECULE
mol_data/opt/m06hf/geoms/mol2/138-.out
 16 17 0 0 0
SMALL
GASTEIGER

@<TRIPOS>ATOM
      1 C           1.1398   -0.3139    0.0001 C.ar    1  LIG1        0.0023
      2 C           0.7603    1.0156    0.0000 C.ar    1  LIG1       -0.0437
      3 C          -0.6539    1.0477    0.0002 C.ar    1  LIG1       -0.0333
      4 C          -1.0814   -0.2653    0.0001 C.ar    1  LIG1        0.0875
      5 N           0.0190   -1.0741    0.0001 N.ar    1  LIG1       -0.3582
      6 H          -0.0404   -2.0820    0.0000 H       1  LIG1        0.1654
      7 H           2.1182   -0.7622    0.0000 H       1  LIG1        0.0807
      8 H           1.4275    1.8600   -0.0001 H       1  LIG1        0.0633
      9 H          -1.3005    1.9091    0.0003 H       1  LIG1        0.0640
     10 C          -2.4149   -0.8418    0.0001 C.ar    1  LIG1        0.2193
     11 N          -2.5070   -2.1757    0.0001 N.ar    1  LIG1       -0.1243
     12 C          -4.7343   -1.8833    0.0002 C.ar    1  LIG1        0.1605
     13 N          -3.4711   -0.0166    0.0002 N.ar    1  LIG1       -0.1243
     14 N          -3.6925   -2.7078    0.0001 N.ar    1  LIG1       -0.1338
     15 N          -4.6509   -0.5527    0.0003 N.ar    1  LIG1       -0.1338
     16 H          -5.7205   -2.3223    0.0003 H       1  LIG1        0.1085
@<TRIPOS>BOND
     1     8     2    1
     2     2     1   ar
     3     2     3   ar
     4     7     1    1
     5     6     5    1
     6     1     5   ar
     7     5     4   ar
     8    11    10   ar
     9    11    14   ar
    10     4    10    1
    11     4     3   ar
    12    10    13   ar
    13    14    12   ar
    14     3     9    1
    15    13    15   ar
    16    12    16    1
    17    12    15   ar
