@<TRIPOS>MOLECULE
mol_data/opt/m06hf/geoms/mol2/138-5-4.out
 33 36 0 0 0
SMALL
GASTEIGER

@<TRIPOS>ATOM
      1 C           1.2630   -0.2890    0.0130 C.ar    1  LIG1        0.0023
      2 C           0.8912    1.0083   -0.2834 C.ar    1  LIG1       -0.0437
      3 C          -0.5223    1.0335   -0.3580 C.ar    1  LIG1       -0.0333
      4 C          -0.9561   -0.2522   -0.1032 C.ar    1  LIG1        0.0875
      5 N           0.1382   -1.0379    0.1184 N.ar    1  LIG1       -0.3582
      6 H           0.0728   -2.0233    0.3278 H       1  LIG1        0.1654
      7 H           2.2375   -0.7233    0.1543 H       1  LIG1        0.0807
      8 H           1.5615    1.8379   -0.4288 H       1  LIG1        0.0633
      9 H          -1.1629    1.8728   -0.5697 H       1  LIG1        0.0640
     10 C          -2.2924   -0.8199   -0.0468 C.ar    1  LIG1        0.2194
     11 N          -2.3980   -2.1266    0.2208 N.ar    1  LIG1       -0.1237
     12 C          -4.6286   -1.8531    0.0619 C.ar    1  LIG1        0.2099
     13 N          -3.3441   -0.0190   -0.2635 N.ar    1  LIG1       -0.1237
     14 N          -3.5805   -2.6523    0.2761 N.ar    1  LIG1       -0.1246
     15 N          -4.5228   -0.5455   -0.2070 N.ar    1  LIG1       -0.1246
     16 C          -5.9688   -2.4354    0.1264 C.ar    1  LIG1        0.0604
     17 C          -6.2839   -3.7368    0.3983 C.ar    1  LIG1       -0.0432
     18 C          -7.6913   -3.9605    0.3890 C.ar    1  LIG1       -0.0462
     19 C          -8.4052   -2.8256    0.1105 C.ar    1  LIG1        0.0200
     20 S          -7.3699   -1.4705   -0.1550 S.2     1  LIG1       -0.0850
     21 H          -5.5347   -4.4864    0.6047 H       1  LIG1        0.0630
     22 H          -8.1577   -4.9094    0.6099 H       1  LIG1        0.0629
     23 C         -10.5254   -1.5562    0.5203 C.ar    1  LIG1       -0.0535
     24 C         -11.9088   -1.4448    0.4295 C.ar    1  LIG1       -0.0612
     25 C          -9.8768   -2.6872    0.0166 C.ar    1  LIG1       -0.0113
     26 C         -12.6558   -2.4628   -0.1576 C.ar    1  LIG1       -0.0617
     27 H         -12.4029   -0.5672    0.8247 H       1  LIG1        0.0618
     28 C         -10.6303   -3.7027   -0.5797 C.ar    1  LIG1       -0.0535
     29 C         -12.0140   -3.5921   -0.6603 C.ar    1  LIG1       -0.0612
     30 H         -10.1239   -4.5638   -0.9964 H       1  LIG1        0.0624
     31 H         -13.7321   -2.3747   -0.2262 H       1  LIG1        0.0618
     32 H          -9.9472   -0.7755    0.9989 H       1  LIG1        0.0624
     33 H         -12.5892   -4.3818   -1.1254 H       1  LIG1        0.0618
@<TRIPOS>BOND
     1    33    29    1
     2    30    28    1
     3    29    28   ar
     4    29    26   ar
     5    28    25   ar
     6     9     3    1
     7     8     2    1
     8     3     2   ar
     9     3     4   ar
    10     2     1   ar
    11    13    15   ar
    12    13    10   ar
    13    31    26    1
    14    15    12   ar
    15    26    24   ar
    16    20    19   ar
    17    20    16   ar
    18     4    10    1
    19     4     5   ar
    20    10    11   ar
    21     1     5   ar
    22     1     7    1
    23    25    19    1
    24    25    23   ar
    25    12    16    1
    26    12    14   ar
    27    19    18   ar
    28     5     6    1
    29    16    17   ar
    30    11    14   ar
    31    18    17   ar
    32    18    22    1
    33    17    21    1
    34    24    23   ar
    35    24    27    1
    36    23    32    1
