@<TRIPOS>MOLECULE
mol_data/opt/m06hf/geoms/mol2/138.out
 16 17 0 0 0
SMALL
GASTEIGER

@<TRIPOS>ATOM
      1 C           1.1398   -0.3138    0.0001 C.ar    1  LIG1        0.0023
      2 C           0.7603    1.0156    0.0000 C.ar    1  LIG1       -0.0437
      3 C          -0.6539    1.0477    0.0002 C.ar    1  LIG1       -0.0333
      4 C          -1.0814   -0.2654    0.0001 C.ar    1  LIG1        0.0875
      5 N           0.0190   -1.0741    0.0001 N.ar    1  LIG1       -0.3582
      6 H          -0.0403   -2.0820    0.0000 H       1  LIG1        0.1654
      7 H           2.1183   -0.7621    0.0000 H       1  LIG1        0.0807
      8 H           1.4275    1.8601   -0.0001 H       1  LIG1        0.0633
      9 H          -1.3005    1.9091    0.0003 H       1  LIG1        0.0640
     10 C          -2.4149   -0.8419    0.0001 C.ar    1  LIG1        0.2193
     11 N          -3.4711   -0.0167    0.0002 N.ar    1  LIG1       -0.1243
     12 C          -4.7343   -1.8834    0.0002 C.ar    1  LIG1        0.1605
     13 N          -2.5070   -2.1758    0.0001 N.ar    1  LIG1       -0.1243
     14 N          -4.6509   -0.5528    0.0002 N.ar    1  LIG1       -0.1338
     15 N          -3.6924   -2.7079    0.0001 N.ar    1  LIG1       -0.1338
     16 H          -5.7205   -2.3224    0.0002 H       1  LIG1        0.1085
@<TRIPOS>BOND
     1     8     2    1
     2     2     1   ar
     3     2     3   ar
     4     7     1    1
     5     6     5    1
     6     1     5   ar
     7     5     4   ar
     8    13    15   ar
     9    13    10   ar
    10    15    12   ar
    11     4    10    1
    12     4     3   ar
    13    10    11   ar
    14    12    16    1
    15    12    14   ar
    16     3     9    1
    17    11    14   ar
