@<TRIPOS>MOLECULE
mol_data/opt/m06hf/geoms/mol2/1381313-.out
 32 35 0 0 0
SMALL
GASTEIGER

@<TRIPOS>ATOM
      1 C           1.1922   -0.3222   -0.2054 C.ar    1  LIG1        0.0023
      2 C           0.8453    1.0065   -0.0590 C.ar    1  LIG1       -0.0437
      3 C          -0.5668    1.0641    0.0363 C.ar    1  LIG1       -0.0333
      4 C          -1.0242   -0.2348   -0.0568 C.ar    1  LIG1        0.0875
      5 N           0.0541   -1.0594   -0.2020 N.ar    1  LIG1       -0.3582
      6 H          -0.0271   -2.0618   -0.2916 H       1  LIG1        0.1654
      7 H           2.1569   -0.7875   -0.3104 H       1  LIG1        0.0807
      8 H           1.5304    1.8363   -0.0235 H       1  LIG1        0.0633
      9 H          -1.1905    1.9333    0.1595 H       1  LIG1        0.0640
     10 C          -2.3705   -0.7832   -0.0169 C.ar    1  LIG1        0.2194
     11 N          -3.4063    0.0648    0.1154 N.ar    1  LIG1       -0.1237
     12 C          -4.7303   -1.7653    0.0643 C.ar    1  LIG1        0.2194
     13 N          -2.5057   -2.1055   -0.1136 N.ar    1  LIG1       -0.1237
     14 N          -4.5947   -0.4306    0.1566 N.ar    1  LIG1       -0.1237
     15 N          -3.7046   -2.6054   -0.0732 N.ar    1  LIG1       -0.1237
     16 C          -6.0691   -2.3281    0.1167 C.ar    1  LIG1        0.0880
     17 C          -7.3037   -1.7207    0.2361 C.ar    1  LIG1       -0.0326
     18 C          -8.2682   -2.7545    0.2368 C.ar    1  LIG1       -0.0343
     19 C          -7.5869   -3.9574    0.1132 C.ar    1  LIG1        0.0634
     20 N          -6.2613   -3.6770    0.0398 N.ar    1  LIG1       -0.3505
     21 H          -5.5185   -4.3468   -0.1022 H       1  LIG1        0.1660
     22 H          -7.4655   -0.6601    0.3249 H       1  LIG1        0.0640
     23 H          -9.3335   -2.6491    0.3573 H       1  LIG1        0.0639
     24 C          -8.0766   -5.3338    0.0638 C.ar    1  LIG1        0.0629
     25 C          -7.5477   -6.5038    0.5656 C.ar    1  LIG1       -0.0350
     26 C          -8.4500   -7.5511    0.2298 C.ar    1  LIG1       -0.0438
     27 C          -9.4948   -6.9821   -0.4588 C.ar    1  LIG1        0.0022
     28 N          -9.2565   -5.6427   -0.5515 N.ar    1  LIG1       -0.3595
     29 H          -9.8238   -4.9743   -1.0476 H       1  LIG1        0.1654
     30 H         -10.3778   -7.4222   -0.8884 H       1  LIG1        0.0807
     31 H          -6.6396   -6.5842    1.1403 H       1  LIG1        0.0639
     32 H          -8.3483   -8.5946    0.4740 H       1  LIG1        0.0633
@<TRIPOS>BOND
     1    29    28    1
     2    30    27    1
     3    28    27   ar
     4    28    24   ar
     5    27    26   ar
     6     7     1    1
     7     6     5    1
     8     1     5   ar
     9     1     2   ar
    10     5     4   ar
    11    13    15   ar
    12    13    10   ar
    13    21    20    1
    14    15    12   ar
    15     2     8    1
    16     2     3   ar
    17     4    10    1
    18     4     3   ar
    19    10    11   ar
    20     3     9    1
    21    20    19   ar
    22    20    16   ar
    23    24    19    1
    24    24    25   ar
    25    12    16    1
    26    12    14   ar
    27    19    18   ar
    28    11    14   ar
    29    16    17   ar
    30    26    32    1
    31    26    25   ar
    32    17    18   ar
    33    17    22    1
    34    18    23    1
    35    25    31    1
