@<TRIPOS>MOLECULE
mol_data/opt/m06hf/geoms/mol2/13812-13-.out
 31 34 0 0 0
SMALL
GASTEIGER

@<TRIPOS>ATOM
      1 C           1.2437   -0.4017    0.0000 C.ar    1  LIG1        0.0023
      2 C           0.9152    0.9406   -0.0003 C.ar    1  LIG1       -0.0437
      3 C          -0.4976    1.0270    0.0000 C.ar    1  LIG1       -0.0333
      4 C          -0.9743   -0.2686    0.0002 C.ar    1  LIG1        0.0875
      5 N           0.0939   -1.1190    0.0002 N.ar    1  LIG1       -0.3582
      6 H          -0.0050   -2.1240    0.0003 H       1  LIG1        0.1654
      7 H           2.2047   -0.8864   -0.0000 H       1  LIG1        0.0807
      8 H           1.6138    1.7594   -0.0005 H       1  LIG1        0.0633
      9 H          -1.1101    1.9123   -0.0000 H       1  LIG1        0.0640
     10 C          -2.3303   -0.7914    0.0003 C.ar    1  LIG1        0.2194
     11 N          -3.3555    0.0685    0.0003 N.ar    1  LIG1       -0.1236
     12 C          -4.6962   -1.7476    0.0006 C.ar    1  LIG1        0.2381
     13 N          -2.4767   -2.1231    0.0004 N.ar    1  LIG1       -0.1236
     14 N          -4.5561   -0.4169    0.0004 N.ar    1  LIG1       -0.1220
     15 N          -3.6753   -2.6100    0.0006 N.ar    1  LIG1       -0.1220
     16 C          -6.0409   -2.3115    0.0006 C.ar    1  LIG1        0.1760
     17 C          -6.4858   -3.5980    0.0007 C.ar    1  LIG1       -0.0120
     18 C          -7.9136   -3.5207    0.0007 C.ar    1  LIG1       -0.0137
     19 C          -8.2178   -2.1895    0.0007 C.ar    1  LIG1        0.1519
     20 O          -7.0861   -1.4555    0.0006 O.2     1  LIG1       -0.4501
     21 H          -5.8643   -4.4767    0.0007 H       1  LIG1        0.0657
     22 H          -8.6168   -4.3349    0.0007 H       1  LIG1        0.0656
     23 C          -9.4600   -1.4350    0.0006 C.ar    1  LIG1        0.0821
     24 C         -10.7799   -1.8368    0.0007 C.ar    1  LIG1       -0.0334
     25 C         -11.5703   -0.6587    0.0005 C.ar    1  LIG1       -0.0437
     26 C         -10.7057    0.4138    0.0007 C.ar    1  LIG1        0.0023
     27 N          -9.4352   -0.0695    0.0007 N.ar    1  LIG1       -0.3583
     28 H          -8.5842    0.4727    0.0007 H       1  LIG1        0.1654
     29 H         -10.9005    1.4722    0.0008 H       1  LIG1        0.0807
     30 H         -11.1266   -2.8563    0.0007 H       1  LIG1        0.0640
     31 H         -12.6452   -0.6015    0.0004 H       1  LIG1        0.0633
@<TRIPOS>BOND
     1     8     2    1
     2     2     1   ar
     3     2     3   ar
     4     9     3    1
     5     7     1    1
     6     1     5   ar
     7     3     4   ar
     8     4     5   ar
     9     4    10    1
    10     5     6    1
    11    10    11   ar
    12    10    13   ar
    13    11    14   ar
    14    31    25    1
    15    13    15   ar
    16    14    12   ar
    17    25    24   ar
    18    25    26   ar
    19    15    12   ar
    20    12    16    1
    21    16    20   ar
    22    16    17   ar
    23    23    27   ar
    24    23    24   ar
    25    23    19    1
    26    20    19   ar
    27    27    28    1
    28    27    26   ar
    29    24    30    1
    30    19    18   ar
    31    18    17   ar
    32    18    22    1
    33    17    21    1
    34    26    29    1
