@<TRIPOS>MOLECULE
mol_data/opt/m06hf/geoms/mol2/13812-13.out
 31 34 0 0 0
SMALL
GASTEIGER

@<TRIPOS>ATOM
      1 C           1.2608   -0.4335   -0.0002 C.ar    1  LIG1        0.0023
      2 C           0.9479    0.9125   -0.0002 C.ar    1  LIG1       -0.0437
      3 C          -0.4639    1.0156    0.0002 C.ar    1  LIG1       -0.0333
      4 C          -0.9555   -0.2744    0.0001 C.ar    1  LIG1        0.0875
      5 N           0.1026   -1.1372   -0.0001 N.ar    1  LIG1       -0.3582
      6 H          -0.0085   -2.1410   -0.0002 H       1  LIG1        0.1654
      7 H           2.2162   -0.9295   -0.0003 H       1  LIG1        0.0807
      8 H           1.6557    1.7234   -0.0003 H       1  LIG1        0.0633
      9 H          -1.0666    1.9075    0.0004 H       1  LIG1        0.0640
     10 C          -2.3173   -0.7822    0.0003 C.ar    1  LIG1        0.2194
     11 N          -3.3326    0.0897    0.0005 N.ar    1  LIG1       -0.1236
     12 C          -4.6943   -1.7096    0.0005 C.ar    1  LIG1        0.2381
     13 N          -2.4788   -2.1118    0.0002 N.ar    1  LIG1       -0.1236
     14 N          -4.5390   -0.3805    0.0006 N.ar    1  LIG1       -0.1220
     15 N          -3.6838   -2.5835    0.0003 N.ar    1  LIG1       -0.1220
     16 C          -6.0436   -2.2658    0.0006 C.ar    1  LIG1        0.1760
     17 C          -6.4807   -3.5549    0.0006 C.ar    1  LIG1       -0.0120
     18 C          -7.9078   -3.4802    0.0008 C.ar    1  LIG1       -0.0137
     19 C          -8.2158   -2.1472    0.0009 C.ar    1  LIG1        0.1519
     20 O          -7.0889   -1.4139    0.0008 O.2     1  LIG1       -0.4501
     21 H          -5.8560   -4.4313    0.0004 H       1  LIG1        0.0657
     22 H          -8.5986   -4.3058    0.0008 H       1  LIG1        0.0656
     23 C          -9.4653   -1.4048    0.0012 C.ar    1  LIG1        0.0821
     24 C          -9.6817   -0.0433    0.0014 C.ar    1  LIG1       -0.0334
     25 C         -11.0882    0.1544    0.0017 C.ar    1  LIG1       -0.0437
     26 C         -11.6749   -1.0899    0.0015 C.ar    1  LIG1        0.0023
     27 N         -10.6841   -2.0250    0.0012 N.ar    1  LIG1       -0.3583
     28 H         -10.8284   -3.0215    0.0011 H       1  LIG1        0.1654
     29 H         -12.7111   -1.3799    0.0015 H       1  LIG1        0.0807
     30 H          -8.9072    0.7051    0.0014 H       1  LIG1        0.0640
     31 H         -11.6086    1.0965    0.0020 H       1  LIG1        0.0633
@<TRIPOS>BOND
     1     7     1    1
     2     8     2    1
     3     6     5    1
     4     2     1   ar
     5     2     3   ar
     6     1     5   ar
     7     5     4   ar
     8     4     3   ar
     9     4    10    1
    10    13    10   ar
    11    13    15   ar
    12     3     9    1
    13    10    11   ar
    14    15    12   ar
    15    21    17    1
    16    11    14   ar
    17    12    14   ar
    18    12    16    1
    19    17    16   ar
    20    17    18   ar
    21    16    20   ar
    22    18    22    1
    23    18    19   ar
    24    20    19   ar
    25    19    23    1
    26    28    27    1
    27    23    27   ar
    28    23    24   ar
    29    27    26   ar
    30    24    30    1
    31    24    25   ar
    32    26    29    1
    33    26    25   ar
    34    25    31    1
