@<TRIPOS>MOLECULE
mol_data/opt/m06hf/geoms/mol2/1384-5-.out
 33 36 0 0 0
SMALL
GASTEIGER

@<TRIPOS>ATOM
      1 C           1.2561   -0.2930   -0.0698 C.ar    1  LIG1        0.0023
      2 C           0.8952    1.0285    0.1115 C.ar    1  LIG1       -0.0437
      3 C          -0.5185    1.0736    0.1687 C.ar    1  LIG1       -0.0333
      4 C          -0.9629   -0.2251    0.0199 C.ar    1  LIG1        0.0875
      5 N           0.1248   -1.0374   -0.1230 N.ar    1  LIG1       -0.3582
      6 H           0.0528   -2.0366   -0.2493 H       1  LIG1        0.1654
      7 H           2.2277   -0.7468   -0.1636 H       1  LIG1        0.0807
      8 H           1.5733    1.8604    0.1929 H       1  LIG1        0.0633
      9 H          -1.1521    1.9339    0.3017 H       1  LIG1        0.0640
     10 C          -2.3042   -0.7838   -0.0004 C.ar    1  LIG1        0.2194
     11 N          -3.3501    0.0433    0.1365 N.ar    1  LIG1       -0.1237
     12 C          -4.6567   -1.8008   -0.0371 C.ar    1  LIG1        0.2034
     13 N          -2.4218   -2.1055   -0.1566 N.ar    1  LIG1       -0.1237
     14 N          -4.5330   -0.4750    0.1170 N.ar    1  LIG1       -0.1252
     15 N          -3.6125   -2.6189   -0.1746 N.ar    1  LIG1       -0.1252
     16 C          -6.1922   -3.7584   -0.2114 C.ar    1  LIG1       -0.0503
     17 C          -7.4706   -4.2973   -0.2286 C.ar    1  LIG1       -0.0529
     18 C          -6.0210   -2.3817   -0.0529 C.ar    1  LIG1        0.0227
     19 C          -8.5921   -3.4754   -0.0715 C.ar    1  LIG1       -0.0113
     20 H          -7.6075   -5.3588   -0.3857 H       1  LIG1        0.0624
     21 C          -7.1331   -1.5508    0.0900 C.ar    1  LIG1       -0.0503
     22 C          -8.4091   -2.0976    0.0847 C.ar    1  LIG1       -0.0529
     23 H          -6.9874   -0.4867    0.2147 H       1  LIG1        0.0625
     24 H          -5.3238   -4.3919   -0.3315 H       1  LIG1        0.0625
     25 H          -9.2687   -1.4543    0.2238 H       1  LIG1        0.0624
     26 C          -9.9451   -4.0732   -0.0641 C.ar    1  LIG1        0.0193
     27 C         -10.3189   -5.2821    0.4507 C.ar    1  LIG1       -0.0469
     28 C         -11.7163   -5.5489    0.2874 C.ar    1  LIG1       -0.0541
     29 C         -12.3661   -4.5350   -0.3449 C.ar    1  LIG1       -0.0237
     30 S         -11.2991   -3.2510   -0.7573 S.2     1  LIG1       -0.0967
     31 H         -13.4118   -4.4707   -0.5974 H       1  LIG1        0.0693
     32 H          -9.6300   -5.9436    0.9554 H       1  LIG1        0.0629
     33 H         -12.2044   -6.4474    0.6336 H       1  LIG1        0.0623
@<TRIPOS>BOND
     1    30    29   ar
     2    30    26   ar
     3    31    29    1
     4    20    17    1
     5    29    28   ar
     6    24    16    1
     7     6     5    1
     8    17    16   ar
     9    17    19   ar
    10    16    18   ar
    11    15    13   ar
    12    15    12   ar
    13     7     1    1
    14    13    10   ar
    15     5     1   ar
    16     5     4   ar
    17    19    26    1
    18    19    22   ar
    19     1     2   ar
    20    26    27   ar
    21    18    12    1
    22    18    21   ar
    23    12    14   ar
    24    10     4    1
    25    10    11   ar
    26     4     3   ar
    27    22    21   ar
    28    22    25    1
    29    21    23    1
    30     2     3   ar
    31     2     8    1
    32    14    11   ar
    33     3     9    1
    34    28    27   ar
    35    28    33    1
    36    27    32    1
