@<TRIPOS>MOLECULE
mol_data/opt/m06hf/geoms/mol2/1385-13-.out
 31 34 0 0 0
SMALL
GASTEIGER

@<TRIPOS>ATOM
      1 C           1.2441   -0.2864    0.0001 C.ar    1  LIG1        0.0023
      2 C           0.8617    1.0415   -0.0002 C.ar    1  LIG1       -0.0437
      3 C          -0.5539    1.0708   -0.0004 C.ar    1  LIG1       -0.0333
      4 C          -0.9774   -0.2434    0.0001 C.ar    1  LIG1        0.0875
      5 N           0.1242   -1.0494    0.0003 N.ar    1  LIG1       -0.3582
      6 H           0.0664   -2.0576    0.0005 H       1  LIG1        0.1654
      7 H           2.2234   -0.7330    0.0002 H       1  LIG1        0.0807
      8 H           1.5260    1.8885   -0.0003 H       1  LIG1        0.0633
      9 H          -1.2016    1.9306   -0.0007 H       1  LIG1        0.0640
     10 C          -2.3104   -0.8216    0.0002 C.ar    1  LIG1        0.2194
     11 N          -3.3702   -0.0028   -0.0001 N.ar    1  LIG1       -0.1237
     12 C          -4.6404   -1.8762    0.0005 C.ar    1  LIG1        0.2099
     13 N          -2.4054   -2.1570    0.0007 N.ar    1  LIG1       -0.1237
     14 N          -4.5453   -0.5401    0.0000 N.ar    1  LIG1       -0.1246
     15 N          -3.5834   -2.6938    0.0008 N.ar    1  LIG1       -0.1246
     16 C          -5.9758   -2.4657    0.0007 C.ar    1  LIG1        0.0604
     17 C          -6.2999   -3.7925    0.0013 C.ar    1  LIG1       -0.0432
     18 C          -7.7075   -4.0074    0.0014 C.ar    1  LIG1       -0.0448
     19 C          -8.4217   -2.8375    0.0009 C.ar    1  LIG1        0.0361
     20 S          -7.3769   -1.4592    0.0003 S.2     1  LIG1       -0.0836
     21 H          -5.5528   -4.5721    0.0016 H       1  LIG1        0.0630
     22 H          -8.1692   -4.9829    0.0020 H       1  LIG1        0.0630
     23 C          -9.8749   -2.6856    0.0009 C.ar    1  LIG1        0.0531
     24 C         -10.8700   -3.6435    0.0004 C.ar    1  LIG1       -0.0359
     25 C         -12.1148   -2.9641    0.0007 C.ar    1  LIG1       -0.0438
     26 C         -11.8413   -1.6158    0.0013 C.ar    1  LIG1        0.0022
     27 N         -10.4887   -1.4611    0.0014 N.ar    1  LIG1       -0.3603
     28 H         -10.0124   -0.5726    0.0020 H       1  LIG1        0.1653
     29 H         -12.4983   -0.7640    0.0017 H       1  LIG1        0.0807
     30 H         -10.7149   -4.7094   -0.0002 H       1  LIG1        0.0639
     31 H         -13.0946   -3.4100    0.0004 H       1  LIG1        0.0633
@<TRIPOS>BOND
     1     9     3    1
     2     3     2   ar
     3     3     4   ar
     4     8     2    1
     5    30    24    1
     6     2     1   ar
     7    11    14   ar
     8    11    10   ar
     9    14    12   ar
    10     4    10    1
    11     4     5   ar
    12     1     7    1
    13     1     5   ar
    14    10    13   ar
    15    20    16   ar
    16    20    19   ar
    17     5     6    1
    18    24    25   ar
    19    24    23   ar
    20    31    25    1
    21    12    16    1
    22    12    15   ar
    23    13    15   ar
    24    25    26   ar
    25    16    17   ar
    26    23    19    1
    27    23    27   ar
    28    19    18   ar
    29    17    18   ar
    30    17    21    1
    31    26    27   ar
    32    26    29    1
    33    27    28    1
    34    18    22    1
