@<TRIPOS>MOLECULE
mol_data/opt/m06hf/geoms/mol2/1385-.out
 23 25 0 0 0
SMALL
GASTEIGER

@<TRIPOS>ATOM
      1 C           1.1779   -0.3012   -0.0001 C.ar    1  LIG1        0.0023
      2 C           0.8002    1.0282   -0.0001 C.ar    1  LIG1       -0.0437
      3 C          -0.6145    1.0625   -0.0001 C.ar    1  LIG1       -0.0333
      4 C          -1.0441   -0.2497    0.0001 C.ar    1  LIG1        0.0875
      5 N           0.0552   -1.0600    0.0000 N.ar    1  LIG1       -0.3582
      6 H          -0.0051   -2.0677    0.0001 H       1  LIG1        0.1654
      7 H           2.1555   -0.7513   -0.0002 H       1  LIG1        0.0807
      8 H           1.4687    1.8718   -0.0002 H       1  LIG1        0.0633
      9 H          -1.2599    1.9248   -0.0001 H       1  LIG1        0.0640
     10 C          -2.3786   -0.8245    0.0003 C.ar    1  LIG1        0.2194
     11 N          -3.4368   -0.0027    0.0003 N.ar    1  LIG1       -0.1237
     12 C          -4.7100   -1.8730    0.0006 C.ar    1  LIG1        0.2099
     13 N          -2.4757   -2.1588    0.0004 N.ar    1  LIG1       -0.1237
     14 N          -4.6131   -0.5382    0.0005 N.ar    1  LIG1       -0.1246
     15 N          -3.6557   -2.6927    0.0006 N.ar    1  LIG1       -0.1246
     16 C          -6.0483   -2.4660    0.0008 C.ar    1  LIG1        0.0598
     17 C          -6.3550   -3.7967    0.0009 C.ar    1  LIG1       -0.0438
     18 C          -7.7651   -4.0227    0.0012 C.ar    1  LIG1       -0.0540
     19 C          -8.4727   -2.8570    0.0012 C.ar    1  LIG1       -0.0236
     20 S          -7.4578   -1.4713    0.0007 S.2     1  LIG1       -0.0934
     21 H          -9.5438   -2.7358    0.0014 H       1  LIG1        0.0693
     22 H          -5.5984   -4.5670    0.0009 H       1  LIG1        0.0630
     23 H          -8.2210   -5.0010    0.0014 H       1  LIG1        0.0623
@<TRIPOS>BOND
     1     7     1    1
     2     8     2    1
     3     1     2   ar
     4     1     5   ar
     5     2     3   ar
     6     9     3    1
     7     3     4   ar
     8     5     6    1
     9     5     4   ar
    10     4    10    1
    11    10    11   ar
    12    10    13   ar
    13    11    14   ar
    14    13    15   ar
    15    14    12   ar
    16    15    12   ar
    17    12    16    1
    18    20    16   ar
    19    20    19   ar
    20    16    17   ar
    21    22    17    1
    22    17    18   ar
    23    18    19   ar
    24    18    23    1
    25    19    21    1
