@<TRIPOS>MOLECULE
mol_data/opt/m06hf/geoms/mol2/1388.out
 22 24 0 0 0
SMALL
GASTEIGER

@<TRIPOS>ATOM
      1 C           1.1606   -0.3191   -0.0001 C.ar    1  LIG1        0.0023
      2 C           0.7902    1.0145    0.0001 C.ar    1  LIG1       -0.0437
      3 C          -0.6217    1.0567    0.0001 C.ar    1  LIG1       -0.0333
      4 C          -1.0586   -0.2553    0.0001 C.ar    1  LIG1        0.0875
      5 N           0.0366   -1.0719   -0.0000 N.ar    1  LIG1       -0.3582
      6 H          -0.0271   -2.0798   -0.0000 H       1  LIG1        0.1654
      7 H           2.1365   -0.7730   -0.0002 H       1  LIG1        0.0807
      8 H           1.4634    1.8540    0.0002 H       1  LIG1        0.0633
      9 H          -1.2624    1.9226    0.0001 H       1  LIG1        0.0640
     10 C          -2.3926   -0.8172    0.0002 C.ar    1  LIG1        0.2194
     11 N          -3.4446    0.0163    0.0003 N.ar    1  LIG1       -0.1236
     12 C          -4.7230   -1.8381    0.0004 C.ar    1  LIG1        0.2435
     13 N          -2.5005   -2.1518    0.0002 N.ar    1  LIG1       -0.1236
     14 N          -4.6263   -0.5071    0.0004 N.ar    1  LIG1       -0.1218
     15 N          -3.6874   -2.6718    0.0003 N.ar    1  LIG1       -0.1218
     16 C          -6.0930   -2.4339    0.0005 C.ar    1  LIG1        0.2434
     17 N          -7.1276   -1.5959    0.0005 N.ar    1  LIG1       -0.1224
     18 C          -8.4126   -3.4426    0.0008 C.ar    1  LIG1        0.1605
     19 N          -6.1856   -3.7621    0.0007 N.ar    1  LIG1       -0.1224
     20 N          -8.3193   -2.1158    0.0006 N.ar    1  LIG1       -0.1338
     21 N          -7.3783   -4.2793    0.0008 N.ar    1  LIG1       -0.1338
     22 H          -9.4028   -3.8739    0.0008 H       1  LIG1        0.1085
@<TRIPOS>BOND
     1     7     1    1
     2     1     5   ar
     3     1     2   ar
     4     6     5    1
     5     5     4   ar
     6     3     2   ar
     7     3     4   ar
     8     3     9    1
     9     2     8    1
    10     4    10    1
    11    13    10   ar
    12    13    15   ar
    13    10    11   ar
    14    15    12   ar
    15    11    14   ar
    16    12    14   ar
    17    12    16    1
    18    17    16   ar
    19    17    20   ar
    20    16    19   ar
    21    20    18   ar
    22    19    21   ar
    23    18    21   ar
    24    18    22    1
