@<TRIPOS>MOLECULE
mol_data/opt/m06hf/geoms/mol2/1388-12-.out
 29 32 0 0 0
SMALL
GASTEIGER

@<TRIPOS>ATOM
      1 C           1.1850   -0.3719   -0.0003 C.ar    1  LIG1        0.0023
      2 C           0.8399    0.9680    0.0000 C.ar    1  LIG1       -0.0437
      3 C          -0.5714    1.0371    0.0001 C.ar    1  LIG1       -0.0333
      4 C          -1.0331   -0.2660    0.0001 C.ar    1  LIG1        0.0875
      5 N           0.0464   -1.1032   -0.0001 N.ar    1  LIG1       -0.3582
      6 H          -0.0371   -2.1096   -0.0002 H       1  LIG1        0.1654
      7 H           2.1519   -0.8445   -0.0004 H       1  LIG1        0.0807
      8 H           1.5287    1.7948    0.0001 H       1  LIG1        0.0633
      9 H          -1.1954    1.9151    0.0002 H       1  LIG1        0.0640
     10 C          -2.3781   -0.8034    0.0003 C.ar    1  LIG1        0.2194
     11 N          -3.4146    0.0489    0.0004 N.ar    1  LIG1       -0.1236
     12 C          -4.7280   -1.7819    0.0005 C.ar    1  LIG1        0.2435
     13 N          -2.5104   -2.1352    0.0002 N.ar    1  LIG1       -0.1236
     14 N          -4.6059   -0.4522    0.0005 N.ar    1  LIG1       -0.1218
     15 N          -3.7069   -2.6338    0.0004 N.ar    1  LIG1       -0.1218
     16 C          -6.1066   -2.3521    0.0007 C.ar    1  LIG1        0.2435
     17 N          -6.2252   -3.6813    0.0008 N.ar    1  LIG1       -0.1217
     18 C          -8.4520   -3.3245    0.0010 C.ar    1  LIG1        0.2381
     19 N          -7.1295   -1.5020    0.0007 N.ar    1  LIG1       -0.1217
     20 N          -7.4196   -4.1769    0.0010 N.ar    1  LIG1       -0.1219
     21 N          -8.3307   -1.9957    0.0008 N.ar    1  LIG1       -0.1219
     22 C          -9.7849   -3.9190    0.0011 C.ar    1  LIG1        0.1751
     23 C         -10.1777   -5.2226    0.0013 C.ar    1  LIG1       -0.0126
     24 C         -11.6087   -5.1906    0.0014 C.ar    1  LIG1       -0.0232
     25 C         -11.9487   -3.8739    0.0013 C.ar    1  LIG1        0.0927
     26 O         -10.8523   -3.0997    0.0011 O.2     1  LIG1       -0.4597
     27 H         -12.8936   -3.3600    0.0013 H       1  LIG1        0.1029
     28 H          -9.5224   -6.0771    0.0014 H       1  LIG1        0.0656
     29 H         -12.2845   -6.0277    0.0015 H       1  LIG1        0.0649
@<TRIPOS>BOND
     1     7     1    1
     2     1     5   ar
     3     1     2   ar
     4     6     5    1
     5     5     4   ar
     6     2     3   ar
     7     2     8    1
     8     3     4   ar
     9     3     9    1
    10     4    10    1
    11    13    10   ar
    12    13    15   ar
    13    10    11   ar
    14    15    12   ar
    15    11    14   ar
    16    12    14   ar
    17    12    16    1
    18    19    16   ar
    19    19    21   ar
    20    16    17   ar
    21    21    18   ar
    22    17    20   ar
    23    18    20   ar
    24    18    22    1
    25    26    22   ar
    26    26    25   ar
    27    22    23   ar
    28    25    27    1
    29    25    24   ar
    30    23    28    1
    31    23    24   ar
    32    24    29    1
