@<TRIPOS>MOLECULE
mol_data/opt/m06hf/geoms/mol2/13aa13aa13aa-13aa-.out
 34 37 0 0 0
SMALL
GASTEIGER

@<TRIPOS>ATOM
      1 C           1.1177   -0.2039   -1.0248 C.ar    1  LIG1        0.0022
      2 C           1.0314    0.8335   -0.1286 C.ar    1  LIG1       -0.0438
      3 C          -0.2788    0.8027    0.4271 C.ar    1  LIG1       -0.0350
      4 C          -0.9464   -0.2508   -0.1539 C.ar    1  LIG1        0.0629
      5 N          -0.0816   -0.8556   -1.0294 N.ar    1  LIG1       -0.3595
      6 H          -0.3421   -1.5985   -1.6584 H       1  LIG1        0.1654
      7 H           1.9295   -0.5257   -1.6535 H       1  LIG1        0.0807
      8 H           1.8195    1.5278    0.1091 H       1  LIG1        0.0633
      9 H          -0.6901    1.4515    1.1821 H       1  LIG1        0.0639
     10 C          -2.3139   -0.7433    0.0364 C.ar    1  LIG1        0.0633
     11 C          -3.5194   -0.0765    0.0491 C.ar    1  LIG1       -0.0343
     12 C          -4.5368   -1.0421    0.2762 C.ar    1  LIG1       -0.0343
     13 C          -3.9195   -2.2720    0.3844 C.ar    1  LIG1        0.0634
     14 N          -2.5774   -2.0725    0.2343 N.ar    1  LIG1       -0.3519
     15 H          -1.8810   -2.7982    0.3117 H       1  LIG1        0.1660
     16 H          -3.6402    0.9827   -0.1024 H       1  LIG1        0.0639
     17 H          -5.5946   -0.8629    0.3768 H       1  LIG1        0.0639
     18 C          -4.4683   -3.6087    0.6096 C.ar    1  LIG1        0.0634
     19 C          -3.9798   -4.6908    1.3123 C.ar    1  LIG1       -0.0343
     20 C          -4.9267   -5.7435    1.1796 C.ar    1  LIG1       -0.0343
     21 C          -5.9609   -5.2719    0.4022 C.ar    1  LIG1        0.0633
     22 N          -5.6684   -3.9750    0.0694 N.ar    1  LIG1       -0.3519
     23 H          -6.1695   -3.4275   -0.6137 H       1  LIG1        0.1660
     24 H          -3.0744   -4.7007    1.8969 H       1  LIG1        0.0639
     25 H          -4.8878   -6.7228    1.6259 H       1  LIG1        0.0639
     26 C          -7.1927   -5.9211   -0.0548 C.ar    1  LIG1        0.0629
     27 C          -7.4037   -7.1537   -0.6287 C.ar    1  LIG1       -0.0350
     28 C          -8.8016   -7.2758   -0.8698 C.ar    1  LIG1       -0.0438
     29 C          -9.3919   -6.1126   -0.4386 C.ar    1  LIG1        0.0022
     30 N          -8.4098   -5.2986    0.0476 N.ar    1  LIG1       -0.3595
     31 H          -8.5561   -4.4197    0.5179 H       1  LIG1        0.1654
     32 H         -10.4227   -5.8029   -0.4388 H       1  LIG1        0.0807
     33 H          -6.6294   -7.8636   -0.8653 H       1  LIG1        0.0639
     34 H          -9.3112   -8.1123   -1.3167 H       1  LIG1        0.0633
@<TRIPOS>BOND
     1     6     5    1
     2     7     1    1
     3    34    28    1
     4     5     1   ar
     5     5     4   ar
     6     1     2   ar
     7    28    27   ar
     8    28    29   ar
     9    33    27    1
    10    27    26   ar
    11    23    22    1
    12    32    29    1
    13    29    30   ar
    14     4    10    1
    15     4     3   ar
    16     2     8    1
    17     2     3   ar
    18    16    11    1
    19    26    30   ar
    20    26    21    1
    21    10    11   ar
    22    10    14   ar
    23    30    31    1
    24    11    12   ar
    25    22    21   ar
    26    22    18   ar
    27    14    15    1
    28    14    13   ar
    29    12    17    1
    30    12    13   ar
    31    13    18    1
    32    21    20   ar
    33     3     9    1
    34    18    19   ar
    35    20    19   ar
    36    20    25    1
    37    19    24    1
