@<TRIPOS>MOLECULE
mol_data/opt/m06hf/geoms/mol2/13aa13aa13aa.out
 26 28 0 0 0
SMALL
GASTEIGER

@<TRIPOS>ATOM
      1 C           1.2280   -0.0907    0.0173 C.ar    1  LIG1        0.0022
      2 C           0.7626    1.0507   -0.5885 C.ar    1  LIG1       -0.0438
      3 C          -0.6585    0.9653   -0.6154 C.ar    1  LIG1       -0.0350
      4 C          -1.0094   -0.2243   -0.0195 C.ar    1  LIG1        0.0629
      5 N           0.1485   -0.8571    0.3527 N.ar    1  LIG1       -0.3595
      6 H           0.1770   -1.7047    0.8964 H       1  LIG1        0.1654
      7 H           2.2309   -0.4140    0.2349 H       1  LIG1        0.0807
      8 H           1.3703    1.8494   -0.9786 H       1  LIG1        0.0633
      9 H          -1.3530    1.6703   -1.0397 H       1  LIG1        0.0639
     10 C          -2.3241   -0.8228    0.2265 C.ar    1  LIG1        0.0633
     11 C          -3.4794   -0.2808    0.7417 C.ar    1  LIG1       -0.0343
     12 C          -4.4670   -1.3053    0.7430 C.ar    1  LIG1       -0.0343
     13 C          -3.8838   -2.4406    0.2285 C.ar    1  LIG1        0.0633
     14 N          -2.5794   -2.1377   -0.0709 N.ar    1  LIG1       -0.3519
     15 H          -1.9786   -2.7178   -0.6365 H       1  LIG1        0.1660
     16 H          -3.5767    0.7280    1.1058 H       1  LIG1        0.0639
     17 H          -5.4782   -1.2446    1.1084 H       1  LIG1        0.0639
     18 C          -4.4339   -3.7767   -0.0154 C.ar    1  LIG1        0.0629
     19 C          -5.6104   -4.1717   -0.6098 C.ar    1  LIG1       -0.0350
     20 C          -5.6439   -5.5949   -0.5807 C.ar    1  LIG1       -0.0438
     21 C          -4.4858   -6.0174    0.0251 C.ar    1  LIG1        0.0022
     22 N          -3.7592   -4.9101    0.3584 N.ar    1  LIG1       -0.3595
     23 H          -2.9106   -4.9067    0.9012 H       1  LIG1        0.1654
     24 H          -4.1261   -7.0074    0.2441 H       1  LIG1        0.0807
     25 H          -6.3405   -3.5040   -1.0347 H       1  LIG1        0.0639
     26 H          -6.4201   -6.2319   -0.9692 H       1  LIG1        0.0633
@<TRIPOS>BOND
     1     9     3    1
     2    25    19    1
     3     8     2    1
     4    26    20    1
     5    15    14    1
     6     3     2   ar
     7     3     4   ar
     8    19    20   ar
     9    19    18   ar
    10     2     1   ar
    11    20    21   ar
    12    14    10   ar
    13    14    13   ar
    14     4    10    1
    15     4     5   ar
    16    18    13    1
    17    18    22   ar
    18     1     7    1
    19     1     5   ar
    20    21    24    1
    21    21    22   ar
    22    10    11   ar
    23    13    12   ar
    24     5     6    1
    25    22    23    1
    26    11    12   ar
    27    11    16    1
    28    12    17    1
