@<TRIPOS>MOLECULE
mol_data/opt/m06hf/geoms/mol2/13aa6af13hi-12ea-.out
 42 45 0 0 0
SMALL
GASTEIGER

@<TRIPOS>ATOM
      1 C           1.3384   -0.5084   -0.6199 C.ar    1  LIG1        0.0022
      2 C           1.1193    0.7143   -0.0317 C.ar    1  LIG1       -0.0438
      3 C          -0.2704    0.7969    0.2595 C.ar    1  LIG1       -0.0364
      4 C          -0.8506   -0.3810   -0.1603 C.ar    1  LIG1        0.0480
      5 N           0.1435   -1.1626   -0.6853 N.ar    1  LIG1       -0.3606
      6 H          -0.0121   -2.0500   -1.1358 H       1  LIG1        0.1653
      7 H           2.2406   -0.9582   -0.9960 H       1  LIG1        0.0807
      8 H           1.8695    1.4589    0.1737 H       1  LIG1        0.0633
      9 H          -0.7877    1.6049    0.7494 H       1  LIG1        0.0639
     10 C          -2.5607   -2.1897    0.1202 C.ar    1  LIG1        0.0377
     11 C          -2.2474   -0.8405   -0.0937 C.ar    1  LIG1        0.0199
     12 C          -3.3043    0.0492   -0.2332 C.ar    1  LIG1       -0.0074
     13 C          -4.6243   -0.3992   -0.1530 C.ar    1  LIG1        0.1448
     14 C          -4.8292   -1.7785    0.0495 C.ar    1  LIG1        0.1301
     15 N          -3.8058   -2.6291    0.1762 N.ar    1  LIG1       -0.2491
     16 H          -3.1345    1.1002   -0.4262 H       1  LIG1        0.0662
     17 H          -1.7796   -2.9247    0.2743 H       1  LIG1        0.0836
     18 O          -5.5978    0.5012   -0.3016 O.3     1  LIG1       -0.5045
     19 H          -6.5238    0.1215   -0.1651 H       1  LIG1        0.2922
     20 C          -6.1578   -2.4285    0.1265 C.ar    1  LIG1        0.0902
     21 C          -7.4800   -2.0069    0.1435 C.ar    1  LIG1        0.0555
     22 C          -8.3185   -3.1493    0.2409 C.ar    1  LIG1       -0.0008
     23 C          -7.4666   -4.2388    0.2694 C.ar    1  LIG1        0.0885
     24 N          -6.1845   -3.7811    0.2099 N.ar    1  LIG1       -0.3487
     25 H          -5.3320   -4.3259    0.2366 H       1  LIG1        0.1661
     26 N          -7.9091   -0.6381    0.1059 N.pl3   1  LIG1       -0.3561
     27 H          -8.5926   -0.4868   -0.6325 H       1  LIG1        0.1424
     28 H          -8.3279   -0.3558    0.9898 H       1  LIG1        0.1424
     29 C          -9.8202   -3.1318    0.3599 C.3     1  LIG1       -0.0358
     30 H         -10.1730   -4.0518    0.8241 H       1  LIG1        0.0279
     31 H         -10.2956   -3.0463   -0.6189 H       1  LIG1        0.0279
     32 H         -10.1319   -2.2864    0.9771 H       1  LIG1        0.0279
     33 C          -7.7348   -5.6663    0.3657 C.ar    1  LIG1        0.1665
     34 C          -8.7195   -6.4790   -0.1266 C.ar    1  LIG1        0.0718
     35 C          -8.3949   -7.8133    0.3233 C.ar    1  LIG1       -0.0078
     36 C          -7.2459   -7.6975    1.0220 C.ar    1  LIG1        0.0939
     37 O          -6.8412   -6.4066    1.0545 O.2     1  LIG1       -0.4602
     38 H          -6.6200   -8.4056    1.5350 H       1  LIG1        0.1030
     39 C          -9.8011   -6.1066   -0.9868 C.1     1  LIG1       -0.0658
     40 C         -10.7098   -5.8223   -1.7203 C.1     1  LIG1       -0.1138
     41 H         -11.5103   -5.5718   -2.3769 H       1  LIG1        0.1232
     42 H          -8.9549   -8.7089    0.1200 H       1  LIG1        0.0661
@<TRIPOS>BOND
     1    41    40    1
     2    40    39    3
     3     6     5    1
     4     7     1    1
     5    39    34    1
     6     5     1   ar
     7     5     4   ar
     8    27    26    1
     9     1     2   ar
    10    31    29    1
    11    16    12    1
    12    18    19    1
    13    18    13    1
    14    12    13   ar
    15    12    11   ar
    16     4    11    1
    17     4     3   ar
    18    13    14   ar
    19    34    35   ar
    20    34    33   ar
    21    11    10   ar
    22     2     8    1
    23     2     3   ar
    24    14    20    1
    25    14    15   ar
    26    26    21    1
    27    26    28    1
    28    42    35    1
    29    10    15   ar
    30    10    17    1
    31    20    21   ar
    32    20    24   ar
    33    21    22   ar
    34    24    25    1
    35    24    23   ar
    36    22    23   ar
    37    22    29    1
    38     3     9    1
    39    23    33    1
    40    35    36   ar
    41    29    30    1
    42    29    32    1
    43    33    37   ar
    44    36    37   ar
    45    36    38    1
