@<TRIPOS>MOLECULE
mol_data/opt/m06hf/geoms/mol2/13aa13aa.out
 18 19 0 0 0
SMALL
GASTEIGER

@<TRIPOS>ATOM
      1 C           1.1695   -0.2198   -0.3040 C.ar    1  LIG1        0.0022
      2 C           0.8069    0.9741    0.2695 C.ar    1  LIG1       -0.0438
      3 C          -0.6010    0.9310    0.4790 C.ar    1  LIG1       -0.0350
      4 C          -1.0472   -0.2872    0.0214 C.ar    1  LIG1        0.0629
      5 N           0.0422   -0.9768   -0.4456 N.ar    1  LIG1       -0.3595
      6 H          -0.0134   -1.8611   -0.9246 H       1  LIG1        0.1654
      7 H           2.1306   -0.5854   -0.6214 H       1  LIG1        0.0807
      8 H           1.4749    1.7803    0.5198 H       1  LIG1        0.0633
      9 H          -1.2235    1.6839    0.9317 H       1  LIG1        0.0639
     10 C          -2.3970   -0.8597   -0.0207 C.ar    1  LIG1        0.0629
     11 C          -3.5831   -0.3334   -0.4777 C.ar    1  LIG1       -0.0350
     12 C          -4.5926   -1.3157   -0.2686 C.ar    1  LIG1       -0.0438
     13 C          -3.9862   -2.4067    0.3041 C.ar    1  LIG1        0.0022
     14 N          -2.6584   -2.1226    0.4455 N.ar    1  LIG1       -0.3595
     15 H          -1.9840   -2.6972    0.9247 H       1  LIG1        0.1654
     16 H          -4.3913   -3.3521    0.6209 H       1  LIG1        0.0807
     17 H          -3.6917    0.6377   -0.9299 H       1  LIG1        0.0639
     18 H          -5.6366   -1.2355   -0.5186 H       1  LIG1        0.0633
@<TRIPOS>BOND
     1    17    11    1
     2     6     5    1
     3     7     1    1
     4    18    12    1
     5    11    12   ar
     6    11    10   ar
     7     5     1   ar
     8     5     4   ar
     9     1     2   ar
    10    12    13   ar
    11    10     4    1
    12    10    14   ar
    13     4     3   ar
    14     2     3   ar
    15     2     8    1
    16    13    14   ar
    17    13    16    1
    18    14    15    1
    19     3     9    1
