@<TRIPOS>MOLECULE
mol_data/opt/m06hf/geoms/mol2/13aa13aa-13aa-13aa.out
 34 37 0 0 0
SMALL
GASTEIGER

@<TRIPOS>ATOM
      1 C           1.2871   -0.4985   -0.4180 C.ar    1  LIG1        0.0022
      2 C           1.0311    0.7990   -0.0450 C.ar    1  LIG1       -0.0438
      3 C          -0.3522    0.8787    0.2792 C.ar    1  LIG1       -0.0350
      4 C          -0.8896   -0.3768    0.0869 C.ar    1  LIG1        0.0629
      5 N           0.1181   -1.1965   -0.3351 N.ar    1  LIG1       -0.3595
      6 H          -0.0196   -2.1586   -0.6000 H       1  LIG1        0.1654
      7 H           2.1985   -0.9733   -0.7366 H       1  LIG1        0.0807
      8 H           1.7547    1.5950    0.0025 H       1  LIG1        0.0633
      9 H          -0.8881    1.7369    0.6497 H       1  LIG1        0.0639
     10 C          -2.2516   -0.8825    0.2600 C.ar    1  LIG1        0.0633
     11 C          -2.7224   -2.0794    0.7588 C.ar    1  LIG1       -0.0343
     12 C          -4.1417   -2.0402    0.6847 C.ar    1  LIG1       -0.0343
     13 C          -4.4913   -0.8231    0.1429 C.ar    1  LIG1        0.0634
     14 N          -3.3341   -0.1330   -0.1051 N.ar    1  LIG1       -0.3519
     15 H          -3.2720    0.7275   -0.6278 H       1  LIG1        0.1660
     16 H          -2.1127   -2.8632    1.1766 H       1  LIG1        0.0639
     17 H          -4.8388   -2.7891    1.0207 H       1  LIG1        0.0639
     18 C          -5.8055   -0.2573   -0.1639 C.ar    1  LIG1        0.0634
     19 C          -6.9238   -0.8350   -0.7231 C.ar    1  LIG1       -0.0343
     20 C          -7.9311    0.1663   -0.7877 C.ar    1  LIG1       -0.0343
     21 C          -7.3932    1.3246   -0.2658 C.ar    1  LIG1        0.0633
     22 N          -6.1063    1.0522    0.1037 N.ar    1  LIG1       -0.3519
     23 H          -5.5301    1.6821    0.6409 H       1  LIG1        0.1660
     24 H          -6.9824   -1.8506   -1.0764 H       1  LIG1        0.0639
     25 H          -8.9163    0.0738   -1.2139 H       1  LIG1        0.0639
     26 C          -7.9686    2.6562   -0.0745 C.ar    1  LIG1        0.0629
     27 C          -7.4299    3.9146   -0.2425 C.ar    1  LIG1       -0.0350
     28 C          -8.4446    4.8551    0.0907 C.ar    1  LIG1       -0.0438
     29 C          -9.5624    4.1387    0.4448 C.ar    1  LIG1        0.0022
     30 N          -9.2599    2.8126    0.3418 N.ar    1  LIG1       -0.3595
     31 H          -9.8627    2.0446    0.5903 H       1  LIG1        0.1654
     32 H         -10.5372    4.4651    0.7624 H       1  LIG1        0.0807
     33 H          -6.4367    4.1253   -0.6030 H       1  LIG1        0.0639
     34 H          -8.3678    5.9287    0.0615 H       1  LIG1        0.0633
@<TRIPOS>BOND
     1    25    20    1
     2    24    19    1
     3    20    19   ar
     4    20    21   ar
     5     7     1    1
     6    19    18   ar
     7    15    14    1
     8    33    27    1
     9     6     5    1
    10     1     5   ar
    11     1     2   ar
    12     5     4   ar
    13    21    26    1
    14    21    22   ar
    15    27    26   ar
    16    27    28   ar
    17    18    22   ar
    18    18    13    1
    19    14    13   ar
    20    14    10   ar
    21    26    30   ar
    22     2     8    1
    23     2     3   ar
    24    34    28    1
    25     4    10    1
    26     4     3   ar
    27    28    29   ar
    28    22    23    1
    29    13    12   ar
    30    10    11   ar
    31     3     9    1
    32    30    29   ar
    33    30    31    1
    34    29    32    1
    35    12    11   ar
    36    12    17    1
    37    11    16    1
