@<TRIPOS>MOLECULE
mol_data/opt/m06hf/geoms/mol2/13aa.out
 10 10 0 0 0
SMALL
GASTEIGER

@<TRIPOS>ATOM
      1 C           1.1180   -0.3108    0.0000 C.ar    1  LIG1        0.0016
      2 C           0.7145    1.0009    0.0002 C.ar    1  LIG1       -0.0444
      3 C          -0.7112    1.0032    0.0001 C.ar    1  LIG1       -0.0444
      4 C          -1.1190   -0.3072    0.0001 C.ar    1  LIG1        0.0016
      5 N          -0.0018   -1.0931    0.0000 N.ar    1  LIG1       -0.3670
      6 H          -0.0034   -2.0994   -0.0001 H       1  LIG1        0.1648
      7 H          -2.1041   -0.7400    0.0001 H       1  LIG1        0.0807
      8 H           2.1017   -0.7467    0.0000 H       1  LIG1        0.0807
      9 H           1.3639    1.8601    0.0002 H       1  LIG1        0.0632
     10 H          -1.3579    1.8644    0.0002 H       1  LIG1        0.0632
@<TRIPOS>BOND
     1     6     5    1
     2     8     1    1
     3     5     1   ar
     4     5     4   ar
     5     1     2   ar
     6     7     4    1
     7     4     3   ar
     8     3     2   ar
     9     3    10    1
    10     2     9    1
