@<TRIPOS>MOLECULE
mol_data/opt/m06hf/geoms/mol2/13aa6if12aa13hi13eh-13ff-6ah6ee.out
 89 96 0 0 0
SMALL
GASTEIGER

@<TRIPOS>ATOM
      1 C           1.6450   -0.3725   -1.0021 C.ar    1  LIG1        0.0022
      2 C           1.2370    0.8845   -0.6154 C.ar    1  LIG1       -0.0438
      3 C          -0.1539    0.8055   -0.3409 C.ar    1  LIG1       -0.0364
      4 C          -0.5480   -0.4993   -0.5656 C.ar    1  LIG1        0.0483
      5 N           0.5622   -1.1959   -0.9607 N.ar    1  LIG1       -0.3606
      6 H           0.5846   -2.1649   -1.2430 H       1  LIG1        0.1653
      7 H           2.6111   -0.7570   -1.2875 H       1  LIG1        0.0807
      8 H           1.8657    1.7543   -0.5295 H       1  LIG1        0.0633
      9 H          -0.7978    1.5950    0.0109 H       1  LIG1        0.0639
     10 C          -2.1461   -2.3755    0.0691 C.ar    1  LIG1        0.0483
     11 C          -1.8965   -1.0871   -0.4556 C.ar    1  LIG1        0.0228
     12 C          -2.9854   -0.3252   -0.8691 C.ar    1  LIG1       -0.0071
     13 C          -4.2710   -0.8284   -0.7332 C.ar    1  LIG1        0.1464
     14 C          -4.4260   -2.1009   -0.1763 C.ar    1  LIG1        0.1475
     15 N          -3.3822   -2.8456    0.1906 N.ar    1  LIG1       -0.2444
     16 H          -2.8445    0.6467   -1.3231 H       1  LIG1        0.0662
     17 C          -1.0331   -3.2865    0.5502 C.3     1  LIG1       -0.0217
     18 H          -0.2743   -2.7176    1.0893 H       1  LIG1        0.0293
     19 H          -0.5411   -3.8085   -0.2764 H       1  LIG1        0.0293
     20 H          -1.4733   -4.0325    1.2095 H       1  LIG1        0.0293
     21 O          -5.3221   -0.0820   -1.1640 O.3     1  LIG1       -0.5045
     22 H          -6.0745   -0.6651   -1.3377 H       1  LIG1        0.2922
     23 C          -5.7743   -2.6733   -0.0073 C.ar    1  LIG1        0.1575
     24 C          -7.0107   -2.1314    0.2116 C.ar    1  LIG1       -0.0135
     25 C          -7.9326   -3.2311    0.2808 C.ar    1  LIG1       -0.0137
     26 C          -7.1807   -4.3517    0.0975 C.ar    1  LIG1        0.1536
     27 O          -5.8815   -4.0172   -0.0818 O.2     1  LIG1       -0.4516
     28 H          -7.2275   -1.0888    0.3820 H       1  LIG1        0.0656
     29 H          -8.9895   -3.2063    0.4823 H       1  LIG1        0.0656
     30 C          -7.4567   -5.7732    0.0614 C.ar    1  LIG1        0.1037
     31 C          -8.6190   -6.4873   -0.1545 C.ar    1  LIG1        0.0568
     32 C          -8.2887   -7.8748   -0.1121 C.ar    1  LIG1       -0.0024
     33 C          -6.9297   -7.9441    0.1432 C.ar    1  LIG1        0.0694
     34 N          -6.4400   -6.6729    0.2233 N.ar    1  LIG1       -0.3489
     35 H          -5.5151   -6.4157    0.5333 H       1  LIG1        0.1661
     36 N          -9.8860   -5.9160   -0.3843 N.pl3   1  LIG1       -0.3560
     37 H          -9.8641   -5.2180   -1.1209 H       1  LIG1        0.1424
     38 H         -10.5884   -6.6148   -0.5912 H       1  LIG1        0.1424
     39 C          -9.2279   -9.0203   -0.3859 C.3     1  LIG1       -0.0359
     40 H          -8.6591   -9.9213   -0.6121 H       1  LIG1        0.0279
     41 H          -9.8641   -8.7872   -1.2436 H       1  LIG1        0.0279
     42 H          -9.8625   -9.2280    0.4776 H       1  LIG1        0.0279
     43 C          -5.9864   -9.0524    0.2372 C.ar    1  LIG1        0.0811
     44 C          -6.0591  -10.3309    0.7697 C.ar    1  LIG1        0.0726
     45 C          -4.7688  -10.9427    0.6025 C.ar    1  LIG1        0.0680
     46 C          -3.9638  -10.0127   -0.0130 C.ar    1  LIG1        0.0893
     47 N          -4.7179   -8.8709   -0.2213 N.ar    1  LIG1       -0.3493
     48 H          -4.4758   -8.1527   -0.8887 H       1  LIG1        0.1661
     49 C          -7.1572  -10.9367    1.4552 C.1     1  LIG1       -0.0656
     50 C          -8.0531  -11.4896    2.0386 C.1     1  LIG1       -0.1138
     51 H          -8.8478  -11.9644    2.5652 H       1  LIG1        0.1232
     52 N          -4.3904  -12.1914    1.0743 N.pl3   1  LIG1       -0.3553
     53 H          -5.1777  -12.7874    1.2928 H       1  LIG1        0.1424
     54 H          -3.6904  -12.6472    0.4990 H       1  LIG1        0.1424
     55 C          -2.5461  -10.0311   -0.3146 C.ar    1  LIG1        0.1110
     56 C          -1.7022  -11.0394   -0.7200 C.ar    1  LIG1        0.1863
     57 C          -0.4036  -10.4857   -0.8431 C.ar    1  LIG1        0.1849
     58 C          -0.4727   -9.1482   -0.5083 C.ar    1  LIG1        0.0943
     59 N          -1.7842   -8.8933   -0.2088 N.ar    1  LIG1       -0.3470
     60 H          -2.0985   -8.0755    0.2911 H       1  LIG1        0.1662
     61 O          -2.0592  -12.3309   -0.9801 O.3     1  LIG1       -0.5019
     62 H          -1.2490  -12.8478   -1.0737 H       1  LIG1        0.2924
     63 O           0.6985  -11.2122   -1.2380 O.3     1  LIG1       -0.5019
     64 H           0.8932  -11.0165   -2.1631 H       1  LIG1        0.2924
     65 C           0.2130   -6.7541   -0.4835 C.ar    1  LIG1        0.0376
     66 C           0.5592   -8.1117   -0.4468 C.ar    1  LIG1        0.0219
     67 C           1.9076   -8.4395   -0.3352 C.ar    1  LIG1       -0.0283
     68 C           2.8615   -7.4238   -0.2422 C.ar    1  LIG1        0.0516
     69 C           2.3968   -6.0935   -0.2337 C.ar    1  LIG1        0.0942
     70 N           1.1096   -5.7898   -0.3652 N.ar    1  LIG1       -0.2524
     71 H           2.2055   -9.4814   -0.3085 H       1  LIG1        0.0644
     72 H          -0.8146   -6.4374   -0.6184 H       1  LIG1        0.0836
     73 N           4.2128   -7.7197   -0.1050 N.pl3   1  LIG1       -0.3563
     74 H           4.4681   -8.6639   -0.3568 H       1  LIG1        0.1424
     75 H           4.8505   -7.0287   -0.4780 H       1  LIG1        0.1424
     76 C           3.2777   -3.8087   -0.8669 C.ar    1  LIG1        0.1224
     77 C           3.3283   -4.9438   -0.0426 C.ar    1  LIG1        0.0371
     78 C           4.2428   -4.9341    1.0094 C.ar    1  LIG1       -0.0330
     79 C           5.0500   -3.8156    1.2064 C.ar    1  LIG1        0.0435
     80 C           4.9057   -2.7327    0.3296 C.ar    1  LIG1        0.0444
     81 N           4.0487   -2.7338   -0.6787 N.ar    1  LIG1       -0.2448
     82 H           4.3186   -5.7879    1.6713 H       1  LIG1        0.0638
     83 H           5.5117   -1.8458    0.4607 H       1  LIG1        0.0842
     84 C           2.3874   -3.7439   -2.0121 C.1     1  LIG1       -0.0491
     85 C           1.6833   -3.6504   -2.9819 C.1     1  LIG1       -0.1124
     86 H           1.0686   -3.5685   -3.8491 H       1  LIG1        0.1232
     87 C           6.0047   -3.7574    2.2835 C.1     1  LIG1       -0.0681
     88 C           6.8030   -3.7047    3.1793 C.1     1  LIG1       -0.1139
     89 H           7.5088   -3.6570    3.9765 H       1  LIG1        0.1232
@<TRIPOS>BOND
     1    86    85    1
     2    85    84    3
     3    64    63    1
     4    84    76    1
     5    22    21    1
     6    16    12    1
     7     7     1    1
     8    41    39    1
     9     6     5    1
    10    63    57    1
    11    21    13    1
    12    37    36    1
    13    62    61    1
    14     1     5   ar
    15     1     2   ar
    16    61    56    1
    17     5     4   ar
    18    48    47    1
    19    12    13   ar
    20    12    11   ar
    21    76    81   ar
    22    76    77   ar
    23    57    56   ar
    24    57    58   ar
    25    13    14   ar
    26    56    55   ar
    27    81    80   ar
    28    72    65    1
    29     2     8    1
    30     2     3   ar
    31    40    39    1
    32    38    36    1
    33     4    11    1
    34     4     3   ar
    35    58    66    1
    36    58    59   ar
    37    65    66   ar
    38    65    70   ar
    39    75    73    1
    40    11    10   ar
    41    66    67   ar
    42    39    32    1
    43    39    42    1
    44    36    31    1
    45    70    69   ar
    46    74    73    1
    47     3     9    1
    48    67    71    1
    49    67    68   ar
    50    55    59   ar
    51    55    46    1
    52    19    17    1
    53    68    69   ar
    54    68    73    1
    55    69    77    1
    56    47    46   ar
    57    47    43   ar
    58    59    60    1
    59    14    23    1
    60    14    15   ar
    61    31    32   ar
    62    31    30   ar
    63    32    33   ar
    64    27    23   ar
    65    27    26   ar
    66    77    78   ar
    67    46    45   ar
    68    23    24   ar
    69    30    26    1
    70    30    34   ar
    71    10    15   ar
    72    10    17    1
    73    26    25   ar
    74    33    34   ar
    75    33    43    1
    76    24    25   ar
    77    24    28    1
    78    34    35    1
    79    43    44   ar
    80    25    29    1
    81    80    83    1
    82    80    79   ar
    83    54    52    1
    84    17    18    1
    85    17    20    1
    86    45    44   ar
    87    45    52    1
    88    44    49    1
    89    78    79   ar
    90    78    82    1
    91    52    53    1
    92    79    87    1
    93    49    50    3
    94    50    51    1
    95    87    88    3
    96    88    89    1
