@<TRIPOS>MOLECULE
mol_data/opt/m06hf/geoms/mol2/13aa13aa-13aa13aa-.out
 34 37 0 0 0
SMALL
GASTEIGER

@<TRIPOS>ATOM
      1 C           1.0953   -0.2424   -0.9677 C.ar    1  LIG1        0.0022
      2 C           0.8947    0.9747   -0.3624 C.ar    1  LIG1       -0.0438
      3 C          -0.4102    0.9524    0.2059 C.ar    1  LIG1       -0.0350
      4 C          -0.9581   -0.2803   -0.0791 C.ar    1  LIG1        0.0629
      5 N          -0.0320   -0.9895   -0.7898 N.ar    1  LIG1       -0.3595
      6 H          -0.2039   -1.9066   -1.1689 H       1  LIG1        0.1654
      7 H           1.9429   -0.6292   -1.5062 H       1  LIG1        0.0807
      8 H           1.6050    1.7828   -0.3211 H       1  LIG1        0.0633
      9 H          -0.8822    1.7256    0.7893 H       1  LIG1        0.0639
     10 C          -2.2639   -0.8560    0.2462 C.ar    1  LIG1        0.0633
     11 C          -2.6273   -2.1302    0.6316 C.ar    1  LIG1       -0.0343
     12 C          -4.0377   -2.1321    0.8086 C.ar    1  LIG1       -0.0343
     13 C          -4.4877   -0.8589    0.5241 C.ar    1  LIG1        0.0634
     14 N          -3.4019   -0.1042    0.1856 N.ar    1  LIG1       -0.3519
     15 H          -3.4450    0.8375   -0.1721 H       1  LIG1        0.1660
     16 H          -1.9472   -2.9455    0.8162 H       1  LIG1        0.0639
     17 H          -4.6488   -2.9497    1.1538 H       1  LIG1        0.0639
     18 C          -5.8338   -0.2887    0.5290 C.ar    1  LIG1        0.0634
     19 C          -6.2838    0.9802    0.8320 C.ar    1  LIG1       -0.0343
     20 C          -7.6944    0.9805    0.6566 C.ar    1  LIG1       -0.0343
     21 C          -8.0580   -0.2882    0.2537 C.ar    1  LIG1        0.0633
     22 N          -6.9199   -1.0388    0.1810 N.ar    1  LIG1       -0.3519
     23 H          -6.8770   -1.9753   -0.1902 H       1  LIG1        0.1660
     24 H          -5.6725    1.7930    1.1880 H       1  LIG1        0.0639
     25 H          -8.3744    1.7930    0.8535 H       1  LIG1        0.0639
     26 C          -9.3640   -0.8600   -0.0776 C.ar    1  LIG1        0.0629
     27 C          -9.9108   -2.0969    0.1910 C.ar    1  LIG1       -0.0350
     28 C         -11.2165   -2.1119   -0.3755 C.ar    1  LIG1       -0.0438
     29 C         -11.4189   -0.8865   -0.9633 C.ar    1  LIG1        0.0022
     30 N         -10.2918   -0.1413   -0.7766 N.ar    1  LIG1       -0.3595
     31 H         -10.1209    0.7812   -1.1429 H       1  LIG1        0.1654
     32 H         -12.2677   -0.4927   -1.4947 H       1  LIG1        0.0807
     33 H          -9.4375   -2.8779    0.7626 H       1  LIG1        0.0639
     34 H         -11.9263   -2.9210   -0.3445 H       1  LIG1        0.0633
@<TRIPOS>BOND
     1     7     1    1
     2    32    29    1
     3     6     5    1
     4    31    30    1
     5     1     5   ar
     6     1     2   ar
     7    29    30   ar
     8    29    28   ar
     9     5     4   ar
    10    30    26   ar
    11    28    34    1
    12    28    27   ar
    13     2     8    1
    14     2     3   ar
    15    23    22    1
    16    15    14    1
    17     4     3   ar
    18     4    10    1
    19    26    27   ar
    20    26    21    1
    21    22    21   ar
    22    22    18   ar
    23    14    10   ar
    24    14    13   ar
    25    27    33    1
    26     3     9    1
    27    10    11   ar
    28    21    20   ar
    29    13    18    1
    30    13    12   ar
    31    18    19   ar
    32    11    12   ar
    33    11    16    1
    34    20    19   ar
    35    20    25    1
    36    12    17    1
    37    19    24    1
