@<TRIPOS>MOLECULE
mol_data/opt/m06hf/geoms/mol2/13aa13aa-13aa.out
 26 28 0 0 0
SMALL
GASTEIGER

@<TRIPOS>ATOM
      1 C           1.1686   -0.2942   -0.5604 C.ar    1  LIG1        0.0022
      2 C           0.8880    0.9601   -0.0747 C.ar    1  LIG1       -0.0438
      3 C          -0.4800    0.9632    0.3194 C.ar    1  LIG1       -0.0350
      4 C          -0.9841   -0.2922    0.0536 C.ar    1  LIG1        0.0629
      5 N           0.0284   -1.0393   -0.4786 N.ar    1  LIG1       -0.3595
      6 H          -0.0906   -1.9829   -0.8103 H       1  LIG1        0.1654
      7 H           2.0790   -0.7090   -0.9562 H       1  LIG1        0.0807
      8 H           1.5848    1.7774    0.0010 H       1  LIG1        0.0633
      9 H          -1.0253    1.7710    0.7795 H       1  LIG1        0.0639
     10 C          -2.3200   -0.8573    0.2453 C.ar    1  LIG1        0.0633
     11 C          -2.7302   -2.1123    0.6473 C.ar    1  LIG1       -0.0343
     12 C          -4.1516   -2.1109    0.6506 C.ar    1  LIG1       -0.0343
     13 C          -4.5613   -0.8552    0.2504 C.ar    1  LIG1        0.0633
     14 N          -3.4405   -0.1151    0.0082 N.ar    1  LIG1       -0.3519
     15 H          -3.4406    0.8093   -0.3947 H       1  LIG1        0.1660
     16 H          -2.0788   -2.9135    0.9555 H       1  LIG1        0.0639
     17 H          -4.8031   -2.9109    0.9616 H       1  LIG1        0.0639
     18 C          -5.8969   -0.2874    0.0649 C.ar    1  LIG1        0.0629
     19 C          -6.3971    0.9690    0.3334 C.ar    1  LIG1       -0.0350
     20 C          -7.7669    0.9689   -0.0544 C.ar    1  LIG1       -0.0438
     21 C          -8.0523   -0.2847   -0.5392 C.ar    1  LIG1        0.0022
     22 N          -6.9133   -1.0321   -0.4630 N.ar    1  LIG1       -0.3595
     23 H          -6.7978   -1.9758   -0.7956 H       1  LIG1        0.1654
     24 H          -8.9654   -0.6975   -0.9310 H       1  LIG1        0.0807
     25 H          -5.8480    1.7755    0.7913 H       1  LIG1        0.0639
     26 H          -8.4617    1.7875    0.0248 H       1  LIG1        0.0633
@<TRIPOS>BOND
     1     7     1    1
     2    24    21    1
     3     6     5    1
     4    23    22    1
     5     1     5   ar
     6     1     2   ar
     7    21    22   ar
     8    21    20   ar
     9     5     4   ar
    10    22    18   ar
    11    15    14    1
    12     2     8    1
    13     2     3   ar
    14    20    26    1
    15    20    19   ar
    16    14    10   ar
    17    14    13   ar
    18     4    10    1
    19     4     3   ar
    20    18    13    1
    21    18    19   ar
    22    10    11   ar
    23    13    12   ar
    24     3     9    1
    25    19    25    1
    26    11    12   ar
    27    11    16    1
    28    12    17    1
