@<TRIPOS>MOLECULE
mol_data/opt/m06hf/geoms/mol2/13aa13aa13aa-13aa.out
 34 37 0 0 0
SMALL
GASTEIGER

@<TRIPOS>ATOM
      1 C           1.1004   -0.2126   -1.0481 C.ar    1  LIG1        0.0022
      2 C           1.0320    0.8109   -0.1344 C.ar    1  LIG1       -0.0438
      3 C          -0.2710    0.7786    0.4383 C.ar    1  LIG1       -0.0350
      4 C          -0.9523   -0.2620   -0.1500 C.ar    1  LIG1        0.0629
      5 N          -0.1027   -0.8578   -1.0465 N.ar    1  LIG1       -0.3595
      6 H          -0.3774   -1.5877   -1.6846 H       1  LIG1        0.1654
      7 H           1.9019   -0.5289   -1.6926 H       1  LIG1        0.0807
      8 H           1.8277    1.4963    0.1038 H       1  LIG1        0.0633
      9 H          -0.6685    1.4178    1.2088 H       1  LIG1        0.0639
     10 C          -2.3201   -0.7492    0.0503 C.ar    1  LIG1        0.0633
     11 C          -3.5223   -0.0770    0.0813 C.ar    1  LIG1       -0.0343
     12 C          -4.5421   -1.0395    0.3112 C.ar    1  LIG1       -0.0343
     13 C          -3.9295   -2.2728    0.4031 C.ar    1  LIG1        0.0634
     14 N          -2.5878   -2.0788    0.2401 N.ar    1  LIG1       -0.3519
     15 H          -1.8940   -2.8079    0.3058 H       1  LIG1        0.1660
     16 H          -3.6393    0.9840   -0.0601 H       1  LIG1        0.0639
     17 H          -5.5979   -0.8565    0.4254 H       1  LIG1        0.0639
     18 C          -4.4803   -3.6089    0.6265 C.ar    1  LIG1        0.0634
     19 C          -3.9856   -4.6943    1.3209 C.ar    1  LIG1       -0.0343
     20 C          -4.9374   -5.7431    1.1985 C.ar    1  LIG1       -0.0343
     21 C          -5.9810   -5.2628    0.4338 C.ar    1  LIG1        0.0633
     22 N          -5.6846   -3.9735    0.0971 N.ar    1  LIG1       -0.3519
     23 H          -6.2250   -3.4116   -0.5428 H       1  LIG1        0.1660
     24 H          -3.0735   -4.7083    1.8949 H       1  LIG1        0.0639
     25 H          -4.8958   -6.7167    1.6584 H       1  LIG1        0.0639
     26 C          -7.2193   -5.8979   -0.0192 C.ar    1  LIG1        0.0629
     27 C          -8.5009   -5.4062   -0.1473 C.ar    1  LIG1       -0.0350
     28 C          -9.3107   -6.4658   -0.6440 C.ar    1  LIG1       -0.0438
     29 C          -8.4974   -7.5626   -0.7963 C.ar    1  LIG1        0.0022
     30 N          -7.2368   -7.2048   -0.4164 N.ar    1  LIG1       -0.3595
     31 H          -6.4123   -7.7811   -0.4714 H       1  LIG1        0.1654
     32 H          -8.7146   -8.5572   -1.1446 H       1  LIG1        0.0807
     33 H          -8.8188   -4.4133    0.1243 H       1  LIG1        0.0639
     34 H         -10.3663   -6.4300   -0.8535 H       1  LIG1        0.0633
@<TRIPOS>BOND
     1     7     1    1
     2     6     5    1
     3    32    29    1
     4     1     5   ar
     5     1     2   ar
     6     5     4   ar
     7    34    28    1
     8    29    28   ar
     9    29    30   ar
    10    28    27   ar
    11    23    22    1
    12    31    30    1
    13    30    26   ar
    14     4    10    1
    15     4     3   ar
    16    27    26   ar
    17    27    33    1
    18     2     8    1
    19     2     3   ar
    20    16    11    1
    21    26    21    1
    22    10    11   ar
    23    10    14   ar
    24    11    12   ar
    25    22    21   ar
    26    22    18   ar
    27    14    15    1
    28    14    13   ar
    29    12    13   ar
    30    12    17    1
    31    13    18    1
    32    21    20   ar
    33     3     9    1
    34    18    19   ar
    35    20    19   ar
    36    20    25    1
    37    19    24    1
