@<TRIPOS>MOLECULE
mol_data/opt/m06hf/geoms/mol2/13aa13aa-.out
 18 19 0 0 0
SMALL
GASTEIGER

@<TRIPOS>ATOM
      1 C           1.1891   -0.2817   -0.0003 C.ar    1  LIG1        0.0022
      2 C           0.7883    1.0313   -0.0000 C.ar    1  LIG1       -0.0438
      3 C          -0.6345    1.0354    0.0002 C.ar    1  LIG1       -0.0350
      4 C          -1.0521   -0.2797    0.0002 C.ar    1  LIG1        0.0629
      5 N           0.0684   -1.0610   -0.0000 N.ar    1  LIG1       -0.3595
      6 H           0.0584   -2.0672   -0.0002 H       1  LIG1        0.1654
      7 H           2.1716   -0.7200   -0.0005 H       1  LIG1        0.0807
      8 H           1.4373    1.8905   -0.0000 H       1  LIG1        0.0633
      9 H          -1.2704    1.9059    0.0004 H       1  LIG1        0.0639
     10 C          -2.3898   -0.8725    0.0004 C.ar    1  LIG1        0.0629
     11 C          -2.8075   -2.1877    0.0006 C.ar    1  LIG1       -0.0350
     12 C          -4.2302   -2.1835    0.0007 C.ar    1  LIG1       -0.0438
     13 C          -4.6311   -0.8705    0.0008 C.ar    1  LIG1        0.0022
     14 N          -3.5103   -0.0913    0.0005 N.ar    1  LIG1       -0.3595
     15 H          -3.5003    0.9150    0.0003 H       1  LIG1        0.1654
     16 H          -5.6135   -0.4322    0.0009 H       1  LIG1        0.0807
     17 H          -2.1716   -3.0581    0.0007 H       1  LIG1        0.0639
     18 H          -4.8792   -3.0427    0.0008 H       1  LIG1        0.0633
@<TRIPOS>BOND
     1     7     1    1
     2     1     5   ar
     3     1     2   ar
     4     6     5    1
     5     5     4   ar
     6     8     2    1
     7     2     3   ar
     8     3     4   ar
     9     3     9    1
    10     4    10    1
    11    15    14    1
    12    10    14   ar
    13    10    11   ar
    14    14    13   ar
    15    11    17    1
    16    11    12   ar
    17    12    13   ar
    18    12    18    1
    19    13    16    1
