@<TRIPOS>MOLECULE
mol_data/opt/m06hf/geoms/mol2/13aa13aa-13aa-13aa-.out
 34 37 0 0 0
SMALL
GASTEIGER

@<TRIPOS>ATOM
      1 C           1.2663   -0.6353   -0.7383 C.ar    1  LIG1        0.0022
      2 C           1.0322    0.7133   -0.6151 C.ar    1  LIG1       -0.0438
      3 C          -0.3216    0.8694   -0.2053 C.ar    1  LIG1       -0.0350
      4 C          -0.8645   -0.3938   -0.0983 C.ar    1  LIG1        0.0629
      5 N           0.1122   -1.2909   -0.4246 N.ar    1  LIG1       -0.3595
      6 H          -0.0393   -2.2851   -0.4820 H       1  LIG1        0.1654
      7 H           2.1525   -1.1733   -1.0256 H       1  LIG1        0.0807
      8 H           1.7510    1.4958   -0.7883 H       1  LIG1        0.0633
      9 H          -0.8320    1.7905    0.0243 H       1  LIG1        0.0639
     10 C          -2.2079   -0.8406    0.2709 C.ar    1  LIG1        0.0633
     11 C          -2.6388   -1.9294    1.0001 C.ar    1  LIG1       -0.0343
     12 C          -4.0597   -1.8835    1.0296 C.ar    1  LIG1       -0.0343
     13 C          -4.4503   -0.7704    0.3192 C.ar    1  LIG1        0.0634
     14 N          -3.3144   -0.1475   -0.1295 N.ar    1  LIG1       -0.3519
     15 H          -3.2934    0.6041   -0.8020 H       1  LIG1        0.1660
     16 H          -1.9993   -2.6415    1.4951 H       1  LIG1        0.0639
     17 H          -4.7294   -2.5565    1.5380 H       1  LIG1        0.0639
     18 C          -5.7841   -0.2395    0.0270 C.ar    1  LIG1        0.0634
     19 C          -6.9212   -0.8625   -0.4389 C.ar    1  LIG1       -0.0343
     20 C          -7.9373    0.1262   -0.5379 C.ar    1  LIG1       -0.0343
     21 C          -7.3879    1.3247   -0.1379 C.ar    1  LIG1        0.0633
     22 N          -6.0829    1.0854    0.2030 N.ar    1  LIG1       -0.3519
     23 H          -5.4357    1.7846    0.5325 H       1  LIG1        0.1660
     24 H          -6.9919   -1.9078   -0.6879 H       1  LIG1        0.0639
     25 H          -8.9588   -0.0063   -0.8516 H       1  LIG1        0.0639
     26 C          -7.9735    2.6658   -0.0445 C.ar    1  LIG1        0.0629
     27 C          -8.6950    3.3986   -0.9583 C.ar    1  LIG1       -0.0350
     28 C          -9.0270    4.6380   -0.3417 C.ar    1  LIG1       -0.0438
     29 C          -8.4935    4.6185    0.9241 C.ar    1  LIG1        0.0022
     30 N          -7.8544    3.4241    1.0920 N.ar    1  LIG1       -0.3595
     31 H          -7.4631    3.0863    1.9566 H       1  LIG1        0.1654
     32 H          -8.5212    5.3517    1.7114 H       1  LIG1        0.0807
     33 H          -8.9302    3.0763   -1.9587 H       1  LIG1        0.0639
     34 H          -9.5829    5.4502   -0.7781 H       1  LIG1        0.0633
@<TRIPOS>BOND
     1    33    27    1
     2     7     1    1
     3    27    28   ar
     4    27    26   ar
     5    25    20    1
     6    15    14    1
     7     8     2    1
     8    34    28    1
     9     1     2   ar
    10     1     5   ar
    11    24    19    1
    12     2     3   ar
    13    20    19   ar
    14    20    21   ar
    15     6     5    1
    16    19    18   ar
    17     5     4   ar
    18    28    29   ar
    19     3     4   ar
    20     3     9    1
    21    21    26    1
    22    21    22   ar
    23    14    10   ar
    24    14    13   ar
    25     4    10    1
    26    26    30   ar
    27    18    22   ar
    28    18    13    1
    29    22    23    1
    30    10    11   ar
    31    13    12   ar
    32    29    30   ar
    33    29    32    1
    34    11    12   ar
    35    11    16    1
    36    12    17    1
    37    30    31    1
