@<TRIPOS>MOLECULE
mol_data/opt/m06hf/geoms/mol2/13aa13aa13aa13aa-.out
 34 37 0 0 0
SMALL
GASTEIGER

@<TRIPOS>ATOM
      1 C           1.2192    0.1030    0.1281 C.ar    1  LIG1        0.0022
      2 C           0.7311    1.2342   -0.4798 C.ar    1  LIG1       -0.0438
      3 C          -0.6849    1.1011   -0.5435 C.ar    1  LIG1       -0.0350
      4 C          -1.0099   -0.1053    0.0323 C.ar    1  LIG1        0.0629
      5 N           0.1589   -0.7022    0.4290 N.ar    1  LIG1       -0.3595
      6 H           0.2023   -1.5570    0.9596 H       1  LIG1        0.1654
      7 H           2.2270   -0.1869    0.3694 H       1  LIG1        0.0807
      8 H           1.3217    2.0565   -0.8459 H       1  LIG1        0.0633
      9 H          -1.3925    1.7870   -0.9776 H       1  LIG1        0.0639
     10 C          -2.3103   -0.7474    0.2448 C.ar    1  LIG1        0.0633
     11 C          -3.4782   -0.2596    0.7849 C.ar    1  LIG1       -0.0343
     12 C          -4.4391   -1.3078    0.7413 C.ar    1  LIG1       -0.0343
     13 C          -3.8273   -2.4030    0.1746 C.ar    1  LIG1        0.0634
     14 N          -2.5320   -2.0544   -0.1111 N.ar    1  LIG1       -0.3519
     15 H          -1.9159   -2.5909   -0.7032 H       1  LIG1        0.1660
     16 H          -3.6002    0.7291    1.1934 H       1  LIG1        0.0639
     17 H          -5.4504   -1.2892    1.1113 H       1  LIG1        0.0639
     18 C          -4.3470   -3.7372   -0.1277 C.ar    1  LIG1        0.0634
     19 C          -5.5613   -4.1323   -0.6439 C.ar    1  LIG1       -0.0343
     20 C          -5.5446   -5.5516   -0.7291 C.ar    1  LIG1       -0.0343
     21 C          -4.3180   -5.9769   -0.2630 C.ar    1  LIG1        0.0633
     22 N          -3.6046   -4.8672    0.0935 N.ar    1  LIG1       -0.3519
     23 H          -2.7308   -4.8990    0.5954 H       1  LIG1        0.1660
     24 H          -6.3452   -3.4639   -0.9571 H       1  LIG1        0.0639
     25 H          -6.3128   -6.1893   -1.1340 H       1  LIG1        0.0639
     26 C          -3.7513   -7.3174   -0.1126 C.ar    1  LIG1        0.0629
     27 C          -2.4785   -7.7981   -0.3387 C.ar    1  LIG1       -0.0350
     28 C          -2.4896   -9.1853   -0.0216 C.ar    1  LIG1       -0.0438
     29 C          -3.7650   -9.4999    0.3815 C.ar    1  LIG1        0.0022
     30 N          -4.5154   -8.3622    0.3228 N.ar    1  LIG1       -0.3595
     31 H          -5.4762   -8.2682    0.6104 H       1  LIG1        0.1654
     32 H          -4.1913  -10.4331    0.7059 H       1  LIG1        0.0807
     33 H          -1.6545   -7.2232   -0.7277 H       1  LIG1        0.0639
     34 H          -1.6643   -9.8731   -0.0941 H       1  LIG1        0.0633
@<TRIPOS>BOND
     1    25    20    1
     2     9     3    1
     3    24    19    1
     4     8     2    1
     5    20    19   ar
     6    20    21   ar
     7    33    27    1
     8    15    14    1
     9    19    18   ar
    10     3     2   ar
    11     3     4   ar
    12     2     1   ar
    13    27    26   ar
    14    27    28   ar
    15    21    26    1
    16    21    22   ar
    17    18    22   ar
    18    18    13    1
    19    26    30   ar
    20    14    13   ar
    21    14    10   ar
    22    34    28    1
    23    28    29   ar
    24     4    10    1
    25     4     5   ar
    26    22    23    1
    27     1     7    1
    28     1     5   ar
    29    13    12   ar
    30    10    11   ar
    31    30    29   ar
    32    30    31    1
    33    29    32    1
    34     5     6    1
    35    12    11   ar
    36    12    17    1
    37    11    16    1
