@<TRIPOS>MOLECULE
mol_data/opt/m06hf/geoms/mol2/13aa13aa-4aa13aa.out
 36 39 0 0 0
SMALL
GASTEIGER

@<TRIPOS>ATOM
      1 C           1.2463   -0.2654   -0.6543 C.ar    1  LIG1        0.0022
      2 C           0.9816    0.9442   -0.0579 C.ar    1  LIG1       -0.0438
      3 C          -0.3741    0.9134    0.3732 C.ar    1  LIG1       -0.0350
      4 C          -0.8876   -0.3160    0.0177 C.ar    1  LIG1        0.0629
      5 N           0.1083   -1.0154   -0.6025 N.ar    1  LIG1       -0.3595
      6 H          -0.0213   -1.9286   -1.0075 H       1  LIG1        0.1654
      7 H           2.1446   -0.6448   -1.1088 H       1  LIG1        0.0807
      8 H           1.6811    1.7531    0.0660 H       1  LIG1        0.0633
      9 H          -0.9049    1.6788    0.9153 H       1  LIG1        0.0639
     10 C          -2.2187   -0.8955    0.2018 C.ar    1  LIG1        0.0633
     11 C          -2.6193   -2.1792    0.5130 C.ar    1  LIG1       -0.0344
     12 C          -4.0394   -2.1809    0.5425 C.ar    1  LIG1       -0.0358
     13 C          -4.4627   -0.8990    0.2559 C.ar    1  LIG1        0.0469
     14 N          -3.3438   -0.1366    0.0570 N.ar    1  LIG1       -0.3530
     15 H          -3.3419    0.8082   -0.2956 H       1  LIG1        0.1659
     16 H          -1.9609   -3.0008    0.7427 H       1  LIG1        0.0639
     17 H          -4.6831   -3.0067    0.7957 H       1  LIG1        0.0639
     18 C          -6.0767    0.9874    0.5649 C.ar    1  LIG1       -0.0520
     19 C          -7.3580    1.5153    0.4788 C.ar    1  LIG1       -0.0520
     20 C          -5.8185   -0.3290    0.1657 C.ar    1  LIG1       -0.0017
     21 C          -8.4155    0.7412   -0.0080 C.ar    1  LIG1       -0.0017
     22 H          -7.5567    2.5227    0.8210 H       1  LIG1        0.0624
     23 C          -6.8755   -1.1032   -0.3221 C.ar    1  LIG1       -0.0520
     24 C          -8.1567   -0.5749   -0.4076 C.ar    1  LIG1       -0.0520
     25 H          -6.6772   -2.1099   -0.6666 H       1  LIG1        0.0624
     26 H          -5.2783    1.5863    0.9865 H       1  LIG1        0.0624
     27 H          -8.9549   -1.1731   -0.8308 H       1  LIG1        0.0624
     28 C          -9.7722    1.3123   -0.0976 C.ar    1  LIG1        0.0465
     29 C         -10.1970    2.5825   -0.4245 C.ar    1  LIG1       -0.0364
     30 C         -11.6185    2.5845   -0.3699 C.ar    1  LIG1       -0.0438
     31 C         -12.0120    1.3184   -0.0093 C.ar    1  LIG1        0.0022
     32 N         -10.8893    0.5584    0.1437 N.ar    1  LIG1       -0.3607
     33 H         -10.8660   -0.3885    0.4866 H       1  LIG1        0.1653
     34 H         -12.9924    0.9060    0.1543 H       1  LIG1        0.0807
     35 H          -9.5546    3.3995   -0.7077 H       1  LIG1        0.0639
     36 H         -12.2740    3.4128   -0.5792 H       1  LIG1        0.0633
@<TRIPOS>BOND
     1     7     1    1
     2     6     5    1
     3    27    24    1
     4    35    29    1
     5    25    23    1
     6     1     5   ar
     7     1     2   ar
     8     5     4   ar
     9    36    30    1
    10    29    30   ar
    11    29    28   ar
    12    24    23   ar
    13    24    21   ar
    14    30    31   ar
    15    23    20   ar
    16    15    14    1
    17    28    21    1
    18    28    32   ar
    19     2     8    1
    20     2     3   ar
    21    31    32   ar
    22    31    34    1
    23    21    19   ar
    24     4    10    1
    25     4     3   ar
    26    14    10   ar
    27    14    13   ar
    28    32    33    1
    29    20    13    1
    30    20    18   ar
    31    10    11   ar
    32    13    12   ar
    33     3     9    1
    34    19    18   ar
    35    19    22    1
    36    11    12   ar
    37    11    16    1
    38    12    17    1
    39    18    26    1
