@<TRIPOS>MOLECULE
mol_data/opt/m06hf/geoms/mol2/13aa13aa13aa13aa.out
 34 37 0 0 0
SMALL
GASTEIGER

@<TRIPOS>ATOM
      1 C           0.7739    0.5606   -1.3289 C.ar    1  LIG1        0.0022
      2 C           0.9878    1.0055   -0.0470 C.ar    1  LIG1       -0.0438
      3 C          -0.1246    0.5851    0.7359 C.ar    1  LIG1       -0.0350
      4 C          -0.9791   -0.0979   -0.0981 C.ar    1  LIG1        0.0629
      5 N          -0.4147   -0.1096   -1.3481 N.ar    1  LIG1       -0.3595
      6 H          -0.8774   -0.4578   -2.1724 H       1  LIG1        0.1654
      7 H           1.3659    0.6711   -2.2206 H       1  LIG1        0.0807
      8 H           1.8461    1.5598    0.2922 H       1  LIG1        0.0633
      9 H          -0.2840    0.7379    1.7901 H       1  LIG1        0.0639
     10 C          -2.2683   -0.7456    0.1666 C.ar    1  LIG1        0.0633
     11 C          -3.4117   -0.2712    0.7708 C.ar    1  LIG1       -0.0343
     12 C          -4.3646   -1.3260    0.7671 C.ar    1  LIG1       -0.0343
     13 C          -3.7775   -2.4102    0.1525 C.ar    1  LIG1        0.0634
     14 N          -2.5069   -2.0423   -0.2041 N.ar    1  LIG1       -0.3519
     15 H          -1.8420   -2.6383   -0.6720 H       1  LIG1        0.1660
     16 H          -3.5344    0.7273    1.1544 H       1  LIG1        0.0639
     17 H          -5.3623   -1.3147    1.1727 H       1  LIG1        0.0639
     18 C          -4.2914   -3.7556   -0.1222 C.ar    1  LIG1        0.0634
     19 C          -5.4607   -4.1724   -0.7196 C.ar    1  LIG1       -0.0343
     20 C          -5.4489   -5.5938   -0.7327 C.ar    1  LIG1       -0.0343
     21 C          -4.2687   -6.0023   -0.1514 C.ar    1  LIG1        0.0633
     22 N          -3.5797   -4.8767    0.2149 N.ar    1  LIG1       -0.3519
     23 H          -2.6789   -4.8756    0.6674 H       1  LIG1        0.1660
     24 H          -6.2211   -3.5158   -1.1078 H       1  LIG1        0.0639
     25 H          -6.2102   -6.2565   -1.1077 H       1  LIG1        0.0639
     26 C          -3.7306   -7.3443    0.0954 C.ar    1  LIG1        0.0629
     27 C          -3.5596   -8.4169   -0.7488 C.ar    1  LIG1       -0.0350
     28 C          -2.9938   -9.4750    0.0177 C.ar    1  LIG1       -0.0438
     29 C          -2.8361   -9.0087    1.3001 C.ar    1  LIG1        0.0022
     30 N          -3.2794   -7.7184    1.3353 N.ar    1  LIG1       -0.3595
     31 H          -3.3799   -7.1563    2.1652 H       1  LIG1        0.1654
     32 H          -2.4517   -9.4903    2.1822 H       1  LIG1        0.0807
     33 H          -3.7983   -8.4184   -1.7990 H       1  LIG1        0.0639
     34 H          -2.7259  -10.4572   -0.3326 H       1  LIG1        0.0633
@<TRIPOS>BOND
     1     7     1    1
     2     6     5    1
     3    33    27    1
     4     5     1   ar
     5     5     4   ar
     6     1     2   ar
     7    24    19    1
     8    25    20    1
     9    27    28   ar
    10    27    26   ar
    11    20    19   ar
    12    20    21   ar
    13    19    18   ar
    14    15    14    1
    15    34    28    1
    16    14    13   ar
    17    14    10   ar
    18    21    26    1
    19    21    22   ar
    20    18    13    1
    21    18    22   ar
    22     4    10    1
    23     4     3   ar
    24     2     8    1
    25     2     3   ar
    26    28    29   ar
    27    26    30   ar
    28    13    12   ar
    29    10    11   ar
    30    22    23    1
    31     3     9    1
    32    12    11   ar
    33    12    17    1
    34    11    16    1
    35    29    30   ar
    36    29    32    1
    37    30    31    1
