@<TRIPOS>MOLECULE
mol_data/opt/m06hf/geoms/mol2/13ad13ad-4ad13ad.out
 40 43 0 0 0
SMALL
GASTEIGER

@<TRIPOS>ATOM
      1 C           1.3291   -0.2336   -0.4233 C.ar    1  LIG1        0.0035
      2 C           0.8902    1.0624   -0.4157 C.ar    1  LIG1       -0.0263
      3 C          -0.5187    1.0066   -0.2073 C.ar    1  LIG1        0.0784
      4 C          -0.8859   -0.3263   -0.0977 C.ar    1  LIG1        0.0805
      5 N           0.2488   -1.0547   -0.2338 N.ar    1  LIG1       -0.3585
      6 H           0.2788   -2.0629   -0.2371 H       1  LIG1        0.1654
      7 H           2.3175   -0.6372   -0.5537 H       1  LIG1        0.0807
      8 H           1.4841    1.9507   -0.5398 H       1  LIG1        0.0645
      9 N          -2.2942    2.8740   -0.0813 N.1     1  LIG1       -0.1908
     10 C          -1.4622    2.0811   -0.1289 C.1     1  LIG1        0.1013
     11 C          -2.1952   -0.9278    0.1341 C.ar    1  LIG1        0.0658
     12 C          -2.5496   -2.1810    0.5810 C.ar    1  LIG1       -0.0169
     13 C          -3.9691   -2.2050    0.6330 C.ar    1  LIG1        0.0776
     14 C          -4.4364   -0.9625    0.2253 C.ar    1  LIG1        0.0646
     15 N          -3.3458   -0.2165   -0.0736 N.ar    1  LIG1       -0.3520
     16 H          -3.3777    0.7265   -0.4408 H       1  LIG1        0.1660
     17 H          -1.8943   -2.9825    0.8772 H       1  LIG1        0.0652
     18 N          -5.4460   -4.1731    1.4141 N.1     1  LIG1       -0.1908
     19 C          -4.7856   -3.2970    1.0749 C.1     1  LIG1        0.1013
     20 C          -6.0291    0.9533    0.3269 C.ar    1  LIG1       -0.0519
     21 C          -7.3063    1.4782    0.2205 C.ar    1  LIG1       -0.0508
     22 C          -5.8003   -0.4146    0.1291 C.ar    1  LIG1        0.0008
     23 C          -8.4123    0.6645   -0.0533 C.ar    1  LIG1        0.0157
     24 H          -7.4545    2.5420    0.3428 H       1  LIG1        0.0625
     25 C          -6.8793   -1.2422   -0.1661 C.ar    1  LIG1       -0.0346
     26 C          -8.1643   -0.7053   -0.2450 C.ar    1  LIG1        0.0615
     27 H          -6.7382   -2.3018   -0.3342 H       1  LIG1        0.0637
     28 H          -5.2072    1.6156    0.5746 H       1  LIG1        0.0624
     29 N         -10.1057   -2.3227   -0.8455 N.1     1  LIG1       -0.1908
     30 C          -9.2446   -1.6185   -0.5600 C.1     1  LIG1        0.0998
     31 C          -9.7480    1.2862   -0.1004 C.ar    1  LIG1        0.0490
     32 C         -10.1525    2.4693    0.4818 C.ar    1  LIG1       -0.0190
     33 C         -11.5183    2.6527    0.1423 C.ar    1  LIG1        0.0696
     34 C         -11.9034    1.5762   -0.6327 C.ar    1  LIG1        0.0196
     35 N         -10.8322    0.7675   -0.7679 N.ar    1  LIG1       -0.3594
     36 H         -10.8412   -0.1115   -1.2667 H       1  LIG1        0.1654
     37 H         -12.8554    1.3472   -1.0780 H       1  LIG1        0.0820
     38 H          -9.5644    3.1210    1.1050 H       1  LIG1        0.0652
     39 N         -13.0359    4.6199    0.8480 N.1     1  LIG1       -0.1908
     40 C         -12.3646    3.7438    0.5326 C.1     1  LIG1        0.1007
@<TRIPOS>BOND
     1    36    35    1
     2    37    34    1
     3    29    30    3
     4    35    34   ar
     5    35    31   ar
     6    34    33   ar
     7    30    26    1
     8     7     1    1
     9     8     2    1
    10    16    15    1
    11     1     2   ar
    12     1     5   ar
    13     2     3   ar
    14    27    25    1
    15    26    25   ar
    16    26    23   ar
    17     6     5    1
    18     5     4   ar
    19     3    10    1
    20     3     4   ar
    21    25    22   ar
    22    10     9    3
    23    31    23    1
    24    31    32   ar
    25     4    11    1
    26    15    11   ar
    27    15    14   ar
    28    23    21   ar
    29    22    14    1
    30    22    20   ar
    31    11    12   ar
    32    33    32   ar
    33    33    40    1
    34    21    20   ar
    35    21    24    1
    36    14    13   ar
    37    20    28    1
    38    32    38    1
    39    40    39    3
    40    12    13   ar
    41    12    17    1
    42    13    19    1
    43    19    18    3
