@<TRIPOS>MOLECULE
mol_data/opt/m06hf/geoms/mol2/13ad13ad-13ad-13ad-.out
 38 41 0 0 0
SMALL
GASTEIGER

@<TRIPOS>ATOM
      1 C           0.9895    0.3389    0.1638 C.ar    1  LIG1        0.0035
      2 C           0.2842    1.5092    0.1008 C.ar    1  LIG1       -0.0263
      3 C          -1.0934    1.1442    0.0388 C.ar    1  LIG1        0.0784
      4 C          -1.1704   -0.2454    0.0734 C.ar    1  LIG1        0.0805
      5 N           0.0978   -0.7039    0.1494 N.ar    1  LIG1       -0.3585
      6 H           0.3396   -1.6816    0.2183 H       1  LIG1        0.1654
      7 H           2.0490    0.1646    0.2227 H       1  LIG1        0.0807
      8 H           0.6834    2.5083    0.0932 H       1  LIG1        0.0645
      9 N          -3.2429    2.5701   -0.0960 N.1     1  LIG1       -0.1908
     10 C          -2.2504    1.9874   -0.0548 C.1     1  LIG1        0.1013
     11 C          -2.3668   -1.0782    0.0047 C.ar    1  LIG1        0.0659
     12 C          -2.6555   -2.3191   -0.5199 C.ar    1  LIG1       -0.0169
     13 C          -4.0749   -2.4641   -0.4686 C.ar    1  LIG1        0.0790
     14 C          -4.6004   -1.3037    0.0780 C.ar    1  LIG1        0.0810
     15 N          -3.5489   -0.5093    0.3834 N.ar    1  LIG1       -0.3508
     16 H          -3.6382    0.3639    0.8851 H       1  LIG1        0.1660
     17 H          -1.9659   -3.0229   -0.9539 H       1  LIG1        0.0652
     18 N          -5.4728   -4.4463   -1.3510 N.1     1  LIG1       -0.1908
     19 C          -4.8508   -3.5636   -0.9621 C.1     1  LIG1        0.1013
     20 C          -5.9247   -0.7043    0.2160 C.ar    1  LIG1        0.0659
     21 C          -7.1683   -1.1290    0.6061 C.ar    1  LIG1       -0.0169
     22 C          -8.0079    0.0245    0.5965 C.ar    1  LIG1        0.0790
     23 C          -7.2475    1.1132    0.1953 C.ar    1  LIG1        0.0810
     24 N          -5.9945    0.6512   -0.0312 N.ar    1  LIG1       -0.3508
     25 H          -5.2637    1.1795   -0.4934 H       1  LIG1        0.1660
     26 H          -7.4483   -2.1274    0.8957 H       1  LIG1        0.0652
     27 N         -10.5026    0.1566    1.2442 N.1     1  LIG1       -0.1908
     28 C          -9.3915    0.0901    0.9625 C.1     1  LIG1        0.1013
     29 C          -7.5735    2.5228    0.0191 C.ar    1  LIG1        0.0654
     30 C          -8.7840    3.1470   -0.1665 C.ar    1  LIG1       -0.0175
     31 C          -8.5021    4.5359   -0.2952 C.ar    1  LIG1        0.0696
     32 C          -7.1367    4.7046   -0.1853 C.ar    1  LIG1        0.0197
     33 N          -6.5866    3.4844    0.0043 N.ar    1  LIG1       -0.3583
     34 H          -5.5973    3.3260    0.1570 H       1  LIG1        0.1654
     35 H          -6.5433    5.6014   -0.2263 H       1  LIG1        0.0820
     36 H          -9.7501    2.6730   -0.2119 H       1  LIG1        0.0652
     37 N         -10.1930    6.4505   -0.6806 N.1     1  LIG1       -0.1908
     38 C          -9.4448    5.5972   -0.5090 C.1     1  LIG1        0.1007
@<TRIPOS>BOND
     1    18    19    3
     2    19    13    1
     3    17    12    1
     4    37    38    3
     5    12    13   ar
     6    12    11   ar
     7    38    31    1
     8    25    24    1
     9    13    14   ar
    10    31    32   ar
    11    31    30   ar
    12    35    32    1
    13    36    30    1
    14    32    33   ar
    15    30    29   ar
    16     9    10    3
    17    10     3    1
    18    24    23   ar
    19    24    20   ar
    20    33    29   ar
    21    33    34    1
    22    11     4    1
    23    11    15   ar
    24    29    23    1
    25     3     4   ar
    26     3     2   ar
    27     4     5   ar
    28    14    20    1
    29    14    15   ar
    30     8     2    1
    31     2     1   ar
    32     5     1   ar
    33     5     6    1
    34     1     7    1
    35    23    22   ar
    36    20    21   ar
    37    15    16    1
    38    22    21   ar
    39    22    28    1
    40    21    26    1
    41    28    27    3
