@<TRIPOS>MOLECULE
mol_data/opt/m06hf/geoms/mol2/13ad13ad13ad13ad-.out
 38 41 0 0 0
SMALL
GASTEIGER

@<TRIPOS>ATOM
      1 C           1.2845    0.1262   -0.0264 C.ar    1  LIG1        0.0035
      2 C           0.7690    1.2955   -0.5181 C.ar    1  LIG1       -0.0263
      3 C          -0.6497    1.1592   -0.4891 C.ar    1  LIG1        0.0784
      4 C          -0.9473   -0.0895    0.0235 C.ar    1  LIG1        0.0805
      5 N           0.2403   -0.6997    0.2934 N.ar    1  LIG1       -0.3585
      6 H           0.3269   -1.5875    0.7628 H       1  LIG1        0.1654
      7 H           2.3041   -0.1812    0.1262 H       1  LIG1        0.0807
      8 H           1.3189    2.1516   -0.8671 H       1  LIG1        0.0645
      9 N          -2.4097    2.8914   -1.2446 N.1     1  LIG1       -0.1908
     10 C          -1.6274    2.1183   -0.9159 C.1     1  LIG1        0.1013
     11 C          -2.2419   -0.7242    0.2634 C.ar    1  LIG1        0.0659
     12 C          -3.3954   -0.2086    0.7977 C.ar    1  LIG1       -0.0169
     13 C          -4.3575   -1.2576    0.7765 C.ar    1  LIG1        0.0790
     14 C          -3.7610   -2.3767    0.2256 C.ar    1  LIG1        0.0810
     15 N          -2.4754   -2.0392   -0.0724 N.ar    1  LIG1       -0.3508
     16 H          -1.8697   -2.5869   -0.6667 H       1  LIG1        0.1660
     17 H          -3.5348    0.7912    1.1728 H       1  LIG1        0.0652
     18 N          -6.7959   -1.1982    1.6228 N.1     1  LIG1       -0.1908
     19 C          -5.7092   -1.2177    1.2545 C.1     1  LIG1        0.1013
     20 C          -4.3145   -3.7010   -0.0380 C.ar    1  LIG1        0.0659
     21 C          -5.5589   -4.0658   -0.4854 C.ar    1  LIG1       -0.0169
     22 C          -5.5555   -5.4867   -0.5607 C.ar    1  LIG1        0.0790
     23 C          -4.3092   -5.9434   -0.1570 C.ar    1  LIG1        0.0810
     24 N          -3.5750   -4.8469    0.1536 N.ar    1  LIG1       -0.3508
     25 H          -2.6750   -4.8790    0.6081 H       1  LIG1        0.1660
     26 H          -6.3692   -3.4031   -0.7372 H       1  LIG1        0.0652
     27 N          -7.4223   -7.1221   -1.2664 N.1     1  LIG1       -0.1908
     28 C          -6.6160   -6.3578   -0.9703 C.1     1  LIG1        0.1013
     29 C          -3.7728   -7.2950   -0.0419 C.ar    1  LIG1        0.0654
     30 C          -2.4795   -7.7200    0.1650 C.ar    1  LIG1       -0.0175
     31 C          -2.5199   -9.1403    0.1979 C.ar    1  LIG1        0.0696
     32 C          -3.8312   -9.5272    0.0039 C.ar    1  LIG1        0.0197
     33 N          -4.5708   -8.4062   -0.1364 N.ar    1  LIG1       -0.3583
     34 H          -5.5684   -8.3850   -0.3111 H       1  LIG1        0.1654
     35 H          -4.2648  -10.5107   -0.0433 H       1  LIG1        0.0820
     36 H          -1.5945   -7.1141    0.2628 H       1  LIG1        0.0652
     37 N          -0.5033  -10.7180    0.5395 N.1     1  LIG1       -0.1908
     38 C          -1.4041  -10.0227    0.3876 C.1     1  LIG1        0.1007
@<TRIPOS>BOND
     1    27    28    3
     2     9    10    3
     3    28    22    1
     4    10     3    1
     5     8     2    1
     6    26    21    1
     7    16    15    1
     8    22    21   ar
     9    22    23   ar
    10     2     3   ar
    11     2     1   ar
    12     3     4   ar
    13    21    20   ar
    14    34    33    1
    15    23    29    1
    16    23    24   ar
    17    33    29   ar
    18    33    32   ar
    19    15    14   ar
    20    15    11   ar
    21    35    32    1
    22    29    30   ar
    23    20    24   ar
    24    20    14    1
    25     1     7    1
    26     1     5   ar
    27    32    31   ar
    28     4    11    1
    29     4     5   ar
    30    24    25    1
    31    30    31   ar
    32    30    36    1
    33    31    38    1
    34    14    13   ar
    35    11    12   ar
    36     5     6    1
    37    38    37    3
    38    13    12   ar
    39    13    19    1
    40    12    17    1
    41    19    18    3
