@<TRIPOS>MOLECULE
mol_data/opt/m06hf/geoms/mol2/13ad13ad-13ad.out
 29 31 0 0 0
SMALL
GASTEIGER

@<TRIPOS>ATOM
      1 C           1.2978   -0.2707   -0.0009 C.ar    1  LIG1        0.0035
      2 C           0.8840    1.0330   -0.0002 C.ar    1  LIG1       -0.0263
      3 C          -0.5412    1.0010    0.0001 C.ar    1  LIG1        0.0784
      4 C          -0.9447   -0.3263    0.0002 C.ar    1  LIG1        0.0805
      5 N           0.1871   -1.0731   -0.0005 N.ar    1  LIG1       -0.3585
      6 H           0.2052   -2.0813   -0.0007 H       1  LIG1        0.1654
      7 H           2.2869   -0.6928   -0.0014 H       1  LIG1        0.0807
      8 H           1.5015    1.9138   -0.0001 H       1  LIG1        0.0645
      9 N          -2.2626    2.9219    0.0011 N.1     1  LIG1       -0.1908
     10 C          -1.4558    2.1021    0.0006 C.1     1  LIG1        0.1013
     11 C          -2.2802   -0.9158    0.0006 C.ar    1  LIG1        0.0659
     12 C          -2.6809   -2.2316    0.0005 C.ar    1  LIG1       -0.0169
     13 C          -4.1020   -2.2196    0.0011 C.ar    1  LIG1        0.0790
     14 C          -4.5227   -0.8954    0.0017 C.ar    1  LIG1        0.0810
     15 N          -3.4071   -0.1328    0.0014 N.ar    1  LIG1       -0.3508
     16 H          -3.4031    0.8807    0.0016 H       1  LIG1        0.1660
     17 H          -2.0609   -3.1119    0.0001 H       1  LIG1        0.0652
     18 N          -5.7582   -4.1974    0.0013 N.1     1  LIG1       -0.1908
     19 C          -4.9907   -3.3410    0.0012 C.1     1  LIG1        0.1013
     20 C          -5.8570   -0.3070    0.0024 C.ar    1  LIG1        0.0654
     21 C          -6.2383    1.0164    0.0032 C.ar    1  LIG1       -0.0175
     22 C          -7.6598    1.0245    0.0035 C.ar    1  LIG1        0.0696
     23 C          -8.0896   -0.2876    0.0034 C.ar    1  LIG1        0.0197
     24 N          -6.9934   -1.0761    0.0025 N.ar    1  LIG1       -0.3583
     25 H          -7.0040   -2.0887    0.0021 H       1  LIG1        0.1654
     26 H          -9.0869   -0.6905    0.0037 H       1  LIG1        0.0820
     27 H          -5.6012    1.8864    0.0034 H       1  LIG1        0.0652
     28 N          -9.1927    3.1031    0.0047 N.1     1  LIG1       -0.1908
     29 C          -8.5133    2.1782    0.0042 C.1     1  LIG1        0.1007
@<TRIPOS>BOND
     1     7     1    1
     2     1     5   ar
     3     1     2   ar
     4     6     5    1
     5     5     4   ar
     6     2     8    1
     7     2     3   ar
     8    17    12    1
     9     3     4   ar
    10     3    10    1
    11     4    11    1
    12    12    11   ar
    13    12    13   ar
    14    10     9    3
    15    11    15   ar
    16    13    19    1
    17    13    14   ar
    18    19    18    3
    19    15    16    1
    20    15    14   ar
    21    14    20    1
    22    25    24    1
    23    20    24   ar
    24    20    21   ar
    25    24    23   ar
    26    21    27    1
    27    21    22   ar
    28    23    22   ar
    29    23    26    1
    30    22    29    1
    31    29    28    3
