@<TRIPOS>MOLECULE
mol_data/opt/m06hf/geoms/mol2/13ad13ad-13ad-13ad.out
 38 41 0 0 0
SMALL
GASTEIGER

@<TRIPOS>ATOM
      1 C           1.2284   -0.0735   -0.2618 C.ar    1  LIG1        0.0035
      2 C           0.7062    1.1857   -0.1399 C.ar    1  LIG1       -0.0263
      3 C          -0.7045    1.0236   -0.0168 C.ar    1  LIG1        0.0784
      4 C          -0.9875   -0.3349   -0.0719 C.ar    1  LIG1        0.0805
      5 N           0.1957   -0.9744   -0.2215 N.ar    1  LIG1       -0.3585
      6 H           0.2869   -1.9728   -0.3331 H       1  LIG1        0.1654
      7 H           2.2465   -0.3993   -0.3795 H       1  LIG1        0.0807
      8 H           1.2472    2.1156   -0.1345 H       1  LIG1        0.0645
      9 N          -2.6389    2.7145    0.2174 N.1     1  LIG1       -0.1908
     10 C          -1.7288    2.0154    0.1308 C.1     1  LIG1        0.1013
     11 C          -2.2774   -1.0096    0.0284 C.ar    1  LIG1        0.0659
     12 C          -2.6457   -2.2739    0.4314 C.ar    1  LIG1       -0.0169
     13 C          -4.0689   -2.3086    0.4103 C.ar    1  LIG1        0.0790
     14 C          -4.5187   -1.0628    0.0015 C.ar    1  LIG1        0.0810
     15 N          -3.4218   -0.3085   -0.2404 N.ar    1  LIG1       -0.3508
     16 H          -3.4381    0.6283   -0.6207 H       1  LIG1        0.1660
     17 H          -1.9990   -3.0725    0.7533 H       1  LIG1        0.0652
     18 N          -5.6234   -4.2682    1.0463 N.1     1  LIG1       -0.1908
     19 C          -4.9231   -3.3997    0.7746 C.1     1  LIG1        0.1013
     20 C          -5.8500   -0.4840   -0.1210 C.ar    1  LIG1        0.0659
     21 C          -7.0714   -1.0370   -0.4112 C.ar    1  LIG1       -0.0169
     22 C          -8.0038    0.0385   -0.4072 C.ar    1  LIG1        0.0790
     23 C          -7.3192    1.2111   -0.1145 C.ar    1  LIG1        0.0810
     24 N          -6.0209    0.8711    0.0594 N.ar    1  LIG1       -0.3508
     25 H          -5.3123    1.5056    0.4057 H       1  LIG1        0.1660
     26 H          -7.2756   -2.0745   -0.6142 H       1  LIG1        0.0652
     27 N         -10.5488    0.0454   -0.8273 N.1     1  LIG1       -0.1908
     28 C          -9.4127   -0.0044   -0.6565 C.1     1  LIG1        0.1013
     29 C          -7.7736    2.5910    0.0069 C.ar    1  LIG1        0.0654
     30 C          -7.0418    3.7542    0.0991 C.ar    1  LIG1       -0.0175
     31 C          -7.9845    4.8140    0.1928 C.ar    1  LIG1        0.0696
     32 C          -9.2488    4.2594    0.1481 C.ar    1  LIG1        0.0197
     33 N          -9.1046    2.9218    0.0381 N.ar    1  LIG1       -0.3583
     34 H          -9.8649    2.2569   -0.0324 H       1  LIG1        0.1654
     35 H         -10.2150    4.7317    0.1876 H       1  LIG1        0.0820
     36 H          -5.9684    3.8585    0.0844 H       1  LIG1        0.0652
     37 N          -7.4681    7.3371    0.3887 N.1     1  LIG1       -0.1908
     38 C          -7.6983    6.2159    0.3026 C.1     1  LIG1        0.1007
@<TRIPOS>BOND
     1    27    28    3
     2    28    22    1
     3    16    15    1
     4    26    21    1
     5    21    22   ar
     6    21    20   ar
     7    22    23   ar
     8     7     1    1
     9     6     5    1
    10     1     5   ar
    11     1     2   ar
    12    15    14   ar
    13    15    11   ar
    14     5     4   ar
    15     2     8    1
    16     2     3   ar
    17    20    14    1
    18    20    24   ar
    19    23    29    1
    20    23    24   ar
    21     4     3   ar
    22     4    11    1
    23    34    33    1
    24     3    10    1
    25    14    13   ar
    26    29    33   ar
    27    29    30   ar
    28    11    12   ar
    29    33    32   ar
    30    24    25    1
    31    36    30    1
    32    30    31   ar
    33    10     9    3
    34    32    35    1
    35    32    31   ar
    36    31    38    1
    37    38    37    3
    38    13    12   ar
    39    13    19    1
    40    12    17    1
    41    19    18    3
