@<TRIPOS>MOLECULE
mol_data/opt/m06hf/geoms/mol2/13ad13ad13ad-13ad-.out
 38 41 0 0 0
SMALL
GASTEIGER

@<TRIPOS>ATOM
      1 C           1.2220    0.0187   -0.8491 C.ar    1  LIG1        0.0035
      2 C           0.9362    1.1004   -0.0601 C.ar    1  LIG1       -0.0263
      3 C          -0.4319    0.9763    0.3203 C.ar    1  LIG1        0.0784
      4 C          -0.9309   -0.1766   -0.2552 C.ar    1  LIG1        0.0805
      5 N           0.0895   -0.7432   -0.9572 N.ar    1  LIG1       -0.3585
      6 H          -0.0118   -1.5454   -1.5603 H       1  LIG1        0.1654
      7 H           2.1341   -0.2672   -1.3427 H       1  LIG1        0.0807
      8 H           1.6075    1.8902    0.2285 H       1  LIG1        0.0645
      9 N          -1.8124    2.5645    1.8169 N.1     1  LIG1       -0.1908
     10 C          -1.1927    1.8574    1.1583 C.1     1  LIG1        0.1013
     11 C          -2.2690   -0.7594   -0.1831 C.ar    1  LIG1        0.0659
     12 C          -3.5014   -0.1613   -0.2633 C.ar    1  LIG1       -0.0169
     13 C          -4.4607   -1.2020   -0.1221 C.ar    1  LIG1        0.0790
     14 C          -3.7812   -2.4030    0.0364 C.ar    1  LIG1        0.0810
     15 N          -2.4598   -2.1118   -0.0070 N.ar    1  LIG1       -0.3508
     16 H          -1.7215   -2.7831    0.1470 H       1  LIG1        0.1660
     17 H          -3.6952    0.8881   -0.4068 H       1  LIG1        0.0652
     18 N          -7.0396   -1.1899   -0.1601 N.1     1  LIG1       -0.1908
     19 C          -5.8914   -1.1266   -0.1379 C.1     1  LIG1        0.1013
     20 C          -4.3012   -3.7497    0.2366 C.ar    1  LIG1        0.0659
     21 C          -3.7305   -4.8833    0.7699 C.ar    1  LIG1       -0.0169
     22 C          -4.7340   -5.8902    0.7531 C.ar    1  LIG1        0.0790
     23 C          -5.8851   -5.3367    0.2128 C.ar    1  LIG1        0.0810
     24 N          -5.5952   -4.0513   -0.1006 N.ar    1  LIG1       -0.3508
     25 H          -6.2245   -3.4159   -0.5740 H       1  LIG1        0.1660
     26 H          -2.7373   -4.9915    1.1723 H       1  LIG1        0.0652
     27 N          -4.5119   -8.3170    1.6024 N.1     1  LIG1       -0.1908
     28 C          -4.6139   -7.2352    1.2323 C.1     1  LIG1        0.1013
     29 C          -7.2157   -5.8946    0.0023 C.ar    1  LIG1        0.0654
     30 C          -7.6147   -7.1751   -0.2935 C.ar    1  LIG1       -0.0175
     31 C          -9.0340   -7.1390   -0.3937 C.ar    1  LIG1        0.0696
     32 C          -9.4454   -5.8435   -0.1560 C.ar    1  LIG1        0.0197
     33 N          -8.3386   -5.1025    0.0804 N.ar    1  LIG1       -0.3583
     34 H          -8.3462   -4.1295    0.3550 H       1  LIG1        0.1654
     35 H         -10.4356   -5.4236   -0.1345 H       1  LIG1        0.0820
     36 H          -6.9768   -8.0318   -0.4306 H       1  LIG1        0.0652
     37 N         -10.6047   -9.1143   -0.9450 N.1     1  LIG1       -0.1908
     38 C          -9.9071   -8.2370   -0.6988 C.1     1  LIG1        0.1007
@<TRIPOS>BOND
     1     6     5    1
     2     7     1    1
     3     5     1   ar
     4     5     4   ar
     5    37    38    3
     6     1     2   ar
     7    38    31    1
     8    25    24    1
     9    36    30    1
    10    17    12    1
    11    31    30   ar
    12    31    32   ar
    13    30    29   ar
    14    12    11   ar
    15    12    13   ar
    16     4    11    1
    17     4     3   ar
    18    11    15   ar
    19    18    19    3
    20    32    35    1
    21    32    33   ar
    22    19    13    1
    23    13    14   ar
    24    24    23   ar
    25    24    20   ar
    26     2     8    1
    27     2     3   ar
    28    15    14   ar
    29    15    16    1
    30    29    33   ar
    31    29    23    1
    32    14    20    1
    33    33    34    1
    34    23    22   ar
    35    20    21   ar
    36     3    10    1
    37    22    21   ar
    38    22    28    1
    39    21    26    1
    40    10     9    3
    41    28    27    3
