@<TRIPOS>MOLECULE
mol_data/opt/m06hf/geoms/mol2/13ad13ad13ad13ad.out
 38 41 0 0 0
SMALL
GASTEIGER

@<TRIPOS>ATOM
      1 C           0.7377    0.6699   -1.6508 C.ar    1  LIG1        0.0035
      2 C           0.9132    1.1651   -0.3860 C.ar    1  LIG1       -0.0263
      3 C          -0.2118    0.7374    0.3776 C.ar    1  LIG1        0.0784
      4 C          -1.0342    0.0000   -0.4522 C.ar    1  LIG1        0.0805
      5 N          -0.4365   -0.0323   -1.6757 N.ar    1  LIG1       -0.3585
      6 H          -0.8629   -0.4215   -2.5029 H       1  LIG1        0.1654
      7 H           1.3476    0.7659   -2.5315 H       1  LIG1        0.0807
      8 H           1.7383    1.7559   -0.0285 H       1  LIG1        0.0645
      9 N          -0.6852    1.1861    2.8764 N.1     1  LIG1       -0.1908
     10 C          -0.4733    0.9850    1.7664 C.1     1  LIG1        0.1013
     11 C          -2.3104   -0.6603   -0.1696 C.ar    1  LIG1        0.0659
     12 C          -3.4532   -0.1706    0.4143 C.ar    1  LIG1       -0.0169
     13 C          -4.3821   -1.2469    0.4537 C.ar    1  LIG1        0.0790
     14 C          -3.7775   -2.3569   -0.1090 C.ar    1  LIG1        0.0810
     15 N          -2.5239   -1.9811   -0.4787 N.ar    1  LIG1       -0.3508
     16 H          -1.8458   -2.5888   -0.9143 H       1  LIG1        0.1660
     17 H          -3.6057    0.8335    0.7715 H       1  LIG1        0.0652
     18 N          -6.7881   -1.2287    1.3918 N.1     1  LIG1       -0.1908
     19 C          -5.7174   -1.2348    0.9792 C.1     1  LIG1        0.1013
     20 C          -4.2877   -3.7172   -0.2955 C.ar    1  LIG1        0.0659
     21 C          -5.4174   -4.1640   -0.9351 C.ar    1  LIG1       -0.0169
     22 C          -5.4243   -5.5804   -0.8056 C.ar    1  LIG1        0.0790
     23 C          -4.2987   -5.9521   -0.0908 C.ar    1  LIG1        0.0810
     24 N          -3.6242   -4.8102    0.2073 N.ar    1  LIG1       -0.3508
     25 H          -2.7598   -4.7741    0.7275 H       1  LIG1        0.1660
     26 H          -6.1523   -3.5535   -1.4314 H       1  LIG1        0.0652
     27 N          -7.1805   -7.2317   -1.7310 N.1     1  LIG1       -0.1908
     28 C          -6.4043   -6.4976   -1.3124 C.1     1  LIG1        0.1013
     29 C          -3.8326   -7.2749    0.3270 C.ar    1  LIG1        0.0654
     30 C          -3.6619   -8.4256   -0.3999 C.ar    1  LIG1       -0.0175
     31 C          -3.1756   -9.4088    0.5092 C.ar    1  LIG1        0.0696
     32 C          -3.0717   -8.8223    1.7531 C.ar    1  LIG1        0.0197
     33 N          -3.4669   -7.5335    1.6282 N.ar    1  LIG1       -0.3583
     34 H          -3.5968   -6.8920    2.3963 H       1  LIG1        0.1654
     35 H          -2.7568   -9.2412    2.6927 H       1  LIG1        0.0820
     36 H          -3.8536   -8.5514   -1.4519 H       1  LIG1        0.0652
     37 N          -2.5325  -11.8506   -0.0370 N.1     1  LIG1       -0.1908
     38 C          -2.8237  -10.7677    0.2074 C.1     1  LIG1        0.1007
@<TRIPOS>BOND
     1     7     1    1
     2     6     5    1
     3    27    28    3
     4     5     1   ar
     5     5     4   ar
     6     1     2   ar
     7    36    30    1
     8    26    21    1
     9    28    22    1
    10    21    22   ar
    11    21    20   ar
    12    16    15    1
    13    22    23   ar
    14    15    11   ar
    15    15    14   ar
    16     4    11    1
    17     4     3   ar
    18    30    29   ar
    19    30    31   ar
    20     2     8    1
    21     2     3   ar
    22    20    14    1
    23    20    24   ar
    24    11    12   ar
    25    14    13   ar
    26    23    24   ar
    27    23    29    1
    28    37    38    3
    29    24    25    1
    30    38    31    1
    31    29    33   ar
    32     3    10    1
    33    12    13   ar
    34    12    17    1
    35    13    19    1
    36    31    32   ar
    37    19    18    3
    38    33    32   ar
    39    33    34    1
    40    32    35    1
    41    10     9    3
