@<TRIPOS>MOLECULE
mol_data/opt/m06hf/geoms/mol2/13ad13ad-.out
 20 21 0 0 0
SMALL
GASTEIGER

@<TRIPOS>ATOM
      1 C           1.2309   -0.2979   -0.0003 C.ar    1  LIG1        0.0035
      2 C           0.8507    1.0156   -0.0001 C.ar    1  LIG1       -0.0263
      3 C          -0.5756    1.0200    0.0000 C.ar    1  LIG1        0.0784
      4 C          -1.0134   -0.2962    0.0003 C.ar    1  LIG1        0.0805
      5 N           0.0995   -1.0712    0.0001 N.ar    1  LIG1       -0.3585
      6 H           0.0890   -2.0791    0.0002 H       1  LIG1        0.1654
      7 H           2.2091   -0.7444   -0.0005 H       1  LIG1        0.0807
      8 H           1.4915    1.8801   -0.0003 H       1  LIG1        0.0645
      9 N          -2.2268    3.0020    0.0002 N.1     1  LIG1       -0.1908
     10 C          -1.4567    2.1477    0.0001 C.1     1  LIG1        0.1013
     11 C          -2.3599   -0.8618    0.0007 C.ar    1  LIG1        0.0654
     12 C          -2.7753   -2.1742    0.0008 C.ar    1  LIG1       -0.0175
     13 C          -4.1971   -2.1508    0.0011 C.ar    1  LIG1        0.0696
     14 C          -4.5949   -0.8290    0.0014 C.ar    1  LIG1        0.0197
     15 N          -3.4792   -0.0681    0.0010 N.ar    1  LIG1       -0.3583
     16 H          -3.4655    0.9447    0.0010 H       1  LIG1        0.1654
     17 H          -5.5819   -0.4015    0.0017 H       1  LIG1        0.0820
     18 H          -2.1643   -3.0612    0.0007 H       1  LIG1        0.0652
     19 N          -5.7663   -4.2028    0.0012 N.1     1  LIG1       -0.1908
     20 C          -5.0730   -3.2875    0.0012 C.1     1  LIG1        0.1007
@<TRIPOS>BOND
     1     7     1    1
     2     1     2   ar
     3     1     5   ar
     4     8     2    1
     5     2     3   ar
     6     3    10    1
     7     3     4   ar
     8    10     9    3
     9     5     6    1
    10     5     4   ar
    11     4    11    1
    12    18    12    1
    13    11    12   ar
    14    11    15   ar
    15    12    13   ar
    16    16    15    1
    17    15    14   ar
    18    13    20    1
    19    13    14   ar
    20    20    19    3
    21    14    17    1
