@<TRIPOS>MOLECULE
mol_data/opt/m06hf/geoms/mol2/13ad12hh12ih12ea.out
 43 46 0 0 0
SMALL
GASTEIGER

@<TRIPOS>ATOM
      1 C           0.7891    0.4965    1.4439 C.ar    1  LIG1        0.0035
      2 C           0.5521    1.5925    0.6593 C.ar    1  LIG1       -0.0263
      3 C          -0.6575    1.3293   -0.0514 C.ar    1  LIG1        0.0800
      4 C          -1.1187    0.0820    0.3425 C.ar    1  LIG1        0.1016
      5 N          -0.2256   -0.3998    1.2419 N.ar    1  LIG1       -0.3572
      6 H          -0.3244   -1.3057    1.6763 H       1  LIG1        0.1655
      7 H           1.5947    0.2826    2.1238 H       1  LIG1        0.0807
      8 H           1.1602    2.4762    0.5749 H       1  LIG1        0.0645
      9 N          -1.7617    2.7526   -1.8981 N.1     1  LIG1       -0.1908
     10 C          -1.2629    2.1343   -1.0660 C.1     1  LIG1        0.1014
     11 C          -2.2905   -0.6930   -0.0172 C.ar    1  LIG1        0.1755
     12 C          -3.5364   -0.3711   -0.4760 C.ar    1  LIG1        0.0942
     13 C          -4.2375   -1.6323   -0.5807 C.ar    1  LIG1        0.0958
     14 C          -3.3826   -2.5894   -0.1319 C.ar    1  LIG1        0.1933
     15 O          -2.1906   -2.0347    0.1996 O.2     1  LIG1       -0.4464
     16 N          -4.1107    0.8620   -0.7231 N.pl3   1  LIG1       -0.3535
     17 H          -3.5899    1.5352   -1.2685 H       1  LIG1        0.1425
     18 H          -5.1010    0.8329   -0.9115 H       1  LIG1        0.1425
     19 N          -5.5593   -1.7494   -1.0384 N.pl3   1  LIG1       -0.3535
     20 H          -5.6733   -1.2897   -1.9375 H       1  LIG1        0.1425
     21 H          -5.8382   -2.7217   -1.1234 H       1  LIG1        0.1425
     22 C          -3.5775   -4.0206    0.0341 C.ar    1  LIG1        0.1773
     23 C          -4.6431   -4.7124    0.5281 C.ar    1  LIG1        0.0199
     24 C          -4.2802   -6.1050    0.4147 C.ar    1  LIG1        0.0778
     25 C          -3.0254   -6.1227   -0.1304 C.ar    1  LIG1        0.1927
     26 O          -2.5983   -4.8504   -0.3652 O.2     1  LIG1       -0.4463
     27 C          -5.8924   -4.1816    1.1810 C.3     1  LIG1       -0.0342
     28 H          -6.0134   -4.6484    2.1604 H       1  LIG1        0.0279
     29 H          -6.7813   -4.4028    0.5837 H       1  LIG1        0.0279
     30 H          -5.8216   -3.1012    1.3101 H       1  LIG1        0.0279
     31 N          -5.0441   -7.1514    0.9088 N.pl3   1  LIG1       -0.3547
     32 H          -6.0364   -6.9576    0.9168 H       1  LIG1        0.1424
     33 H          -4.8400   -8.0573    0.5050 H       1  LIG1        0.1424
     34 C          -2.1047   -7.1985   -0.4379 C.ar    1  LIG1        0.1868
     35 C          -2.2884   -8.4994   -0.8274 C.ar    1  LIG1        0.0735
     36 C          -0.9682   -9.0751   -0.9268 C.ar    1  LIG1       -0.0077
     37 C          -0.1123   -8.0791   -0.6117 C.ar    1  LIG1        0.0939
     38 O          -0.7898   -6.9486   -0.3106 O.2     1  LIG1       -0.4585
     39 H           0.9602   -8.0182   -0.5618 H       1  LIG1        0.1030
     40 C          -3.5337   -9.1319   -1.1346 C.1     1  LIG1       -0.0658
     41 C          -4.5780   -9.6709   -1.3950 C.1     1  LIG1       -0.1138
     42 H          -5.4928  -10.1519   -1.6545 H       1  LIG1        0.1232
     43 H          -0.7302  -10.0847   -1.2113 H       1  LIG1        0.0661
@<TRIPOS>BOND
     1    20    19    1
     2     9    10    3
     3    42    41    1
     4    41    40    3
     5    17    16    1
     6    43    36    1
     7    40    35    1
     8    21    19    1
     9    10     3    1
    10    19    13    1
    11    36    35   ar
    12    36    37   ar
    13    18    16    1
    14    35    34   ar
    15    16    12    1
    16    37    39    1
    17    37    38   ar
    18    13    12   ar
    19    13    14   ar
    20    12    11   ar
    21    34    38   ar
    22    34    25    1
    23    26    25   ar
    24    26    22   ar
    25    14    22    1
    26    14    15   ar
    27    25    24   ar
    28     3     4   ar
    29     3     2   ar
    30    11    15   ar
    31    11     4    1
    32    22    23   ar
    33     4     5   ar
    34    24    23   ar
    35    24    31    1
    36    33    31    1
    37    23    27    1
    38     8     2    1
    39    29    27    1
    40     2     1   ar
    41    31    32    1
    42    27    30    1
    43    27    28    1
    44     5     1   ar
    45     5     6    1
    46     1     7    1
