@<TRIPOS>MOLECULE
mol_data/opt/m06hf/geoms/mol2/13ad13ad-13ad13ad-.out
 38 41 0 0 0
SMALL
GASTEIGER

@<TRIPOS>ATOM
      1 C           1.3715   -0.2778   -0.0015 C.ar    1  LIG1        0.0035
      2 C           0.9662    1.0286   -0.0011 C.ar    1  LIG1       -0.0263
      3 C          -0.4585    1.0055   -0.0004 C.ar    1  LIG1        0.0784
      4 C          -0.8704   -0.3194   -0.0001 C.ar    1  LIG1        0.0805
      5 N           0.2563   -1.0735   -0.0009 N.ar    1  LIG1       -0.3585
      6 H           0.2660   -2.0816   -0.0009 H       1  LIG1        0.1654
      7 H           2.3593   -0.7037   -0.0022 H       1  LIG1        0.0807
      8 H           1.5908    1.9045   -0.0014 H       1  LIG1        0.0645
      9 N          -2.1696    2.9360    0.0008 N.1     1  LIG1       -0.1908
     10 C          -1.3668    2.1119    0.0002 C.1     1  LIG1        0.1013
     11 C          -2.2103   -0.8988    0.0007 C.ar    1  LIG1        0.0659
     12 C          -2.6225   -2.2119    0.0009 C.ar    1  LIG1       -0.0169
     13 C          -4.0428   -2.1876    0.0017 C.ar    1  LIG1        0.0790
     14 C          -4.4513   -0.8591    0.0020 C.ar    1  LIG1        0.0810
     15 N          -3.3300   -0.1060    0.0014 N.ar    1  LIG1       -0.3508
     16 H          -3.3147    0.9070    0.0014 H       1  LIG1        0.1660
     17 H          -2.0100   -3.0971    0.0005 H       1  LIG1        0.0652
     18 N          -5.7527   -4.1177    0.0027 N.1     1  LIG1       -0.1908
     19 C          -4.9508   -3.2931    0.0022 C.1     1  LIG1        0.1013
     20 C          -5.7824   -0.2665    0.0029 C.ar    1  LIG1        0.0659
     21 C          -6.1662    1.0553    0.0032 C.ar    1  LIG1       -0.0169
     22 C          -7.5861    1.0569    0.0040 C.ar    1  LIG1        0.0790
     23 C          -8.0224   -0.2632    0.0042 C.ar    1  LIG1        0.0810
     24 N          -6.9170   -1.0391    0.0035 N.ar    1  LIG1       -0.3508
     25 H          -6.9270   -2.0517    0.0034 H       1  LIG1        0.1660
     26 H          -5.5312    1.9267    0.0029 H       1  LIG1        0.0652
     27 N          -9.2427    3.0334    0.0051 N.1     1  LIG1       -0.1908
     28 C          -8.4683    2.1831    0.0046 C.1     1  LIG1        0.1013
     29 C          -9.3641   -0.8346    0.0050 C.ar    1  LIG1        0.0654
     30 C          -9.7619   -2.1535    0.0055 C.ar    1  LIG1       -0.0175
     31 C         -11.1829   -2.1443    0.0061 C.ar    1  LIG1        0.0696
     32 C         -11.5961   -0.8262    0.0061 C.ar    1  LIG1        0.0197
     33 N         -10.4911   -0.0516    0.0054 N.ar    1  LIG1       -0.3583
     34 H         -10.4887    0.9611    0.0052 H       1  LIG1        0.1654
     35 H         -12.5893   -0.4128    0.0065 H       1  LIG1        0.0820
     36 H          -9.1359   -3.0310    0.0055 H       1  LIG1        0.0652
     37 N         -12.7520   -4.1957    0.0073 N.1     1  LIG1       -0.1908
     38 C         -12.0542   -3.2844    0.0068 C.1     1  LIG1        0.1007
@<TRIPOS>BOND
     1     7     1    1
     2     1     2   ar
     3     1     5   ar
     4     8     2    1
     5     2     3   ar
     6     6     5    1
     7     5     4   ar
     8     3     4   ar
     9     3    10    1
    10     4    11    1
    11    10     9    3
    12    17    12    1
    13    11    12   ar
    14    11    15   ar
    15    12    13   ar
    16    15    16    1
    17    15    14   ar
    18    13    14   ar
    19    13    19    1
    20    14    20    1
    21    19    18    3
    22    20    21   ar
    23    20    24   ar
    24    26    21    1
    25    21    22   ar
    26    25    24    1
    27    24    23   ar
    28    22    23   ar
    29    22    28    1
    30    23    29    1
    31    28    27    3
    32    29    33   ar
    33    29    30   ar
    34    34    33    1
    35    33    32   ar
    36    36    30    1
    37    30    31   ar
    38    31    32   ar
    39    31    38    1
    40    32    35    1
    41    38    37    3
