@<TRIPOS>MOLECULE
mol_data/opt/m06hf/geoms/mol2/13ad13ad.out
 20 21 0 0 0
SMALL
GASTEIGER

@<TRIPOS>ATOM
      1 C           1.2003   -0.2799   -0.3927 C.ar    1  LIG1        0.0035
      2 C           0.8589    0.9734    0.0396 C.ar    1  LIG1       -0.0263
      3 C          -0.5506    0.9595    0.2571 C.ar    1  LIG1        0.0784
      4 C          -1.0174   -0.3028   -0.0557 C.ar    1  LIG1        0.0805
      5 N           0.0614   -1.0380   -0.4436 N.ar    1  LIG1       -0.3585
      6 H           0.0001   -1.9716   -0.8195 H       1  LIG1        0.1654
      7 H           2.1555   -0.6887   -0.6719 H       1  LIG1        0.0807
      8 H           1.5197    1.8080    0.1959 H       1  LIG1        0.0645
      9 N          -2.0152    2.9083    1.1110 N.1     1  LIG1       -0.1908
     10 C          -1.3677    2.0381    0.7346 C.1     1  LIG1        0.1013
     11 C          -2.3725   -0.8536   -0.0157 C.ar    1  LIG1        0.0654
     12 C          -3.5538   -0.3500   -0.4983 C.ar    1  LIG1       -0.0175
     13 C          -4.5609   -1.3079   -0.1818 C.ar    1  LIG1        0.0696
     14 C          -3.9573   -2.3558    0.4804 C.ar    1  LIG1        0.0197
     15 N          -2.6368   -2.0702    0.5704 N.ar    1  LIG1       -0.3583
     16 H          -1.9615   -2.6103    1.0893 H       1  LIG1        0.1654
     17 H          -4.3838   -3.2568    0.8854 H       1  LIG1        0.0820
     18 H          -3.6841    0.5828   -1.0198 H       1  LIG1        0.0652
     19 N          -7.0767   -1.1850   -0.7553 N.1     1  LIG1       -0.1908
     20 C          -5.9593   -1.2356   -0.4987 C.1     1  LIG1        0.1007
@<TRIPOS>BOND
     1    18    12    1
     2     6     5    1
     3    19    20    3
     4     7     1    1
     5    20    13    1
     6    12    13   ar
     7    12    11   ar
     8     5     1   ar
     9     5     4   ar
    10     1     2   ar
    11    13    14   ar
    12     4    11    1
    13     4     3   ar
    14    11    15   ar
    15     2     8    1
    16     2     3   ar
    17     3    10    1
    18    14    15   ar
    19    14    17    1
    20    15    16    1
    21    10     9    3
