@<TRIPOS>MOLECULE
mol_data/opt/m06hf/geoms/mol2/13ad13ad13ad.out
 29 31 0 0 0
SMALL
GASTEIGER

@<TRIPOS>ATOM
      1 C           1.2862   -0.0987    0.0749 C.ar    1  LIG1        0.0035
      2 C           0.8324    1.0538   -0.5073 C.ar    1  LIG1       -0.0263
      3 C          -0.5905    0.9644   -0.5347 C.ar    1  LIG1        0.0784
      4 C          -0.9522   -0.2406    0.0371 C.ar    1  LIG1        0.0805
      5 N           0.2011   -0.8706    0.3953 N.ar    1  LIG1       -0.3585
      6 H           0.2347   -1.7293    0.9228 H       1  LIG1        0.1654
      7 H           2.2876   -0.4277    0.2893 H       1  LIG1        0.0807
      8 H           1.4254    1.8696   -0.8820 H       1  LIG1        0.0645
      9 N          -2.2525    2.7057   -1.4704 N.1     1  LIG1       -0.1908
     10 C          -1.5143    1.9273   -1.0616 C.1     1  LIG1        0.1013
     11 C          -2.2757   -0.8201    0.2560 C.ar    1  LIG1        0.0659
     12 C          -3.4357   -0.2384    0.7005 C.ar    1  LIG1       -0.0169
     13 C          -4.4275   -1.2604    0.7051 C.ar    1  LIG1        0.0790
     14 C          -3.8415   -2.4302    0.2594 C.ar    1  LIG1        0.0810
     15 N          -2.5340   -2.1480    0.0000 N.ar    1  LIG1       -0.3508
     16 H          -1.9221   -2.7549   -0.5263 H       1  LIG1        0.1660
     17 H          -3.5611    0.7878    1.0018 H       1  LIG1        0.0652
     18 N          -6.8856   -1.0492    1.4692 N.1     1  LIG1       -0.1908
     19 C          -5.7932   -1.1445    1.1302 C.1     1  LIG1        0.1013
     20 C          -4.4142   -3.7595    0.0548 C.ar    1  LIG1        0.0654
     21 C          -5.5969   -4.1385   -0.5288 C.ar    1  LIG1       -0.0175
     22 C          -5.6411   -5.5611   -0.4644 C.ar    1  LIG1        0.0696
     23 C          -4.4881   -5.9950    0.1545 C.ar    1  LIG1        0.0197
     24 N          -3.7546   -4.8980    0.4587 N.ar    1  LIG1       -0.3583
     25 H          -2.9088   -4.9023    1.0076 H       1  LIG1        0.1654
     26 H          -4.1625   -6.9921    0.3939 H       1  LIG1        0.0820
     27 H          -6.3361   -3.4845   -0.9589 H       1  LIG1        0.0652
     28 N          -7.4996   -7.1082   -1.3734 N.1     1  LIG1       -0.1908
     29 C          -6.6766   -6.4198   -0.9664 C.1     1  LIG1        0.1007
@<TRIPOS>BOND
     1     9    10    3
     2    28    29    3
     3    10     3    1
     4    29    22    1
     5    27    21    1
     6     8     2    1
     7     3     2   ar
     8     3     4   ar
     9    21    22   ar
    10    21    20   ar
    11    16    15    1
    12     2     1   ar
    13    22    23   ar
    14    15    11   ar
    15    15    14   ar
    16     4    11    1
    17     4     5   ar
    18    20    14    1
    19    20    24   ar
    20     1     7    1
    21     1     5   ar
    22    23    26    1
    23    23    24   ar
    24    11    12   ar
    25    14    13   ar
    26     5     6    1
    27    24    25    1
    28    12    13   ar
    29    12    17    1
    30    13    19    1
    31    19    18    3
