@<TRIPOS>MOLECULE
mol_data/opt/m06hf/geoms/mol2/13ad13ad13ad-13ad.out
 38 41 0 0 0
SMALL
GASTEIGER

@<TRIPOS>ATOM
      1 C           1.2875    0.0164   -0.4528 C.ar    1  LIG1        0.0035
      2 C           0.9234    1.0829    0.3251 C.ar    1  LIG1       -0.0263
      3 C          -0.4802    0.9662    0.5451 C.ar    1  LIG1        0.0784
      4 C          -0.9206   -0.1671   -0.1112 C.ar    1  LIG1        0.0805
      5 N           0.1680   -0.7295   -0.7059 N.ar    1  LIG1       -0.3585
      6 H           0.1243   -1.5149   -1.3376 H       1  LIG1        0.1654
      7 H           2.2470   -0.2681   -0.8472 H       1  LIG1        0.0807
      8 H           1.5650    1.8574    0.7073 H       1  LIG1        0.0645
      9 N          -1.9947    2.5385    1.9256 N.1     1  LIG1       -0.1908
     10 C          -1.3201    1.8369    1.3167 C.1     1  LIG1        0.1013
     11 C          -2.2601   -0.7442   -0.2083 C.ar    1  LIG1        0.0659
     12 C          -3.4700   -0.1487   -0.4562 C.ar    1  LIG1       -0.0169
     13 C          -4.4398   -1.1899   -0.4364 C.ar    1  LIG1        0.0790
     14 C          -3.7892   -2.3882   -0.1764 C.ar    1  LIG1        0.0810
     15 N          -2.4724   -2.0946   -0.0434 N.ar    1  LIG1       -0.3508
     16 H          -1.7715   -2.7433    0.2822 H       1  LIG1        0.1660
     17 H          -3.6442    0.8978   -0.6389 H       1  LIG1        0.0652
     18 N          -6.9939   -1.1186   -0.7931 N.1     1  LIG1       -0.1908
     19 C          -5.8535   -1.0974   -0.6484 C.1     1  LIG1        0.1013
     20 C          -4.3080   -3.7445   -0.0464 C.ar    1  LIG1        0.0659
     21 C          -3.6477   -4.9455    0.0783 C.ar    1  LIG1       -0.0169
     22 C          -4.6501   -5.9481    0.1655 C.ar    1  LIG1        0.0790
     23 C          -5.8901   -5.3256    0.0871 C.ar    1  LIG1        0.0810
     24 N          -5.6560   -4.0009   -0.0339 N.ar    1  LIG1       -0.3508
     25 H          -6.3795   -3.2932   -0.0927 H       1  LIG1        0.1660
     26 H          -2.5846   -5.1160    0.0907 H       1  LIG1        0.0652
     27 N          -4.4086   -8.5014    0.4389 N.1     1  LIG1       -0.1908
     28 C          -4.4757   -7.3611    0.3080 C.1     1  LIG1        0.1013
     29 C          -7.2415   -5.8721    0.1022 C.ar    1  LIG1        0.0654
     30 C          -8.4409   -5.2713   -0.2092 C.ar    1  LIG1       -0.0175
     31 C          -9.4438   -6.2623   -0.0281 C.ar    1  LIG1        0.0696
     32 C          -8.8199   -7.4250    0.3799 C.ar    1  LIG1        0.0197
     33 N          -7.4957   -7.1736    0.4539 N.ar    1  LIG1       -0.3583
     34 H          -6.7880   -7.8477    0.7172 H       1  LIG1        0.1654
     35 H          -9.2360   -8.3892    0.6130 H       1  LIG1        0.0820
     36 H          -8.6018   -4.2584   -0.5427 H       1  LIG1        0.0652
     37 N         -11.9862   -5.9986   -0.4003 N.1     1  LIG1       -0.1908
     38 C         -10.8563   -6.1129   -0.2345 C.1     1  LIG1        0.1007
@<TRIPOS>BOND
     1     6     5    1
     2     7     1    1
     3    18    19    3
     4     5     1   ar
     5     5     4   ar
     6    19    13    1
     7    17    12    1
     8    36    30    1
     9    12    13   ar
    10    12    11   ar
    11     1     2   ar
    12    13    14   ar
    13    37    38    3
    14    38    31    1
    15    30    31   ar
    16    30    29   ar
    17    11     4    1
    18    11    15   ar
    19    14    20    1
    20    14    15   ar
    21     4     3   ar
    22    25    24    1
    23    20    24   ar
    24    20    21   ar
    25    15    16    1
    26    24    23   ar
    27    31    32   ar
    28    21    26    1
    29    21    22   ar
    30    23    29    1
    31    23    22   ar
    32    29    33   ar
    33    22    28    1
    34    28    27    3
    35     2     3   ar
    36     2     8    1
    37    32    33   ar
    38    32    35    1
    39    33    34    1
    40     3    10    1
    41    10     9    3
