@<TRIPOS>MOLECULE
mol_data/opt/m06hf/geoms/mol2/13ae12il6ed13lh-.out
 48 51 0 0 0
SMALL
GASTEIGER

@<TRIPOS>ATOM
      1 C          -4.2611    6.2984    6.7325 C.ar    1  LIG1        0.1380
      2 C          -3.7945    7.1015    7.7193 C.ar    1  LIG1        0.2002
      3 C          -3.0710    8.1764    7.0766 C.ar    1  LIG1        0.2069
      4 C          -3.1613    7.9309    5.7382 C.ar    1  LIG1        0.1972
      5 O          -3.8848    6.7931    5.5253 O.2     1  LIG1       -0.4539
      6 H          -4.8409    5.3938    6.7269 H       1  LIG1        0.1069
      7 O          -3.9071    7.0199    9.0562 O.3     1  LIG1       -0.4888
      8 C          -4.6112    5.8813    9.5182 C.3     1  LIG1        0.0791
      9 H          -4.6143    5.9406   10.6025 H       1  LIG1        0.0660
     10 H          -5.6375    5.8935    9.1403 H       1  LIG1        0.0660
     11 H          -4.1056    4.9680    9.1926 H       1  LIG1        0.0660
     12 O          -2.4865    9.1363    7.8082 O.3     1  LIG1       -0.5008
     13 H          -2.0522    9.8175    7.2787 H       1  LIG1        0.2924
     14 C          -2.6691    8.5589    4.5246 C.ar    1  LIG1        0.1058
     15 C          -1.8931    9.6866    4.2808 C.ar    1  LIG1        0.1014
     16 C          -1.6831    9.7889    2.8703 C.ar    1  LIG1        0.0701
     17 C          -2.3472    8.7244    2.3006 C.ar    1  LIG1        0.0893
     18 N          -2.9235    7.9965    3.3258 N.ar    1  LIG1       -0.3479
     19 H          -3.3733    7.0975    3.2333 H       1  LIG1        0.1661
     20 N          -0.9953   11.3165    6.0624 N.1     1  LIG1       -0.1907
     21 C          -1.3946   10.5890    5.2637 C.1     1  LIG1        0.1033
     22 N          -0.9761   10.7888    2.2047 N.pl3   1  LIG1       -0.3553
     23 H          -0.4926   11.4168    2.8344 H       1  LIG1        0.1424
     24 H          -0.3569   10.3984    1.5011 H       1  LIG1        0.1424
     25 C          -2.5225    8.3531    0.9051 C.ar    1  LIG1        0.1094
     26 C          -1.7253    8.5778   -0.2003 C.ar    1  LIG1        0.1680
     27 C          -2.3309    7.9482   -1.3230 C.ar    1  LIG1        0.0962
     28 C          -3.4993    7.3771   -0.8698 C.ar    1  LIG1        0.1072
     29 N          -3.5932    7.6148    0.4817 N.ar    1  LIG1       -0.3461
     30 H          -4.4300    7.4427    1.0156 H       1  LIG1        0.1662
     31 O          -0.5329    9.2494   -0.2449 O.3     1  LIG1       -0.4911
     32 C          -0.6320   10.4717   -0.9973 C.3     1  LIG1        0.0790
     33 H           0.3773   10.8745   -1.0531 H       1  LIG1        0.0660
     34 H          -1.0149   10.2628   -1.9972 H       1  LIG1        0.0660
     35 H          -1.2943   11.1623   -0.4741 H       1  LIG1        0.0660
     36 N          -1.7920    7.9307   -2.6205 N.pl3   1  LIG1       -0.3534
     37 H          -0.7775    7.8995   -2.5818 H       1  LIG1        0.1425
     38 H          -2.1373    7.1437   -3.1607 H       1  LIG1        0.1425
     39 C          -4.5095    6.6480   -1.6095 C.ar    1  LIG1        0.1540
     40 C          -4.8710    6.6519   -2.9199 C.ar    1  LIG1        0.0011
     41 C          -5.9318    5.6780   -3.0355 C.ar    1  LIG1        0.0630
     42 C          -6.1289    5.1876   -1.7838 C.ar    1  LIG1        0.1080
     43 O          -5.2722    5.7631   -0.9176 O.2     1  LIG1       -0.4602
     44 H          -6.8139    4.4591   -1.3888 H       1  LIG1        0.1042
     45 H          -4.4859    7.2877   -3.6988 H       1  LIG1        0.0668
     46 C          -6.6529    5.3077   -4.2182 C.1     1  LIG1       -0.0665
     47 C          -7.2513    5.0049   -5.2144 C.1     1  LIG1       -0.1138
     48 H          -7.7847    4.7377   -6.0970 H       1  LIG1        0.1232
@<TRIPOS>BOND
     1    48    47    1
     2    47    46    3
     3    46    41    1
     4    45    40    1
     5    38    36    1
     6    41    40   ar
     7    41    42   ar
     8    40    39   ar
     9    36    37    1
    10    36    27    1
    11    34    32    1
    12    42    44    1
    13    42    43   ar
    14    39    43   ar
    15    39    28    1
    16    27    28   ar
    17    27    26   ar
    18    33    32    1
    19    32    35    1
    20    32    31    1
    21    28    29   ar
    22    31    26    1
    23    26    25   ar
    24    29    25   ar
    25    29    30    1
    26    25    17    1
    27    24    22    1
    28    22    23    1
    29    22    16    1
    30    17    16   ar
    31    17    18   ar
    32    16    15   ar
    33    19    18    1
    34    18    14   ar
    35    15    14   ar
    36    15    21    1
    37    14     4    1
    38    21    20    3
    39     5     4   ar
    40     5     1   ar
    41     4     3   ar
    42     6     1    1
    43     1     2   ar
    44     3     2   ar
    45     3    12    1
    46    13    12    1
    47     2     7    1
    48     7     8    1
    49    10     8    1
    50    11     8    1
    51     8     9    1
