@<TRIPOS>MOLECULE
mol_data/opt/m06hf/geoms/mol2/13ae13ae13ae-13ae-.out
 42 45 0 0 0
SMALL
GASTEIGER

@<TRIPOS>ATOM
      1 C           1.2770    0.0097   -0.5608 C.ar    1  LIG1        0.0034
      2 C           0.8857    1.1434    0.1001 C.ar    1  LIG1       -0.0283
      3 C          -0.5272    1.0527    0.2930 C.ar    1  LIG1        0.0513
      4 C          -0.9403   -0.1432   -0.2660 C.ar    1  LIG1        0.0785
      5 N           0.1666   -0.7615   -0.7729 N.ar    1  LIG1       -0.3585
      6 H           0.1374   -1.6011   -1.3300 H       1  LIG1        0.1654
      7 H           2.2480   -0.3069   -0.8984 H       1  LIG1        0.0807
      8 H           1.5157    1.9528    0.4251 H       1  LIG1        0.0645
      9 C          -1.3773    1.9992    0.9525 C.1     1  LIG1       -0.0675
     10 C          -2.0852    2.8003    1.5020 C.1     1  LIG1       -0.1138
     11 H          -2.7123    3.5092    1.9903 H       1  LIG1        0.1232
     12 C          -2.2717   -0.7388   -0.3493 C.ar    1  LIG1        0.0657
     13 C          -3.4864   -0.1759   -0.6463 C.ar    1  LIG1       -0.0189
     14 C          -4.4563   -1.2202   -0.5827 C.ar    1  LIG1        0.0520
     15 C          -3.7895   -2.3921   -0.2479 C.ar    1  LIG1        0.0790
     16 N          -2.4737   -2.0797   -0.1160 N.ar    1  LIG1       -0.3509
     17 H          -1.7735   -2.7058    0.2509 H       1  LIG1        0.1660
     18 H          -3.6629    0.8573   -0.8907 H       1  LIG1        0.0652
     19 C          -5.8626   -1.1037   -0.8317 C.1     1  LIG1       -0.0675
     20 C          -7.0452   -1.0099   -1.0420 C.1     1  LIG1       -0.1138
     21 H          -8.0841   -0.8920   -1.2483 H       1  LIG1        0.1232
     22 C          -4.2903   -3.7428   -0.0327 C.ar    1  LIG1        0.0658
     23 C          -3.6392   -4.9220    0.2581 C.ar    1  LIG1       -0.0189
     24 C          -4.6346   -5.9335    0.3758 C.ar    1  LIG1        0.0520
     25 C          -5.8622   -5.3303    0.1446 C.ar    1  LIG1        0.0790
     26 N          -5.6305   -4.0127   -0.0986 N.ar    1  LIG1       -0.3509
     27 H          -6.3180   -3.3349   -0.4047 H       1  LIG1        0.1660
     28 H          -2.5803   -5.0740    0.3845 H       1  LIG1        0.0652
     29 C          -4.4284   -7.3148    0.6925 C.1     1  LIG1       -0.0675
     30 C          -4.2515   -8.4750    0.9528 C.1     1  LIG1       -0.1138
     31 H          -4.0978   -9.5023    1.1884 H       1  LIG1        0.1232
     32 C          -7.2112   -5.8870    0.1577 C.ar    1  LIG1        0.0653
     33 C          -7.6768   -7.1226   -0.2183 C.ar    1  LIG1       -0.0195
     34 C          -9.0866   -7.1234    0.0082 C.ar    1  LIG1        0.0426
     35 C          -9.4218   -5.8844    0.5141 C.ar    1  LIG1        0.0177
     36 N          -8.2842   -5.1469    0.5965 N.ar    1  LIG1       -0.3584
     37 H          -8.2117   -4.2368    1.0240 H       1  LIG1        0.1654
     38 H         -10.3787   -5.4993    0.8199 H       1  LIG1        0.0819
     39 H          -7.0846   -7.9272   -0.6184 H       1  LIG1        0.0651
     40 C         -10.0039   -8.1967   -0.2455 C.1     1  LIG1       -0.0682
     41 C         -10.7684   -9.0990   -0.4593 C.1     1  LIG1       -0.1139
     42 H         -11.4425   -9.9010   -0.6502 H       1  LIG1        0.1232
@<TRIPOS>BOND
     1     6     5    1
     2    21    20    1
     3    20    19    3
     4     7     1    1
     5    18    13    1
     6    19    14    1
     7     5     1   ar
     8     5     4   ar
     9    42    41    1
    10    13    14   ar
    11    13    12   ar
    12    39    33    1
    13    14    15   ar
    14     1     2   ar
    15    41    40    3
    16    27    26    1
    17    12     4    1
    18    12    16   ar
    19     4     3   ar
    20    15    16   ar
    21    15    22    1
    22    40    34    1
    23    33    34   ar
    24    33    32   ar
    25    16    17    1
    26    26    22   ar
    27    26    25   ar
    28    22    23   ar
    29    34    35   ar
    30     2     3   ar
    31     2     8    1
    32    25    32    1
    33    25    24   ar
    34    32    36   ar
    35    23    24   ar
    36    23    28    1
    37     3     9    1
    38    24    29    1
    39    35    36   ar
    40    35    38    1
    41    36    37    1
    42    29    30    3
    43     9    10    3
    44    30    31    1
    45    10    11    1
