@<TRIPOS>MOLECULE
mol_data/opt/m06hf/geoms/mol2/13ae13ae13ae.out
 32 34 0 0 0
SMALL
GASTEIGER

@<TRIPOS>ATOM
      1 C           1.2734   -0.1110    0.2078 C.ar    1  LIG1        0.0034
      2 C           0.8446    1.0487   -0.3794 C.ar    1  LIG1       -0.0283
      3 C          -0.5823    0.9894   -0.4398 C.ar    1  LIG1        0.0513
      4 C          -0.9659   -0.2152    0.1216 C.ar    1  LIG1        0.0785
      5 N           0.1717   -0.8686    0.5018 N.ar    1  LIG1       -0.3585
      6 H           0.1763   -1.7243    1.0336 H       1  LIG1        0.1654
      7 H           2.2656   -0.4550    0.4412 H       1  LIG1        0.0807
      8 H           1.4578    1.8556   -0.7408 H       1  LIG1        0.0645
      9 C          -1.4692    1.9706   -0.9916 C.1     1  LIG1       -0.0675
     10 C          -2.2074    2.7991   -1.4545 C.1     1  LIG1       -0.1138
     11 H          -2.8633    3.5292   -1.8683 H       1  LIG1        0.1232
     12 C          -2.2946   -0.7911    0.3133 C.ar    1  LIG1        0.0657
     13 C          -3.4678   -0.2144    0.7271 C.ar    1  LIG1       -0.0189
     14 C          -4.4652   -1.2361    0.7230 C.ar    1  LIG1        0.0520
     15 C          -3.8582   -2.4056    0.3011 C.ar    1  LIG1        0.0790
     16 N          -2.5413   -2.1235    0.0681 N.ar    1  LIG1       -0.3509
     17 H          -1.9232   -2.7231   -0.4580 H       1  LIG1        0.1660
     18 H          -3.5978    0.8138    1.0175 H       1  LIG1        0.0652
     19 C          -5.8388   -1.1082    1.1115 C.1     1  LIG1       -0.0675
     20 C          -6.9911   -0.9955    1.4356 C.1     1  LIG1       -0.1138
     21 H          -8.0114   -0.8964    1.7254 H       1  LIG1        0.1232
     22 C          -4.4123   -3.7414    0.0975 C.ar    1  LIG1        0.0653
     23 C          -5.6172   -4.1396   -0.4261 C.ar    1  LIG1       -0.0195
     24 C          -5.6339   -5.5673   -0.3975 C.ar    1  LIG1        0.0426
     25 C          -4.4346   -5.9810    0.1442 C.ar    1  LIG1        0.0177
     26 N          -3.7050   -4.8719    0.4334 N.ar    1  LIG1       -0.3584
     27 H          -2.8320   -4.8663    0.9365 H       1  LIG1        0.1654
     28 H          -4.0706   -6.9739    0.3400 H       1  LIG1        0.0819
     29 H          -6.3905   -3.4894   -0.7969 H       1  LIG1        0.0651
     30 C          -6.6840   -6.4312   -0.8543 C.1     1  LIG1       -0.0682
     31 C          -7.5653   -7.1516   -1.2394 C.1     1  LIG1       -0.1139
     32 H          -8.3486   -7.7869   -1.5813 H       1  LIG1        0.1232
@<TRIPOS>BOND
     1    11    10    1
     2    32    31    1
     3    10     9    3
     4    31    30    3
     5     9     3    1
     6    30    24    1
     7    29    23    1
     8     8     2    1
     9    17    16    1
    10     3     2   ar
    11     3     4   ar
    12    23    24   ar
    13    23    22   ar
    14    24    25   ar
    15     2     1   ar
    16    16    15   ar
    17    16    12   ar
    18    22    15    1
    19    22    26   ar
    20     4    12    1
    21     4     5   ar
    22    25    28    1
    23    25    26   ar
    24     1     7    1
    25     1     5   ar
    26    15    14   ar
    27    12    13   ar
    28    26    27    1
    29     5     6    1
    30    14    13   ar
    31    14    19    1
    32    13    18    1
    33    19    20    3
    34    20    21    1
