@<TRIPOS>MOLECULE
mol_data/opt/m06hf/geoms/mol2/13ae13ae13ae13ae.out
 42 45 0 0 0
SMALL
GASTEIGER

@<TRIPOS>ATOM
      1 C           0.8139    0.3540   -1.8285 C.ar    1  LIG1        0.0034
      2 C           0.8705    1.1083   -0.6868 C.ar    1  LIG1       -0.0283
      3 C          -0.3321    0.8575    0.0435 C.ar    1  LIG1        0.0513
      4 C          -1.0782   -0.0447   -0.6924 C.ar    1  LIG1        0.0785
      5 N          -0.3644   -0.3413   -1.8186 N.ar    1  LIG1       -0.3585
      6 H          -0.7219   -0.8914   -2.5840 H       1  LIG1        0.1654
      7 H           1.5096    0.2598   -2.6438 H       1  LIG1        0.0807
      8 H           1.6683    1.7639   -0.3837 H       1  LIG1        0.0645
      9 C          -0.7107    1.4075    1.3116 C.1     1  LIG1       -0.0675
     10 C          -1.0272    1.8728    2.3736 C.1     1  LIG1       -0.1138
     11 H          -1.3104    2.2836    3.3143 H       1  LIG1        0.1232
     12 C          -2.3843   -0.6440   -0.4189 C.ar    1  LIG1        0.0657
     13 C          -3.5643   -0.0736   -0.0083 C.ar    1  LIG1       -0.0189
     14 C          -4.5272   -1.1208    0.0903 C.ar    1  LIG1        0.0520
     15 C          -3.8954   -2.2997   -0.2696 C.ar    1  LIG1        0.0790
     16 N          -2.6018   -1.9910   -0.5733 N.ar    1  LIG1       -0.3509
     17 H          -1.9050   -2.6573   -0.8687 H       1  LIG1        0.1660
     18 H          -3.7217    0.9709    0.1975 H       1  LIG1        0.0652
     19 C          -5.8981   -1.0089    0.4924 C.1     1  LIG1       -0.0675
     20 C          -7.0480   -0.9146    0.8280 C.1     1  LIG1       -0.1138
     21 H          -8.0662   -0.8335    1.1292 H       1  LIG1        0.1232
     22 C          -4.4078   -3.6677   -0.3421 C.ar    1  LIG1        0.0658
     23 C          -5.5505   -4.1652   -0.9194 C.ar    1  LIG1       -0.0189
     24 C          -5.5472   -5.5758   -0.7132 C.ar    1  LIG1        0.0520
     25 C          -4.3935   -5.8900   -0.0139 C.ar    1  LIG1        0.0790
     26 N          -3.7187   -4.7245    0.2007 N.ar    1  LIG1       -0.3509
     27 H          -2.8433   -4.6528    0.6961 H       1  LIG1        0.1660
     28 H          -6.3013   -3.5882   -1.4312 H       1  LIG1        0.0652
     29 C          -6.5396   -6.5199   -1.1352 C.1     1  LIG1       -0.0675
     30 C          -7.3683   -7.3125   -1.4946 C.1     1  LIG1       -0.1138
     31 H          -8.1013   -8.0183   -1.8088 H       1  LIG1        0.1232
     32 C          -3.8948   -7.1777    0.4692 C.ar    1  LIG1        0.0653
     33 C          -3.7650   -8.3836   -0.1719 C.ar    1  LIG1       -0.0195
     34 C          -3.2177   -9.3038    0.7733 C.ar    1  LIG1        0.0426
     35 C          -3.0367   -8.6162    1.9558 C.ar    1  LIG1        0.0177
     36 N          -3.4428   -7.3353    1.7588 N.ar    1  LIG1       -0.3584
     37 H          -3.5275   -6.6352    2.4790 H       1  LIG1        0.1654
     38 H          -2.6599   -8.9589    2.9031 H       1  LIG1        0.0819
     39 H          -4.0238   -8.5855   -1.1972 H       1  LIG1        0.0651
     40 C          -2.9015  -10.6855    0.5531 C.1     1  LIG1       -0.0682
     41 C          -2.6409  -11.8429    0.3611 C.1     1  LIG1       -0.1139
     42 H          -2.4155  -12.8693    0.1897 H       1  LIG1        0.1232
@<TRIPOS>BOND
     1     7     1    1
     2     6     5    1
     3     1     5   ar
     4     1     2   ar
     5     5     4   ar
     6    31    30    1
     7    30    29    3
     8    28    23    1
     9    39    33    1
    10    29    24    1
    11    23    24   ar
    12    23    22   ar
    13    17    16    1
    14    24    25   ar
    15     4    12    1
    16     4     3   ar
    17     2     8    1
    18     2     3   ar
    19    16    12   ar
    20    16    15   ar
    21    12    13   ar
    22    22    15    1
    23    22    26   ar
    24    15    14   ar
    25    33    32   ar
    26    33    34   ar
    27    25    26   ar
    28    25    32    1
    29    13    14   ar
    30    13    18    1
    31     3     9    1
    32    14    19    1
    33    42    41    1
    34    26    27    1
    35    41    40    3
    36    32    36   ar
    37    19    20    3
    38    40    34    1
    39    34    35   ar
    40    20    21    1
    41     9    10    3
    42    36    35   ar
    43    36    37    1
    44    35    38    1
    45    10    11    1
