@<TRIPOS>MOLECULE
mol_data/opt/m06hf/geoms/mol2/13ae13ae.out
 22 23 0 0 0
SMALL
GASTEIGER

@<TRIPOS>ATOM
      1 C          -4.7402   -1.7874    1.5280 C.ar    1  LIG1        0.0034
      2 C          -4.7121   -0.4882    1.0970 C.ar    1  LIG1       -0.0283
      3 C          -3.3700   -0.2069    0.6929 C.ar    1  LIG1        0.0513
      4 C          -2.6301   -1.3571    0.8994 C.ar    1  LIG1        0.0785
      5 N          -3.4786   -2.3026    1.4005 N.ar    1  LIG1       -0.3585
      6 H          -3.1781   -3.2019    1.7411 H       1  LIG1        0.1654
      7 H          -5.5487   -2.3817    1.9164 H       1  LIG1        0.0807
      8 H          -5.5410    0.1970    1.0583 H       1  LIG1        0.0645
      9 C          -2.8631    1.0209    0.1537 C.1     1  LIG1       -0.0675
     10 C          -2.4406    2.0537   -0.2934 C.1     1  LIG1       -0.1138
     11 H          -2.0612    2.9652   -0.6928 H       1  LIG1        0.1232
     12 C          -1.2138   -1.6359    0.6629 C.ar    1  LIG1        0.0653
     13 C          -0.0926   -0.9052    0.9657 C.ar    1  LIG1       -0.0195
     14 C           1.0333   -1.6581    0.5114 C.ar    1  LIG1        0.0426
     15 C           0.5488   -2.8210   -0.0504 C.ar    1  LIG1        0.0177
     16 N          -0.8054   -2.7987    0.0515 N.ar    1  LIG1       -0.3584
     17 H          -1.4315   -3.4671   -0.3689 H       1  LIG1        0.1654
     18 H           1.0771   -3.6379   -0.5095 H       1  LIG1        0.0819
     19 H          -0.0760    0.0501    1.4611 H       1  LIG1        0.0651
     20 C           2.4181   -1.3005    0.6223 C.1     1  LIG1       -0.0682
     21 C           3.5773   -0.9993    0.7201 C.1     1  LIG1       -0.1139
     22 H           4.6033   -0.7289    0.8077 H       1  LIG1        0.1232
@<TRIPOS>BOND
     1    11    10    1
     2    18    15    1
     3    17    16    1
     4    10     9    3
     5    15    16   ar
     6    15    14   ar
     7    16    12   ar
     8     9     3    1
     9    14    20    1
    10    14    13   ar
    11    20    21    3
    12    12     4    1
    13    12    13   ar
    14     3     4   ar
    15     3     2   ar
    16    21    22    1
    17     4     5   ar
    18    13    19    1
    19     8     2    1
    20     2     1   ar
    21     5     1   ar
    22     5     6    1
    23     1     7    1
