@<TRIPOS>MOLECULE
mol_data/opt/m06hf/geoms/mol2/13ae13ae-13ae.out
 32 34 0 0 0
SMALL
GASTEIGER

@<TRIPOS>ATOM
      1 C           1.2917   -0.2857   -0.0006 C.ar    1  LIG1        0.0034
      2 C           0.8769    1.0182   -0.0006 C.ar    1  LIG1       -0.0283
      3 C          -0.5520    1.0010   -0.0000 C.ar    1  LIG1        0.0513
      4 C          -0.9502   -0.3285    0.0003 C.ar    1  LIG1        0.0785
      5 N           0.1798   -1.0841   -0.0000 N.ar    1  LIG1       -0.3585
      6 H           0.1892   -2.0916    0.0001 H       1  LIG1        0.1654
      7 H           2.2801   -0.7099   -0.0009 H       1  LIG1        0.0807
      8 H           1.4970    1.8974   -0.0009 H       1  LIG1        0.0645
      9 C          -1.4248    2.1373    0.0002 C.1     1  LIG1       -0.0675
     10 C          -2.1611    3.0909    0.0003 C.1     1  LIG1       -0.1138
     11 H          -2.7882    3.9527    0.0004 H       1  LIG1        0.1232
     12 C          -2.2823   -0.9218    0.0009 C.ar    1  LIG1        0.0657
     13 C          -2.6941   -2.2354    0.0007 C.ar    1  LIG1       -0.0189
     14 C          -4.1182   -2.2241    0.0014 C.ar    1  LIG1        0.0520
     15 C          -4.5228   -0.8936    0.0020 C.ar    1  LIG1        0.0790
     16 N          -3.4012   -0.1340    0.0016 N.ar    1  LIG1       -0.3509
     17 H          -3.3709    0.8783    0.0017 H       1  LIG1        0.1660
     18 H          -2.0782   -3.1189    0.0002 H       1  LIG1        0.0652
     19 C          -4.9842   -3.3654    0.0016 C.1     1  LIG1       -0.0675
     20 C          -5.7127   -4.3254    0.0017 C.1     1  LIG1       -0.1138
     21 H          -6.3306   -5.1937    0.0018 H       1  LIG1        0.1232
     22 C          -5.8530   -0.2977    0.0028 C.ar    1  LIG1        0.0653
     23 C          -6.2482    1.0222    0.0040 C.ar    1  LIG1       -0.0195
     24 C          -7.6733    1.0288    0.0042 C.ar    1  LIG1        0.0426
     25 C          -8.0859   -0.2898    0.0032 C.ar    1  LIG1        0.0177
     26 N          -6.9809   -1.0728    0.0023 N.ar    1  LIG1       -0.3584
     27 H          -6.9588   -2.0843    0.0015 H       1  LIG1        0.1654
     28 H          -9.0795   -0.7009    0.0030 H       1  LIG1        0.0819
     29 H          -5.6155    1.8942    0.0046 H       1  LIG1        0.0651
     30 C          -8.5311    2.1779    0.0054 C.1     1  LIG1       -0.0682
     31 C          -9.2465    3.1436    0.0063 C.1     1  LIG1       -0.1139
     32 H          -9.8817    3.9983    0.0071 H       1  LIG1        0.1232
@<TRIPOS>BOND
     1     8     2    1
     2     7     1    1
     3     1     2   ar
     4     1     5   ar
     5     2     3   ar
     6     5     6    1
     7     5     4   ar
     8     3     9    1
     9     3     4   ar
    10    18    13    1
    11     9    10    3
    12     4    12    1
    13    10    11    1
    14    13    12   ar
    15    13    14   ar
    16    12    16   ar
    17    14    19    1
    18    14    15   ar
    19    27    26    1
    20    19    20    3
    21    16    17    1
    22    16    15   ar
    23    20    21    1
    24    15    22    1
    25    26    22   ar
    26    26    25   ar
    27    22    23   ar
    28    28    25    1
    29    25    24   ar
    30    23    24   ar
    31    23    29    1
    32    24    30    1
    33    30    31    3
    34    31    32    1
