@<TRIPOS>MOLECULE
mol_data/opt/m06hf/geoms/mol2/13ae13ae-.out
 22 23 0 0 0
SMALL
GASTEIGER

@<TRIPOS>ATOM
      1 C           1.2280   -0.2852   -0.0003 C.ar    1  LIG1        0.0034
      2 C           0.8314    1.0240   -0.0003 C.ar    1  LIG1       -0.0283
      3 C          -0.5979    1.0260    0.0002 C.ar    1  LIG1        0.0513
      4 C          -1.0153   -0.2976    0.0004 C.ar    1  LIG1        0.0785
      5 N           0.1047   -1.0680    0.0001 N.ar    1  LIG1       -0.3585
      6 H           0.0975   -2.0752    0.0001 H       1  LIG1        0.1654
      7 H           2.2108   -0.7217   -0.0006 H       1  LIG1        0.0807
      8 H           1.4648    1.8942   -0.0006 H       1  LIG1        0.0645
      9 C          -1.4541    2.1748    0.0004 C.1     1  LIG1       -0.0675
     10 C          -2.1743    3.1407    0.0006 C.1     1  LIG1       -0.1138
     11 H          -2.7848    4.0143    0.0008 H       1  LIG1        0.1232
     12 C          -2.3530   -0.8809    0.0009 C.ar    1  LIG1        0.0653
     13 C          -2.7705   -2.1939    0.0010 C.ar    1  LIG1       -0.0195
     14 C          -4.1955   -2.1786    0.0015 C.ar    1  LIG1        0.0426
     15 C          -4.5869   -0.8539    0.0017 C.ar    1  LIG1        0.0177
     16 N          -3.4693   -0.0890    0.0013 N.ar    1  LIG1       -0.3584
     17 H          -3.4319    0.9221    0.0012 H       1  LIG1        0.1654
     18 H          -5.5740   -0.4273    0.0020 H       1  LIG1        0.0819
     19 H          -2.1575   -3.0798    0.0008 H       1  LIG1        0.0651
     20 C          -5.0698   -3.3153    0.0018 C.1     1  LIG1       -0.0682
     21 C          -5.7991   -4.2710    0.0021 C.1     1  LIG1       -0.1139
     22 H          -6.4456   -5.1175    0.0022 H       1  LIG1        0.1232
@<TRIPOS>BOND
     1     7     1    1
     2     8     2    1
     3     1     2   ar
     4     1     5   ar
     5     2     3   ar
     6     5     6    1
     7     5     4   ar
     8     3     4   ar
     9     3     9    1
    10     4    12    1
    11     9    10    3
    12    10    11    1
    13    19    13    1
    14    12    13   ar
    15    12    16   ar
    16    13    14   ar
    17    17    16    1
    18    16    15   ar
    19    14    15   ar
    20    14    20    1
    21    15    18    1
    22    20    21    3
    23    21    22    1
