@<TRIPOS>MOLECULE
mol_data/opt/m06hf/geoms/mol2/13ae13ae-13ae-13ae.out
 42 45 0 0 0
SMALL
GASTEIGER

@<TRIPOS>ATOM
      1 C           1.3307   -0.3161   -0.0495 C.ar    1  LIG1        0.0034
      2 C           0.9101    0.9396   -0.3939 C.ar    1  LIG1       -0.0283
      3 C          -0.5185    0.9146   -0.3939 C.ar    1  LIG1        0.0513
      4 C          -0.9102   -0.3706   -0.0451 C.ar    1  LIG1        0.0785
      5 N           0.2227   -1.0933    0.1565 N.ar    1  LIG1       -0.3585
      6 H           0.2334   -2.0665    0.4153 H       1  LIG1        0.1654
      7 H           2.3222   -0.7169    0.0669 H       1  LIG1        0.0807
      8 H           1.5280    1.7897   -0.6236 H       1  LIG1        0.0645
      9 C          -1.3998    2.0030   -0.6989 C.1     1  LIG1       -0.0675
     10 C          -2.1460    2.9123   -0.9617 C.1     1  LIG1       -0.1138
     11 H          -2.7745    3.7369   -1.2085 H       1  LIG1        0.1232
     12 C          -2.2405   -0.9477    0.1095 C.ar    1  LIG1        0.0657
     13 C          -2.6568   -2.2016    0.5011 C.ar    1  LIG1       -0.0189
     14 C          -4.0807   -2.1991    0.4733 C.ar    1  LIG1        0.0520
     15 C          -4.4802   -0.9363    0.0627 C.ar    1  LIG1        0.0790
     16 N          -3.3561   -0.2019   -0.1523 N.ar    1  LIG1       -0.3509
     17 H          -3.3198    0.7315   -0.5431 H       1  LIG1        0.1660
     18 H          -2.0423   -3.0362    0.7938 H       1  LIG1        0.0652
     19 C          -4.9539   -3.2785    0.8256 C.1     1  LIG1       -0.0675
     20 C          -5.6815   -4.1895    1.1193 C.1     1  LIG1       -0.1138
     21 H          -6.3263   -4.9938    1.3872 H       1  LIG1        0.1232
     22 C          -5.8100   -0.3664   -0.1163 C.ar    1  LIG1        0.0658
     23 C          -6.9855   -0.9301   -0.5438 C.ar    1  LIG1       -0.0189
     24 C          -7.9675    0.1049   -0.5405 C.ar    1  LIG1        0.0520
     25 C          -7.3475    1.2702   -0.1089 C.ar    1  LIG1        0.0790
     26 N          -6.0477    0.9637    0.1413 N.ar    1  LIG1       -0.3509
     27 H          -5.3943    1.5858    0.5928 H       1  LIG1        0.1660
     28 H          -7.1266   -1.9554   -0.8379 H       1  LIG1        0.0652
     29 C          -9.3451   -0.0110   -0.9185 C.1     1  LIG1       -0.0675
     30 C         -10.5061   -0.1033   -1.2274 C.1     1  LIG1       -0.1138
     31 H         -11.5254   -0.2099   -1.5199 H       1  LIG1        0.1232
     32 C          -7.8695    2.6169    0.0865 C.ar    1  LIG1        0.0653
     33 C          -7.2232    3.8088    0.3334 C.ar    1  LIG1       -0.0195
     34 C          -8.2291    4.8124    0.4426 C.ar    1  LIG1        0.0426
     35 C          -9.4471    4.1883    0.2528 C.ar    1  LIG1        0.0177
     36 N          -9.2132    2.8713    0.0424 N.ar    1  LIG1       -0.3584
     37 H          -9.9066    2.1600   -0.1488 H       1  LIG1        0.1654
     38 H         -10.4408    4.6001    0.2552 H       1  LIG1        0.0819
     39 H          -6.1615    3.9727    0.4155 H       1  LIG1        0.0651
     40 C          -8.0302    6.2102    0.6938 C.1     1  LIG1       -0.0682
     41 C          -7.8580    7.3809    0.9044 C.1     1  LIG1       -0.1139
     42 H          -7.7074    8.4180    1.0925 H       1  LIG1        0.1232
@<TRIPOS>BOND
     1    31    30    1
     2    30    29    3
     3    11    10    1
     4    10     9    3
     5    29    24    1
     6    28    23    1
     7     9     3    1
     8     8     2    1
     9    23    24   ar
    10    23    22   ar
    11    17    16    1
    12    24    25   ar
    13     2     3   ar
    14     2     1   ar
    15     3     4   ar
    16    16    15   ar
    17    16    12   ar
    18    37    36    1
    19    22    15    1
    20    22    26   ar
    21    25    32    1
    22    25    26   ar
    23     1     7    1
    24     1     5   ar
    25     4    12    1
    26     4     5   ar
    27    36    32   ar
    28    36    35   ar
    29    15    14   ar
    30    32    33   ar
    31    12    13   ar
    32    26    27    1
    33     5     6    1
    34    35    38    1
    35    35    34   ar
    36    33    39    1
    37    33    34   ar
    38    34    40    1
    39    14    13   ar
    40    14    19    1
    41    13    18    1
    42    40    41    3
    43    19    20    3
    44    41    42    1
    45    20    21    1
