@<TRIPOS>MOLECULE
mol_data/opt/m06hf/geoms/mol2/13ae13ae13ae13ae-.out
 42 45 0 0 0
SMALL
GASTEIGER

@<TRIPOS>ATOM
      1 C           1.2737    0.0641    0.0039 C.ar    1  LIG1        0.0034
      2 C           0.7822    1.2625   -0.4402 C.ar    1  LIG1       -0.0283
      3 C          -0.6437    1.1724   -0.4048 C.ar    1  LIG1        0.0513
      4 C          -0.9629   -0.0889    0.0659 C.ar    1  LIG1        0.0785
      5 N           0.2111   -0.7449    0.3027 N.ar    1  LIG1       -0.3585
      6 H           0.2730   -1.6481    0.7442 H       1  LIG1        0.1654
      7 H           2.2861   -0.2759    0.1355 H       1  LIG1        0.0807
      8 H           1.3530    2.1151   -0.7643 H       1  LIG1        0.0645
      9 C          -1.5893    2.1768   -0.7940 C.1     1  LIG1       -0.0675
     10 C          -2.3805    3.0226   -1.1174 C.1     1  LIG1       -0.1138
     11 H          -3.0850    3.7663   -1.4098 H       1  LIG1        0.1232
     12 C          -2.2646   -0.7100    0.2976 C.ar    1  LIG1        0.0657
     13 C          -3.4184   -0.1916    0.8277 C.ar    1  LIG1       -0.0189
     14 C          -4.3960   -1.2316    0.8097 C.ar    1  LIG1        0.0520
     15 C          -3.7970   -2.3529    0.2630 C.ar    1  LIG1        0.0790
     16 N          -2.5032   -2.0255   -0.0317 N.ar    1  LIG1       -0.3509
     17 H          -1.9097   -2.5705   -0.6397 H       1  LIG1        0.1660
     18 H          -3.5470    0.8096    1.2014 H       1  LIG1        0.0652
     19 C          -5.7439   -1.1630    1.2905 C.1     1  LIG1       -0.0675
     20 C          -6.8751   -1.0997    1.6918 C.1     1  LIG1       -0.1138
     21 H          -7.8757   -1.0451    2.0524 H       1  LIG1        0.1232
     22 C          -4.3390   -3.6802   -0.0050 C.ar    1  LIG1        0.0658
     23 C          -5.5798   -4.0670   -0.4443 C.ar    1  LIG1       -0.0189
     24 C          -5.5599   -5.4898   -0.5478 C.ar    1  LIG1        0.0520
     25 C          -4.2964   -5.9206   -0.1663 C.ar    1  LIG1        0.0790
     26 N          -3.5759   -4.8141    0.1550 N.ar    1  LIG1       -0.3509
     27 H          -2.6727   -4.8370    0.6019 H       1  LIG1        0.1660
     28 H          -6.4009   -3.4122   -0.6784 H       1  LIG1        0.0652
     29 C          -6.6316   -6.3385   -0.9775 C.1     1  LIG1       -0.0675
     30 C          -7.5315   -7.0566   -1.3316 C.1     1  LIG1       -0.1138
     31 H          -8.3416   -7.6660   -1.6599 H       1  LIG1        0.1232
     32 C          -3.7289   -7.2601   -0.0741 C.ar    1  LIG1        0.0653
     33 C          -2.4328   -7.6790    0.1345 C.ar    1  LIG1       -0.0195
     34 C          -2.4519   -9.1040    0.1412 C.ar    1  LIG1        0.0426
     35 C          -3.7609   -9.4929   -0.0695 C.ar    1  LIG1        0.0177
     36 N          -4.5138   -8.3743   -0.1944 N.ar    1  LIG1       -0.3584
     37 H          -5.5084   -8.3362   -0.3762 H       1  LIG1        0.1654
     38 H          -4.1844  -10.4792   -0.1376 H       1  LIG1        0.0819
     39 H          -1.5561   -7.0644    0.2524 H       1  LIG1        0.0651
     40 C          -1.3315   -9.9810    0.3227 C.1     1  LIG1       -0.0682
     41 C          -0.3887  -10.7114    0.4754 C.1     1  LIG1       -0.1139
     42 H           0.4449  -11.3605    0.6113 H       1  LIG1        0.1232
@<TRIPOS>BOND
     1    31    30    1
     2    11    10    1
     3    30    29    3
     4    10     9    3
     5    29    24    1
     6     9     3    1
     7     8     2    1
     8    28    23    1
     9    17    16    1
    10    24    23   ar
    11    24    25   ar
    12    23    22   ar
    13     2     3   ar
    14     2     1   ar
    15     3     4   ar
    16    37    36    1
    17    36    32   ar
    18    36    35   ar
    19    25    32    1
    20    25    26   ar
    21    38    35    1
    22    32    33   ar
    23    35    34   ar
    24    16    15   ar
    25    16    12   ar
    26    22    26   ar
    27    22    15    1
    28     1     7    1
    29     1     5   ar
    30     4    12    1
    31     4     5   ar
    32    33    34   ar
    33    33    39    1
    34    34    40    1
    35    26    27    1
    36    15    14   ar
    37    12    13   ar
    38     5     6    1
    39    40    41    3
    40    41    42    1
    41    14    13   ar
    42    14    19    1
    43    13    18    1
    44    19    20    3
    45    20    21    1
