@<TRIPOS>MOLECULE
mol_data/opt/m06hf/geoms/mol2/13ae13ae-13ae13ae-.out
 42 45 0 0 0
SMALL
GASTEIGER

@<TRIPOS>ATOM
      1 C           1.3595   -0.2760   -0.0016 C.ar    1  LIG1        0.0034
      2 C           0.9490    1.0292   -0.0014 C.ar    1  LIG1       -0.0283
      3 C          -0.4795    1.0163   -0.0005 C.ar    1  LIG1        0.0513
      4 C          -0.8819   -0.3119   -0.0001 C.ar    1  LIG1        0.0785
      5 N           0.2455   -1.0713   -0.0008 N.ar    1  LIG1       -0.3585
      6 H           0.2493   -2.0785   -0.0007 H       1  LIG1        0.1654
      7 H           2.3478   -0.7010   -0.0022 H       1  LIG1        0.0807
      8 H           1.5730    1.9055   -0.0018 H       1  LIG1        0.0645
      9 C          -1.3489    2.1552    0.0000 C.1     1  LIG1       -0.0675
     10 C          -2.0832    3.1104    0.0005 C.1     1  LIG1       -0.1138
     11 H          -2.7050    3.9756    0.0008 H       1  LIG1        0.1232
     12 C          -2.2161   -0.9001    0.0007 C.ar    1  LIG1        0.0657
     13 C          -2.6339   -2.2126    0.0009 C.ar    1  LIG1       -0.0189
     14 C          -4.0575   -2.1952    0.0019 C.ar    1  LIG1        0.0520
     15 C          -4.4553   -0.8623    0.0023 C.ar    1  LIG1        0.0790
     16 N          -3.3307   -0.1072    0.0016 N.ar    1  LIG1       -0.3509
     17 H          -3.2930    0.9046    0.0016 H       1  LIG1        0.1660
     18 H          -2.0222   -3.0986    0.0004 H       1  LIG1        0.0652
     19 C          -4.9313   -3.3301    0.0024 C.1     1  LIG1       -0.0675
     20 C          -5.6719   -4.2802    0.0028 C.1     1  LIG1       -0.1138
     21 H          -6.3034   -5.1387    0.0032 H       1  LIG1        0.1232
     22 C          -5.7833   -0.2657    0.0032 C.ar    1  LIG1        0.0658
     23 C          -6.1808    1.0528    0.0036 C.ar    1  LIG1       -0.0189
     24 C          -7.6043    1.0557    0.0045 C.ar    1  LIG1        0.0520
     25 C          -8.0227   -0.2709    0.0047 C.ar    1  LIG1        0.0790
     26 N          -6.9099   -1.0426    0.0039 N.ar    1  LIG1       -0.3509
     27 H          -6.8926   -2.0545    0.0037 H       1  LIG1        0.1660
     28 H          -5.5503    1.9261    0.0033 H       1  LIG1        0.0652
     29 C          -8.4600    2.2041    0.0052 C.1     1  LIG1       -0.0675
     30 C          -9.1838    3.1669    0.0058 C.1     1  LIG1       -0.1138
     31 H          -9.8006    4.0354    0.0063 H       1  LIG1        0.1232
     32 C          -9.3590   -0.8529    0.0055 C.ar    1  LIG1        0.0653
     33 C          -9.7666   -2.1690    0.0061 C.ar    1  LIG1       -0.0195
     34 C         -11.1914   -2.1623    0.0067 C.ar    1  LIG1        0.0426
     35 C         -11.5914   -0.8394    0.0065 C.ar    1  LIG1        0.0177
     36 N         -10.4796   -0.0671    0.0057 N.ar    1  LIG1       -0.3584
     37 H         -10.4480    0.9440    0.0054 H       1  LIG1        0.1654
     38 H         -12.5822   -0.4206    0.0068 H       1  LIG1        0.0819
     39 H          -9.1420   -3.0464    0.0061 H       1  LIG1        0.0651
     40 C         -12.0624   -3.3013    0.0075 C.1     1  LIG1       -0.0682
     41 C         -12.7904   -4.2575    0.0081 C.1     1  LIG1       -0.1139
     42 H         -13.4359   -5.1043    0.0086 H       1  LIG1        0.1232
@<TRIPOS>BOND
     1     7     1    1
     2     8     2    1
     3     1     2   ar
     4     1     5   ar
     5     2     3   ar
     6     5     6    1
     7     5     4   ar
     8     3     4   ar
     9     3     9    1
    10     4    12    1
    11     9    10    3
    12    18    13    1
    13    10    11    1
    14    12    13   ar
    15    12    16   ar
    16    13    14   ar
    17    16    17    1
    18    16    15   ar
    19    14    15   ar
    20    14    19    1
    21    15    22    1
    22    19    20    3
    23    20    21    1
    24    22    23   ar
    25    22    26   ar
    26    28    23    1
    27    23    24   ar
    28    27    26    1
    29    26    25   ar
    30    24    25   ar
    31    24    29    1
    32    25    32    1
    33    29    30    3
    34    37    36    1
    35    32    36   ar
    36    32    33   ar
    37    36    35   ar
    38    30    31    1
    39    33    39    1
    40    33    34   ar
    41    35    34   ar
    42    35    38    1
    43    34    40    1
    44    40    41    3
    45    41    42    1
