@<TRIPOS>MOLECULE
mol_data/opt/m06hf/geoms/mol2/13ae13ae-13ae-13ae-.out
 42 45 0 0 0
SMALL
GASTEIGER

@<TRIPOS>ATOM
      1 C           1.3132   -0.2411   -0.4461 C.ar    1  LIG1        0.0034
      2 C           0.8614    1.0420   -0.5911 C.ar    1  LIG1       -0.0283
      3 C          -0.5596    1.0022   -0.4446 C.ar    1  LIG1        0.0513
      4 C          -0.9142   -0.3197   -0.2133 C.ar    1  LIG1        0.0785
      5 N           0.2315   -1.0496   -0.2200 N.ar    1  LIG1       -0.3585
      6 H           0.2636   -2.0506   -0.1106 H       1  LIG1        0.1654
      7 H           2.3103   -0.6428   -0.4881 H       1  LIG1        0.0807
      8 H           1.4545    1.9193   -0.7817 H       1  LIG1        0.0645
      9 C          -1.4688    2.1071   -0.5315 C.1     1  LIG1       -0.0675
     10 C          -2.2391    3.0301   -0.6198 C.1     1  LIG1       -0.1138
     11 H          -2.8881    3.8713   -0.7071 H       1  LIG1        0.1232
     12 C          -2.2238   -0.9213    0.0066 C.ar    1  LIG1        0.0657
     13 C          -2.5998   -2.1760    0.4340 C.ar    1  LIG1       -0.0189
     14 C          -4.0237   -2.1986    0.4665 C.ar    1  LIG1        0.0520
     15 C          -4.4635   -0.9487    0.0582 C.ar    1  LIG1        0.0790
     16 N          -3.3627   -0.1989   -0.2172 N.ar    1  LIG1       -0.3509
     17 H          -3.3593    0.7321   -0.6141 H       1  LIG1        0.1660
     18 H          -1.9559   -2.9890    0.7239 H       1  LIG1        0.0652
     19 C          -4.8626   -3.2868    0.8718 C.1     1  LIG1       -0.0675
     20 C          -5.5627   -4.2048    1.2080 C.1     1  LIG1       -0.1138
     21 H          -6.1848   -5.0147    1.5111 H       1  LIG1        0.1232
     22 C          -5.8108   -0.4014   -0.0595 C.ar    1  LIG1        0.0658
     23 C          -6.9910   -0.9777   -0.4633 C.ar    1  LIG1       -0.0189
     24 C          -7.9947    0.0330   -0.3992 C.ar    1  LIG1        0.0520
     25 C          -7.3856    1.1970    0.0411 C.ar    1  LIG1        0.0790
     26 N          -6.0666    0.9140    0.2416 N.ar    1  LIG1       -0.3509
     27 H          -5.3782    1.5801    0.5586 H       1  LIG1        0.1660
     28 H          -7.1212   -2.0008   -0.7705 H       1  LIG1        0.0652
     29 C          -9.3861   -0.1000   -0.7161 C.1     1  LIG1       -0.0675
     30 C         -10.5527   -0.2075   -0.9844 C.1     1  LIG1       -0.1138
     31 H         -11.5876   -0.2982   -1.2187 H       1  LIG1        0.1232
     32 C          -7.9418    2.5254    0.2921 C.ar    1  LIG1        0.0653
     33 C          -8.8100    3.2855   -0.4500 C.ar    1  LIG1       -0.0195
     34 C          -9.0108    4.5070    0.2622 C.ar    1  LIG1        0.0426
     35 C          -8.2533    4.4392    1.4133 C.ar    1  LIG1        0.0177
     36 N          -7.6084    3.2434    1.4174 N.ar    1  LIG1       -0.3584
     37 H          -7.0834    2.8719    2.1936 H       1  LIG1        0.1654
     38 H          -8.1464    5.1517    2.2122 H       1  LIG1        0.0819
     39 H          -9.2438    3.0066   -1.3946 H       1  LIG1        0.0651
     40 C          -9.8337    5.6150   -0.1287 C.1     1  LIG1       -0.0682
     41 C         -10.5256    6.5404   -0.4586 C.1     1  LIG1       -0.1139
     42 H         -11.1423    7.3573   -0.7518 H       1  LIG1        0.1232
@<TRIPOS>BOND
     1    39    33    1
     2    31    30    1
     3    30    29    3
     4     8     2    1
     5    28    23    1
     6    42    41    1
     7    29    24    1
     8    11    10    1
     9    10     9    3
    10    17    16    1
    11     2     1   ar
    12     2     3   ar
    13     9     3    1
    14     7     1    1
    15    23    24   ar
    16    23    22   ar
    17    41    40    3
    18    33    34   ar
    19    33    32   ar
    20     1     5   ar
    21     3     4   ar
    22    24    25   ar
    23     5     4   ar
    24     5     6    1
    25    16    12   ar
    26    16    15   ar
    27     4    12    1
    28    40    34    1
    29    22    15    1
    30    22    26   ar
    31    12    13   ar
    32    25    26   ar
    33    25    32    1
    34    15    14   ar
    35    26    27    1
    36    34    35   ar
    37    32    36   ar
    38    13    14   ar
    39    13    18    1
    40    14    19    1
    41    19    20    3
    42    20    21    1
    43    35    36   ar
    44    35    38    1
    45    36    37    1
