@<TRIPOS>MOLECULE
mol_data/opt/m06hf/geoms/mol2/13ae13ae13ae-13ae.out
 42 45 0 0 0
SMALL
GASTEIGER

@<TRIPOS>ATOM
      1 C           1.2833   -0.0178   -0.4823 C.ar    1  LIG1        0.0034
      2 C           0.9022    1.1116    0.1916 C.ar    1  LIG1       -0.0283
      3 C          -0.5120    1.0333    0.3801 C.ar    1  LIG1        0.0513
      4 C          -0.9365   -0.1513   -0.1943 C.ar    1  LIG1        0.0785
      5 N           0.1654   -0.7746   -0.7065 N.ar    1  LIG1       -0.3585
      6 H           0.1287   -1.6052   -1.2768 H       1  LIG1        0.1654
      7 H           2.2516   -0.3411   -0.8213 H       1  LIG1        0.0807
      8 H           1.5403    1.9096    0.5284 H       1  LIG1        0.0645
      9 C          -1.3551    1.9788    1.0496 C.1     1  LIG1       -0.0675
     10 C          -2.0608    2.7762    1.6072 C.1     1  LIG1       -0.1138
     11 H          -2.6870    3.4807    2.1027 H       1  LIG1        0.1232
     12 C          -2.2719   -0.7348   -0.2913 C.ar    1  LIG1        0.0657
     13 C          -3.4851   -0.1564   -0.5641 C.ar    1  LIG1       -0.0189
     14 C          -4.4588   -1.1989   -0.5416 C.ar    1  LIG1        0.0520
     15 C          -3.7955   -2.3849   -0.2557 C.ar    1  LIG1        0.0790
     16 N          -2.4777   -2.0832   -0.1112 N.ar    1  LIG1       -0.3509
     17 H          -1.7845   -2.7210    0.2483 H       1  LIG1        0.1660
     18 H          -3.6592    0.8859   -0.7676 H       1  LIG1        0.0652
     19 C          -5.8660   -1.0698   -0.7813 C.1     1  LIG1       -0.0675
     20 C          -7.0504   -0.9652   -0.9764 C.1     1  LIG1       -0.1138
     21 H          -8.0922   -0.8414   -1.1651 H       1  LIG1        0.1232
     22 C          -4.2997   -3.7425   -0.1020 C.ar    1  LIG1        0.0658
     23 C          -3.6427   -4.9436    0.0467 C.ar    1  LIG1       -0.0189
     24 C          -4.6419   -5.9516    0.1615 C.ar    1  LIG1        0.0520
     25 C          -5.8789   -5.3216    0.0730 C.ar    1  LIG1        0.0790
     26 N          -5.6443   -3.9968   -0.0818 N.ar    1  LIG1       -0.3509
     27 H          -6.3499   -3.2775   -0.1836 H       1  LIG1        0.1660
     28 H          -2.5793   -5.1135    0.0598 H       1  LIG1        0.0652
     29 C          -4.4246   -7.3570    0.3312 C.1     1  LIG1       -0.0675
     30 C          -4.2416   -8.5387    0.4773 C.1     1  LIG1       -0.1138
     31 H          -4.0496   -9.5788    0.6050 H       1  LIG1        0.1232
     32 C          -7.2323   -5.8604    0.1194 C.ar    1  LIG1        0.0653
     33 C          -8.4532   -5.2383   -0.0226 C.ar    1  LIG1       -0.0195
     34 C          -9.4509   -6.2466    0.1141 C.ar    1  LIG1        0.0426
     35 C          -8.7932   -7.4422    0.3328 C.ar    1  LIG1        0.0177
     36 N          -7.4622   -7.1924    0.3334 N.ar    1  LIG1       -0.3584
     37 H          -6.7220   -7.8692    0.4675 H       1  LIG1        0.1654
     38 H          -9.1915   -8.4298    0.4846 H       1  LIG1        0.0819
     39 H          -8.6373   -4.1930   -0.2070 H       1  LIG1        0.0651
     40 C         -10.8721   -6.0706    0.0393 C.1     1  LIG1       -0.0682
     41 C         -12.0627   -5.9185   -0.0230 C.1     1  LIG1       -0.1139
     42 H         -13.1177   -5.7848   -0.0776 H       1  LIG1        0.1232
@<TRIPOS>BOND
     1     6     5    1
     2    21    20    1
     3    20    19    3
     4     7     1    1
     5    19    14    1
     6    18    13    1
     7     5     1   ar
     8     5     4   ar
     9    13    14   ar
    10    13    12   ar
    11    14    15   ar
    12     1     2   ar
    13    12     4    1
    14    12    16   ar
    15    15    16   ar
    16    15    22    1
    17    39    33    1
    18     4     3   ar
    19    27    26    1
    20    16    17    1
    21    22    26   ar
    22    22    23   ar
    23    26    25   ar
    24    42    41    1
    25    41    40    3
    26    33    34   ar
    27    33    32   ar
    28    40    34    1
    29    23    28    1
    30    23    24   ar
    31    25    32    1
    32    25    24   ar
    33    34    35   ar
    34    32    36   ar
    35    24    29    1
    36     2     3   ar
    37     2     8    1
    38    29    30    3
    39    35    36   ar
    40    35    38    1
    41    36    37    1
    42     3     9    1
    43    30    31    1
    44     9    10    3
    45    10    11    1
