@<TRIPOS>MOLECULE
mol_data/opt/m06hf/geoms/mol2/13ae13ae-4ae13ae.out
 44 47 0 0 0
SMALL
GASTEIGER

@<TRIPOS>ATOM
      1 C           1.3015   -0.1857   -0.4312 C.ar    1  LIG1        0.0034
      2 C           0.8508    1.1038   -0.3490 C.ar    1  LIG1       -0.0283
      3 C          -0.5632    1.0390   -0.1545 C.ar    1  LIG1        0.0513
      4 C          -0.9154   -0.3029   -0.1259 C.ar    1  LIG1        0.0785
      5 N           0.2255   -1.0210   -0.2970 N.ar    1  LIG1       -0.3585
      6 H           0.2572   -2.0262   -0.3573 H       1  LIG1        0.1654
      7 H           2.2932   -0.5755   -0.5782 H       1  LIG1        0.0807
      8 H           1.4401    2.0015   -0.4154 H       1  LIG1        0.0645
      9 C          -1.4701    2.1400   -0.0175 C.1     1  LIG1       -0.0675
     10 C          -2.2390    3.0616    0.0867 C.1     1  LIG1       -0.1138
     11 H          -2.8934    3.8970    0.1851 H       1  LIG1        0.1232
     12 C          -2.2164   -0.9374    0.0482 C.ar    1  LIG1        0.0657
     13 C          -2.5686   -2.2443    0.3084 C.ar    1  LIG1       -0.0189
     14 C          -3.9902   -2.2891    0.3669 C.ar    1  LIG1        0.0505
     15 C          -4.4560   -0.9978    0.1471 C.ar    1  LIG1        0.0626
     16 N          -3.3667   -0.2079   -0.0428 N.ar    1  LIG1       -0.3520
     17 H          -3.3861    0.7769   -0.2768 H       1  LIG1        0.1660
     18 H          -1.9100   -3.0804    0.4732 H       1  LIG1        0.0652
     19 C          -4.7864   -3.4461    0.6517 C.1     1  LIG1       -0.0675
     20 C          -5.4417   -4.4260    0.8903 C.1     1  LIG1       -0.1138
     21 H          -6.0222   -5.2910    1.1113 H       1  LIG1        0.1232
     22 C          -6.0526    0.8763    0.5445 C.ar    1  LIG1       -0.0519
     23 C          -7.3338    1.4019    0.5231 C.ar    1  LIG1       -0.0508
     24 C          -5.8184   -0.4416    0.1326 C.ar    1  LIG1        0.0007
     25 C          -8.4286    0.6464    0.0870 C.ar    1  LIG1        0.0137
     26 H          -7.5069    2.4071    0.8829 H       1  LIG1        0.0625
     27 C          -6.8977   -1.2138   -0.2881 C.ar    1  LIG1       -0.0365
     28 C          -8.1902   -0.6822   -0.3124 C.ar    1  LIG1        0.0344
     29 H          -6.7419   -2.2336   -0.6118 H       1  LIG1        0.0636
     30 H          -5.2353    1.4778    0.9250 H       1  LIG1        0.0624
     31 C          -9.2479   -1.5478   -0.7892 C.1     1  LIG1       -0.0690
     32 C         -10.0949   -2.3035   -1.1884 C.1     1  LIG1       -0.1139
     33 H         -10.8325   -2.9742   -1.5652 H       1  LIG1        0.1232
     34 C          -9.7558    1.2868    0.0725 C.ar    1  LIG1        0.0488
     35 C         -10.0714    2.6256   -0.0296 C.ar    1  LIG1       -0.0210
     36 C         -11.4883    2.7352    0.0462 C.ar    1  LIG1        0.0425
     37 C         -11.9840    1.4532    0.1921 C.ar    1  LIG1        0.0176
     38 N         -10.9350    0.5998    0.2057 N.ar    1  LIG1       -0.3595
     39 H         -10.9912   -0.4064    0.2670 H       1  LIG1        0.1654
     40 H         -13.0010    1.1145    0.2821 H       1  LIG1        0.0819
     41 H          -9.3829    3.4409   -0.1727 H       1  LIG1        0.0651
     42 C         -12.2709    3.9350   -0.0232 C.1     1  LIG1       -0.0682
     43 C         -12.9226    4.9433   -0.0801 C.1     1  LIG1       -0.1139
     44 H         -13.4997    5.8368   -0.1296 H       1  LIG1        0.1232
@<TRIPOS>BOND
     1    33    32    1
     2    32    31    3
     3    31    28    1
     4    29    27    1
     5     7     1    1
     6     1     2   ar
     7     1     5   ar
     8     8     2    1
     9     6     5    1
    10     2     3   ar
    11    28    27   ar
    12    28    25   ar
    13     5     4   ar
    14    27    24   ar
    15    17    16    1
    16    41    35    1
    17     3     4   ar
    18     3     9    1
    19    44    43    1
    20     4    12    1
    21    43    42    3
    22    16    12   ar
    23    16    15   ar
    24    35    36   ar
    25    35    34   ar
    26    42    36    1
    27     9    10    3
    28    36    37   ar
    29    12    13   ar
    30    34    25    1
    31    34    38   ar
    32    10    11    1
    33    25    23   ar
    34    24    15    1
    35    24    22   ar
    36    15    14   ar
    37    37    38   ar
    38    37    40    1
    39    38    39    1
    40    13    14   ar
    41    13    18    1
    42    14    19    1
    43    23    22   ar
    44    23    26    1
    45    22    30    1
    46    19    20    3
    47    20    21    1
