@<TRIPOS>MOLECULE
mol_data/opt/m06hf/geoms/mol2/13af13af13af-13af-.out
 38 41 0 0 0
SMALL
GASTEIGER

@<TRIPOS>ATOM
      1 C           1.3005    0.2197   -0.2927 C.ar    1  LIG1        0.0058
      2 C           0.7704    1.2397    0.4638 C.ar    1  LIG1       -0.0021
      3 C          -0.6255    0.9947    0.5441 C.ar    1  LIG1        0.1434
      4 C          -0.9023   -0.1553   -0.1603 C.ar    1  LIG1        0.1050
      5 N           0.2959   -0.6203   -0.6577 N.ar    1  LIG1       -0.3566
      6 H           0.3819   -1.4008   -1.2875 H       1  LIG1        0.1655
      7 H           2.3162    0.0371   -0.5972 H       1  LIG1        0.0808
      8 H           1.3008    2.0594    0.9155 H       1  LIG1        0.0669
      9 O          -1.5158    1.7657    1.2248 O.3     1  LIG1       -0.5046
     10 H          -2.3783    1.3309    1.2041 H       1  LIG1        0.2922
     11 C          -2.1907   -0.8187   -0.3454 C.ar    1  LIG1        0.0705
     12 C          -3.3908   -0.3055   -0.8013 C.ar    1  LIG1        0.0074
     13 C          -4.3331   -1.3634   -0.7239 C.ar    1  LIG1        0.1441
     14 C          -3.6966   -2.4828   -0.2324 C.ar    1  LIG1        0.1055
     15 N          -2.3978   -2.1259   -0.0001 N.ar    1  LIG1       -0.3488
     16 H          -1.7168   -2.6993    0.4729 H       1  LIG1        0.1661
     17 H          -3.5447    0.6918   -1.1813 H       1  LIG1        0.0676
     18 O          -5.6733   -1.3424   -1.0419 O.3     1  LIG1       -0.5046
     19 H          -5.7956   -0.9454   -1.9112 H       1  LIG1        0.2922
     20 C          -4.2410   -3.8087    0.0223 C.ar    1  LIG1        0.0705
     21 C          -3.6351   -5.0056    0.3630 C.ar    1  LIG1        0.0074
     22 C          -4.6748   -5.9621    0.4570 C.ar    1  LIG1        0.1441
     23 C          -5.8688   -5.3351    0.1691 C.ar    1  LIG1        0.1054
     24 N          -5.5808   -4.0165   -0.0831 N.ar    1  LIG1       -0.3488
     25 H          -6.2195   -3.3063   -0.4170 H       1  LIG1        0.1661
     26 H          -2.5872   -5.1930    0.5248 H       1  LIG1        0.0676
     27 O          -4.5056   -7.2703    0.7919 O.3     1  LIG1       -0.5046
     28 H          -5.3779   -7.6624    0.9311 H       1  LIG1        0.2922
     29 C          -7.2117   -5.9068    0.1727 C.ar    1  LIG1        0.0701
     30 C          -7.6698   -7.0872   -0.3843 C.ar    1  LIG1        0.0067
     31 C          -9.0456   -7.1933   -0.0343 C.ar    1  LIG1        0.1347
     32 C          -9.3841   -6.0908    0.7079 C.ar    1  LIG1        0.0442
     33 N          -8.2562   -5.3189    0.8214 N.ar    1  LIG1       -0.3564
     34 H          -8.1692   -4.4894    1.3863 H       1  LIG1        0.1655
     35 H         -10.3266   -5.8115    1.1425 H       1  LIG1        0.0844
     36 H          -7.0967   -7.7434   -1.0205 H       1  LIG1        0.0676
     37 O          -9.9310   -8.1726   -0.3881 O.3     1  LIG1       -0.5053
     38 H          -9.4494   -8.9575   -0.6653 H       1  LIG1        0.2922
@<TRIPOS>BOND
     1    19    18    1
     2     6     5    1
     3    17    12    1
     4    18    13    1
     5    36    30    1
     6    12    13   ar
     7    12    11   ar
     8    13    14   ar
     9    38    37    1
    10     5     1   ar
    11     5     4   ar
    12     7     1    1
    13    25    24    1
    14    37    31    1
    15    30    31   ar
    16    30    29   ar
    17    11     4    1
    18    11    15   ar
    19     1     2   ar
    20    14    15   ar
    21    14    20    1
    22     4     3   ar
    23    24    20   ar
    24    24    23   ar
    25    31    32   ar
    26    15    16    1
    27    20    21   ar
    28    23    29    1
    29    23    22   ar
    30    29    33   ar
    31    21    22   ar
    32    21    26    1
    33    22    27    1
    34     2     3   ar
    35     2     8    1
    36     3     9    1
    37    32    33   ar
    38    32    35    1
    39    27    28    1
    40    33    34    1
    41    10     9    1
