@<TRIPOS>MOLECULE
mol_data/opt/m06hf/geoms/mol2/13af13af-.out
 20 21 0 0 0
SMALL
GASTEIGER

@<TRIPOS>ATOM
      1 C           1.1834   -0.2312    0.1020 C.ar    1  LIG1        0.0058
      2 C           0.7130    1.0603    0.1155 C.ar    1  LIG1       -0.0021
      3 C          -0.7033    0.9651    0.0682 C.ar    1  LIG1        0.1434
      4 C          -1.0531   -0.3658    0.0287 C.ar    1  LIG1        0.1050
      5 N           0.1143   -1.0769    0.0573 N.ar    1  LIG1       -0.3566
      6 H           0.1648   -2.0819    0.0757 H       1  LIG1        0.1655
      7 H           2.1908   -0.6077    0.1299 H       1  LIG1        0.0808
      8 H           1.3008    1.9609    0.1634 H       1  LIG1        0.0669
      9 O          -1.6271    1.9910    0.1001 O.3     1  LIG1       -0.5046
     10 H          -1.4793    2.5773   -0.6503 H       1  LIG1        0.2922
     11 C          -2.3802   -0.9683   -0.0162 C.ar    1  LIG1        0.0700
     12 C          -2.8039   -2.2664   -0.2295 C.ar    1  LIG1        0.0067
     13 C          -4.2237   -2.2384   -0.1527 C.ar    1  LIG1        0.1347
     14 C          -4.6156   -0.9459    0.0944 C.ar    1  LIG1        0.0442
     15 N          -3.4802   -0.1890    0.1681 N.ar    1  LIG1       -0.3564
     16 H          -3.4132    0.8063    0.3310 H       1  LIG1        0.1655
     17 H          -5.6001   -0.5312    0.2117 H       1  LIG1        0.0844
     18 H          -2.1899   -3.1254   -0.4471 H       1  LIG1        0.0676
     19 O          -5.0866   -3.2907   -0.3371 O.3     1  LIG1       -0.5053
     20 H          -4.7898   -4.0349    0.1963 H       1  LIG1        0.2922
@<TRIPOS>BOND
     1    10     9    1
     2    18    12    1
     3    19    13    1
     4    19    20    1
     5    12    13   ar
     6    12    11   ar
     7    13    14   ar
     8    11     4    1
     9    11    15   ar
    10     4     5   ar
    11     4     3   ar
    12     5     6    1
    13     5     1   ar
    14     3     9    1
    15     3     2   ar
    16    14    15   ar
    17    14    17    1
    18     1     2   ar
    19     1     7    1
    20     2     8    1
    21    15    16    1
