@<TRIPOS>MOLECULE
mol_data/opt/m06hf/geoms/mol2/13af13af.out
 20 21 0 0 0
SMALL
GASTEIGER

@<TRIPOS>ATOM
      1 C           1.2070   -0.2151   -0.3681 C.ar    1  LIG1        0.0058
      2 C           0.8055    0.9866    0.1679 C.ar    1  LIG1       -0.0021
      3 C          -0.6005    0.8968    0.3455 C.ar    1  LIG1        0.1434
      4 C          -1.0102   -0.3450   -0.0830 C.ar    1  LIG1        0.1050
      5 N           0.1160   -1.0152   -0.5089 N.ar    1  LIG1       -0.3566
      6 H           0.0985   -1.9115   -0.9666 H       1  LIG1        0.1655
      7 H           2.1860   -0.5513   -0.6620 H       1  LIG1        0.0808
      8 H           1.4273    1.8291    0.4143 H       1  LIG1        0.0669
      9 O          -1.3840    1.8748    0.8739 O.3     1  LIG1       -0.5046
     10 H          -2.2909    1.5455    0.9286 H       1  LIG1        0.2922
     11 C          -2.3585   -0.9110   -0.0765 C.ar    1  LIG1        0.0700
     12 C          -3.5321   -0.4063   -0.6000 C.ar    1  LIG1        0.0067
     13 C          -4.5595   -1.3269   -0.2592 C.ar    1  LIG1        0.1347
     14 C          -3.9923   -2.3589    0.4487 C.ar    1  LIG1        0.0442
     15 N          -2.6501   -2.0884    0.5490 N.ar    1  LIG1       -0.3564
     16 H          -1.9877   -2.6072    1.1021 H       1  LIG1        0.1655
     17 H          -4.4297   -3.2442    0.8761 H       1  LIG1        0.0844
     18 H          -3.6346    0.4828   -1.1994 H       1  LIG1        0.0676
     19 O          -5.8640   -1.1586   -0.6245 O.3     1  LIG1       -0.5053
     20 H          -6.3855   -1.9186   -0.3489 H       1  LIG1        0.2922
@<TRIPOS>BOND
     1    18    12    1
     2     6     5    1
     3     7     1    1
     4    19    20    1
     5    19    13    1
     6    12    13   ar
     7    12    11   ar
     8     5     1   ar
     9     5     4   ar
    10     1     2   ar
    11    13    14   ar
    12     4    11    1
    13     4     3   ar
    14    11    15   ar
    15     2     3   ar
    16     2     8    1
    17     3     9    1
    18    14    15   ar
    19    14    17    1
    20    15    16    1
    21     9    10    1
