@<TRIPOS>MOLECULE
mol_data/opt/m06hf/geoms/mol2/13af13af-13af.out
 29 31 0 0 0
SMALL
GASTEIGER

@<TRIPOS>ATOM
      1 C           1.2541   -0.2856   -0.0060 C.ar    1  LIG1        0.0058
      2 C           0.8043    1.0154   -0.0066 C.ar    1  LIG1       -0.0021
      3 C          -0.6130    0.9431   -0.0045 C.ar    1  LIG1        0.1434
      4 C          -0.9857   -0.3816   -0.0027 C.ar    1  LIG1        0.1050
      5 N           0.1743   -1.1122   -0.0037 N.ar    1  LIG1       -0.3566
      6 H           0.2123   -2.1179   -0.0029 H       1  LIG1        0.1655
      7 H           2.2566   -0.6753   -0.0071 H       1  LIG1        0.0808
      8 H           1.4125    1.9050   -0.0083 H       1  LIG1        0.0669
      9 O          -1.5320    1.9627   -0.0042 O.3     1  LIG1       -0.5046
     10 H          -1.0863    2.8145   -0.0056 H       1  LIG1        0.2922
     11 C          -2.3225   -0.9572   -0.0003 C.ar    1  LIG1        0.0705
     12 C          -2.7650   -2.2701    0.0018 C.ar    1  LIG1        0.0074
     13 C          -4.1795   -2.2050    0.0038 C.ar    1  LIG1        0.1441
     14 C          -4.5629   -0.8816    0.0028 C.ar    1  LIG1        0.1054
     15 N          -3.4115   -0.1432    0.0003 N.ar    1  LIG1       -0.3488
     16 H          -3.3420    0.8661   -0.0009 H       1  LIG1        0.1661
     17 H          -2.1583   -3.1617    0.0019 H       1  LIG1        0.0676
     18 O          -5.0897   -3.2348    0.0060 O.3     1  LIG1       -0.5046
     19 H          -4.6342   -4.0814    0.0096 H       1  LIG1        0.2922
     20 C          -5.9029   -0.3119    0.0043 C.ar    1  LIG1        0.0701
     21 C          -6.3477    0.9965    0.0036 C.ar    1  LIG1        0.0067
     22 C          -7.7645    0.9346    0.0061 C.ar    1  LIG1        0.1347
     23 C          -8.1406   -0.3873    0.0082 C.ar    1  LIG1        0.0442
     24 N          -6.9887   -1.1310    0.0071 N.ar    1  LIG1       -0.3564
     25 H          -6.9111   -2.1382    0.0082 H       1  LIG1        0.1655
     26 H          -9.1143   -0.8440    0.0104 H       1  LIG1        0.0844
     27 H          -5.7564    1.8963    0.0016 H       1  LIG1        0.0676
     28 O          -8.5613    2.0470    0.0062 O.3     1  LIG1       -0.5053
     29 H          -9.4862    1.7815    0.0091 H       1  LIG1        0.2922
@<TRIPOS>BOND
     1     8     2    1
     2     7     1    1
     3     2     1   ar
     4     2     3   ar
     5     1     5   ar
     6    10     9    1
     7     3     9    1
     8     3     4   ar
     9     5     6    1
    10     5     4   ar
    11     4    11    1
    12    16    15    1
    13    11    15   ar
    14    11    12   ar
    15    15    14   ar
    16    27    21    1
    17    12    17    1
    18    12    13   ar
    19    14    13   ar
    20    14    20    1
    21    21    20   ar
    22    21    22   ar
    23    13    18    1
    24    20    24   ar
    25    18    19    1
    26    22    28    1
    27    22    23   ar
    28    28    29    1
    29    24    25    1
    30    24    23   ar
    31    23    26    1
