@<TRIPOS>MOLECULE
mol_data/opt/m06hf/geoms/mol2/13af13af13af13af.out
 38 41 0 0 0
SMALL
GASTEIGER

@<TRIPOS>ATOM
      1 C           0.7594    0.9127   -1.4239 C.ar    1  LIG1        0.0058
      2 C           0.8976    1.2533   -0.0979 C.ar    1  LIG1       -0.0021
      3 C          -0.2378    0.7254    0.5715 C.ar    1  LIG1        0.1434
      4 C          -1.0258    0.0847   -0.3571 C.ar    1  LIG1        0.1050
      5 N          -0.3910    0.2038   -1.5743 N.ar    1  LIG1       -0.3566
      6 H          -0.7915   -0.0874   -2.4508 H       1  LIG1        0.1655
      7 H           1.3924    1.1306   -2.2661 H       1  LIG1        0.0808
      8 H           1.7034    1.8059    0.3521 H       1  LIG1        0.0669
      9 O          -0.4731    0.8257    1.9073 O.3     1  LIG1       -0.5046
     10 H          -1.3052    0.3770    2.1061 H       1  LIG1        0.2922
     11 C          -2.2778   -0.6390   -0.1391 C.ar    1  LIG1        0.0705
     12 C          -3.4556   -0.2124    0.4489 C.ar    1  LIG1        0.0074
     13 C          -4.3314   -1.3282    0.4604 C.ar    1  LIG1        0.1441
     14 C          -3.6779   -2.3940   -0.1192 C.ar    1  LIG1        0.1055
     15 N          -2.4227   -1.9540   -0.4708 N.ar    1  LIG1       -0.3488
     16 H          -1.7094   -2.5170   -0.9062 H       1  LIG1        0.1661
     17 H          -3.6720    0.7874    0.7852 H       1  LIG1        0.0676
     18 O          -5.5929   -1.3246    0.9645 O.3     1  LIG1       -0.5046
     19 H          -5.9586   -2.2161    0.8892 H       1  LIG1        0.2922
     20 C          -4.1653   -3.7586   -0.3117 C.ar    1  LIG1        0.0705
     21 C          -5.3341   -4.2028   -0.9043 C.ar    1  LIG1        0.0074
     22 C          -5.3368   -5.6165   -0.7848 C.ar    1  LIG1        0.1441
     23 C          -4.1826   -5.9962   -0.1355 C.ar    1  LIG1        0.1054
     24 N          -3.4844   -4.8456    0.1515 N.ar    1  LIG1       -0.3488
     25 H          -2.6036   -4.8104    0.6392 H       1  LIG1        0.1661
     26 H          -6.0671   -3.5926   -1.4048 H       1  LIG1        0.0676
     27 O          -6.3185   -6.4352   -1.2424 O.3     1  LIG1       -0.5046
     28 H          -6.0964   -7.3466   -1.0093 H       1  LIG1        0.2922
     29 C          -3.7456   -7.3465    0.2163 C.ar    1  LIG1        0.0701
     30 C          -3.6206   -8.4660   -0.5821 C.ar    1  LIG1        0.0067
     31 C          -3.2191   -9.5303    0.2692 C.ar    1  LIG1        0.1347
     32 C          -3.1068   -9.0367    1.5469 C.ar    1  LIG1        0.0442
     33 N          -3.4304   -7.7038    1.4951 N.ar    1  LIG1       -0.3564
     34 H          -3.5473   -7.1020    2.2941 H       1  LIG1        0.1655
     35 H          -2.8282   -9.5199    2.4668 H       1  LIG1        0.0844
     36 H          -3.7468   -8.5077   -1.6511 H       1  LIG1        0.0676
     37 O          -2.9876  -10.7968   -0.1809 O.3     1  LIG1       -0.5053
     38 H          -2.6528  -11.3479    0.5335 H       1  LIG1        0.2922
@<TRIPOS>BOND
     1     6     5    1
     2     7     1    1
     3    36    30    1
     4     5     1   ar
     5     5     4   ar
     6     1     2   ar
     7    26    21    1
     8    27    28    1
     9    27    22    1
    10    16    15    1
    11    21    22   ar
    12    21    20   ar
    13    22    23   ar
    14    30    29   ar
    15    30    31   ar
    16    15    11   ar
    17    15    14   ar
    18     4    11    1
    19     4     3   ar
    20    20    14    1
    21    20    24   ar
    22    37    31    1
    23    37    38    1
    24    11    12   ar
    25    23    24   ar
    26    23    29    1
    27    14    13   ar
    28     2     8    1
    29     2     3   ar
    30    24    25    1
    31    29    33   ar
    32    31    32   ar
    33    12    13   ar
    34    12    17    1
    35    13    18    1
    36     3     9    1
    37    19    18    1
    38    33    32   ar
    39    33    34    1
    40    32    35    1
    41     9    10    1
