@<TRIPOS>MOLECULE
mol_data/opt/m06hf/geoms/mol2/13af13af-13af-13af.out
 38 41 0 0 0
SMALL
GASTEIGER

@<TRIPOS>ATOM
      1 C           1.4368   -0.4747    0.1081 C.ar    1  LIG1        0.0058
      2 C           1.0647    0.6710   -0.5559 C.ar    1  LIG1       -0.0021
      3 C          -0.3531    0.6423   -0.6265 C.ar    1  LIG1        0.1434
      4 C          -0.8005   -0.5037   -0.0083 C.ar    1  LIG1        0.1050
      5 N           0.3101   -1.1658    0.4381 N.ar    1  LIG1       -0.3566
      6 H           0.2863   -2.0328    0.9491 H       1  LIG1        0.1655
      7 H           2.4132   -0.8384    0.3755 H       1  LIG1        0.0808
      8 H           1.7191    1.4373   -0.9354 H       1  LIG1        0.0669
      9 O          -1.2028    1.5838   -1.1692 O.3     1  LIG1       -0.5046
     10 H          -0.8950    1.8236   -2.0498 H       1  LIG1        0.2922
     11 C          -2.1667   -0.9717    0.1805 C.ar    1  LIG1        0.0705
     12 C          -2.6784   -2.1582    0.6777 C.ar    1  LIG1        0.0074
     13 C          -4.0875   -2.0421    0.6066 C.ar    1  LIG1        0.1441
     14 C          -4.3948   -0.8096    0.0697 C.ar    1  LIG1        0.1055
     15 N          -3.2043   -0.1686   -0.1742 N.ar    1  LIG1       -0.3488
     16 H          -3.0719    0.7244   -0.6305 H       1  LIG1        0.1661
     17 H          -2.1325   -3.0089    1.0478 H       1  LIG1        0.0676
     18 O          -4.9722   -2.9899    1.0215 O.3     1  LIG1       -0.5046
     19 H          -5.8529   -2.5929    1.0517 H       1  LIG1        0.2922
     20 C          -5.7133   -0.2347   -0.1665 C.ar    1  LIG1        0.0705
     21 C          -6.8399   -0.8157   -0.7205 C.ar    1  LIG1        0.0074
     22 C          -7.8630    0.1661   -0.6632 C.ar    1  LIG1        0.1441
     23 C          -7.3474    1.3066   -0.0885 C.ar    1  LIG1        0.1054
     24 N          -6.0407    1.0353    0.2158 N.ar    1  LIG1       -0.3488
     25 H          -5.4310    1.6448    0.7385 H       1  LIG1        0.1661
     26 H          -6.8895   -1.8002   -1.1579 H       1  LIG1        0.0676
     27 O          -9.1739    0.0601   -1.0714 O.3     1  LIG1       -0.5046
     28 H          -9.2140   -0.4039   -1.9144 H       1  LIG1        0.2922
     29 C          -8.0011    2.5810    0.1784 C.ar    1  LIG1        0.0701
     30 C          -7.5187    3.7789    0.6707 C.ar    1  LIG1        0.0067
     31 C          -8.6242    4.6664    0.7081 C.ar    1  LIG1        0.1347
     32 C          -9.7318    3.9967    0.2430 C.ar    1  LIG1        0.0442
     33 N          -9.3288    2.7263   -0.0736 N.ar    1  LIG1       -0.3564
     34 H          -9.8958    1.9785   -0.4472 H       1  LIG1        0.1655
     35 H         -10.7506    4.3190    0.1179 H       1  LIG1        0.0844
     36 H          -6.5107    4.0181    0.9641 H       1  LIG1        0.0676
     37 O          -8.5293    5.9587    1.1442 O.3     1  LIG1       -0.5053
     38 H          -9.3789    6.3995    1.0451 H       1  LIG1        0.2922
@<TRIPOS>BOND
     1    10     9    1
     2    28    27    1
     3     9     3    1
     4    26    21    1
     5    27    22    1
     6     8     2    1
     7    21    22   ar
     8    21    20   ar
     9    22    23   ar
    10    16    15    1
    11     3     2   ar
    12     3     4   ar
    13     2     1   ar
    14    34    33    1
    15    15    14   ar
    16    15    11   ar
    17    20    14    1
    18    20    24   ar
    19    23    29    1
    20    23    24   ar
    21    33    29   ar
    22    33    32   ar
    23     4    11    1
    24     4     5   ar
    25    14    13   ar
    26     1     7    1
    27     1     5   ar
    28    35    32    1
    29    29    30   ar
    30    11    12   ar
    31    24    25    1
    32    32    31   ar
    33     5     6    1
    34    13    12   ar
    35    13    18    1
    36    30    31   ar
    37    30    36    1
    38    12    17    1
    39    31    37    1
    40    18    19    1
    41    38    37    1
