@<TRIPOS>MOLECULE
mol_data/opt/m06hf/geoms/mol2/13af13af13af13af-.out
 38 41 0 0 0
SMALL
GASTEIGER

@<TRIPOS>ATOM
      1 C           0.8001    0.8484   -1.2768 C.ar    1  LIG1        0.0058
      2 C           0.8368    1.2569    0.0365 C.ar    1  LIG1       -0.0021
      3 C          -0.3402    0.7491    0.6471 C.ar    1  LIG1        0.1434
      4 C          -1.0520    0.0528   -0.3030 C.ar    1  LIG1        0.1050
      5 N          -0.3295    0.1179   -1.4750 N.ar    1  LIG1       -0.3566
      6 H          -0.6624   -0.2186   -2.3633 H       1  LIG1        0.1655
      7 H           1.4921    1.0317   -2.0800 H       1  LIG1        0.0808
      8 H           1.6025    1.8406    0.5161 H       1  LIG1        0.0669
      9 O          -0.6728    0.9142    1.9551 O.3     1  LIG1       -0.5046
     10 H          -1.5043    0.4518    2.1221 H       1  LIG1        0.2922
     11 C          -2.3110   -0.6721   -0.1399 C.ar    1  LIG1        0.0705
     12 C          -3.5235   -0.2329    0.3619 C.ar    1  LIG1        0.0074
     13 C          -4.3929   -1.3535    0.3624 C.ar    1  LIG1        0.1441
     14 C          -3.7023   -2.4345   -0.1419 C.ar    1  LIG1        0.1055
     15 N          -2.4302   -1.9985   -0.4342 N.ar    1  LIG1       -0.3488
     16 H          -1.6873   -2.5736   -0.7989 H       1  LIG1        0.1661
     17 H          -3.7638    0.7762    0.6506 H       1  LIG1        0.0676
     18 O          -5.6823   -1.3410    0.7910 O.3     1  LIG1       -0.5046
     19 H          -6.0088   -2.2502    0.8190 H       1  LIG1        0.2922
     20 C          -4.1761   -3.8026   -0.3294 C.ar    1  LIG1        0.0705
     21 C          -5.3325   -4.2591   -0.9334 C.ar    1  LIG1        0.0074
     22 C          -5.3244   -5.6717   -0.7957 C.ar    1  LIG1        0.1441
     23 C          -4.1786   -6.0412   -0.1253 C.ar    1  LIG1        0.1054
     24 N          -3.5002   -4.8878    0.1583 N.ar    1  LIG1       -0.3488
     25 H          -2.6908   -4.8302    0.7560 H       1  LIG1        0.1661
     26 H          -6.0576   -3.6476   -1.4462 H       1  LIG1        0.0676
     27 O          -6.2752   -6.5774   -1.2065 O.3     1  LIG1       -0.5046
     28 H          -6.5486   -6.3784   -2.1083 H       1  LIG1        0.2922
     29 C          -3.7192   -7.3718    0.2494 C.ar    1  LIG1        0.0701
     30 C          -2.5149   -7.8210    0.7621 C.ar    1  LIG1        0.0067
     31 C          -2.6518   -9.2254    0.9259 C.ar    1  LIG1        0.1347
     32 C          -3.9112   -9.5852    0.5119 C.ar    1  LIG1        0.0442
     33 N          -4.5424   -8.4421    0.1042 N.ar    1  LIG1       -0.3564
     34 H          -5.4744   -8.3629   -0.2783 H       1  LIG1        0.1655
     35 H          -4.3808  -10.5509    0.4832 H       1  LIG1        0.0844
     36 H          -1.6394   -7.2283    0.9750 H       1  LIG1        0.0676
     37 O          -1.7221  -10.1119    1.3939 O.3     1  LIG1       -0.5053
     38 H          -0.9645   -9.6316    1.7399 H       1  LIG1        0.2922
@<TRIPOS>BOND
     1     6     5    1
     2    28    27    1
     3     7     1    1
     4     5     1   ar
     5     5     4   ar
     6    26    21    1
     7     1     2   ar
     8    27    22    1
     9    21    22   ar
    10    21    20   ar
    11    16    15    1
    12    22    23   ar
    13    15    14   ar
    14    15    11   ar
    15    20    14    1
    16    20    24   ar
    17     4    11    1
    18     4     3   ar
    19    34    33    1
    20    14    13   ar
    21    11    12   ar
    22    23    24   ar
    23    23    29    1
    24     2     8    1
    25     2     3   ar
    26    33    29   ar
    27    33    32   ar
    28    24    25    1
    29    29    30   ar
    30    12    13   ar
    31    12    17    1
    32    13    18    1
    33    35    32    1
    34    32    31   ar
    35     3     9    1
    36    30    31   ar
    37    30    36    1
    38    18    19    1
    39    31    37    1
    40    37    38    1
    41     9    10    1
