@<TRIPOS>MOLECULE
mol_data/opt/m06hf/geoms/mol2/13af13af-13af13af-.out
 38 41 0 0 0
SMALL
GASTEIGER

@<TRIPOS>ATOM
      1 C           1.2992   -0.2573    0.0887 C.ar    1  LIG1        0.0058
      2 C           0.8516    1.0422    0.0153 C.ar    1  LIG1       -0.0021
      3 C          -0.5648    0.9693   -0.0345 C.ar    1  LIG1        0.1434
      4 C          -0.9384   -0.3550    0.0076 C.ar    1  LIG1        0.1050
      5 N           0.2197   -1.0840    0.0855 N.ar    1  LIG1       -0.3566
      6 H           0.2547   -2.0879    0.1500 H       1  LIG1        0.1655
      7 H           2.3011   -0.6443    0.1446 H       1  LIG1        0.0808
      8 H           1.4613    1.9303    0.0011 H       1  LIG1        0.0669
      9 O          -1.4815    1.9894   -0.1039 O.3     1  LIG1       -0.5046
     10 H          -1.0332    2.8283   -0.2450 H       1  LIG1        0.2922
     11 C          -2.2738   -0.9322   -0.0119 C.ar    1  LIG1        0.0705
     12 C          -2.7117   -2.2461   -0.0307 C.ar    1  LIG1        0.0074
     13 C          -4.1261   -2.1868   -0.0365 C.ar    1  LIG1        0.1441
     14 C          -4.5138   -0.8638   -0.0233 C.ar    1  LIG1        0.1055
     15 N          -3.3643   -0.1213   -0.0078 N.ar    1  LIG1       -0.3488
     16 H          -3.2937    0.8874   -0.0055 H       1  LIG1        0.1661
     17 H          -2.1017   -3.1347   -0.0452 H       1  LIG1        0.0676
     18 O          -5.0301   -3.2208   -0.0514 O.3     1  LIG1       -0.5046
     19 H          -4.5679   -4.0636   -0.0677 H       1  LIG1        0.2922
     20 C          -5.8550   -0.3039   -0.0145 C.ar    1  LIG1        0.0705
     21 C          -6.3069    1.0050    0.0116 C.ar    1  LIG1        0.0074
     22 C          -7.7210    0.9294    0.0198 C.ar    1  LIG1        0.1441
     23 C          -8.0950   -0.3969   -0.0022 C.ar    1  LIG1        0.1054
     24 N          -6.9380   -1.1266   -0.0258 N.ar    1  LIG1       -0.3488
     25 H          -6.8616   -2.1347   -0.0437 H       1  LIG1        0.1661
     26 H          -5.7031    1.8979    0.0222 H       1  LIG1        0.0676
     27 O          -8.6372    1.9540    0.0367 O.3     1  LIG1       -0.5046
     28 H          -8.1907    2.7903    0.1962 H       1  LIG1        0.2922
     29 C          -9.4296   -0.9771   -0.0002 C.ar    1  LIG1        0.0701
     30 C          -9.8599   -2.2916   -0.0262 C.ar    1  LIG1        0.0067
     31 C         -11.2797   -2.2466   -0.0033 C.ar    1  LIG1        0.1347
     32 C         -11.6686   -0.9309    0.0356 C.ar    1  LIG1        0.0442
     33 N         -10.5258   -0.1752    0.0364 N.ar    1  LIG1       -0.3564
     34 H         -10.4595    0.8324    0.0600 H       1  LIG1        0.1655
     35 H         -12.6525   -0.5008    0.0610 H       1  LIG1        0.0844
     36 H          -9.2402   -3.1734   -0.0592 H       1  LIG1        0.0676
     37 O         -12.1514   -3.3029   -0.0174 O.3     1  LIG1       -0.5053
     38 H         -11.6510   -4.1236   -0.0210 H       1  LIG1        0.2922
@<TRIPOS>BOND
     1    10     9    1
     2     9     3    1
     3    19    18    1
     4    36    30    1
     5    18    13    1
     6    17    12    1
     7    25    24    1
     8    13    12   ar
     9    13    14   ar
    10     3     4   ar
    11     3     2   ar
    12    12    11   ar
    13    30    31   ar
    14    30    29   ar
    15    24    20   ar
    16    24    23   ar
    17    14    20    1
    18    14    15   ar
    19    38    37    1
    20    37    31    1
    21    20    21   ar
    22    11    15   ar
    23    11     4    1
    24    15    16    1
    25    31    32   ar
    26    23    29    1
    27    23    22   ar
    28    29    33   ar
    29     8     2    1
    30     4     5   ar
    31    21    22   ar
    32    21    26    1
    33     2     1   ar
    34    22    27    1
    35    32    33   ar
    36    32    35    1
    37    33    34    1
    38    27    28    1
    39     5     1   ar
    40     5     6    1
    41     1     7    1
