@<TRIPOS>MOLECULE
mol_data/opt/m06hf/geoms/mol2/13af13af-13af-13af-.out
 38 41 0 0 0
SMALL
GASTEIGER

@<TRIPOS>ATOM
      1 C           1.4121   -0.3892    0.2900 C.ar    1  LIG1        0.0058
      2 C           1.0470    0.7566   -0.3775 C.ar    1  LIG1       -0.0021
      3 C          -0.3651    0.6985   -0.5156 C.ar    1  LIG1        0.1434
      4 C          -0.8160   -0.4648    0.0666 C.ar    1  LIG1        0.1050
      5 N           0.2863   -1.1083    0.5579 N.ar    1  LIG1       -0.3566
      6 H           0.2571   -1.9814    1.0583 H       1  LIG1        0.1655
      7 H           2.3822   -0.7356    0.5999 H       1  LIG1        0.0808
      8 H           1.7015    1.5414   -0.7166 H       1  LIG1        0.0669
      9 O          -1.2073    1.6308   -1.0882 O.3     1  LIG1       -0.5046
     10 H          -0.8863    1.8513   -1.9694 H       1  LIG1        0.2922
     11 C          -2.1798   -0.9626    0.1864 C.ar    1  LIG1        0.0705
     12 C          -2.6907   -2.1738    0.6203 C.ar    1  LIG1        0.0074
     13 C          -4.0979   -2.0772    0.4964 C.ar    1  LIG1        0.1441
     14 C          -4.4043   -0.8313   -0.0099 C.ar    1  LIG1        0.1055
     15 N          -3.2161   -0.1632   -0.1804 N.ar    1  LIG1       -0.3488
     16 H          -3.0800    0.7434   -0.6072 H       1  LIG1        0.1661
     17 H          -2.1458   -3.0294    0.9805 H       1  LIG1        0.0676
     18 O          -4.9819   -3.0522    0.8426 O.3     1  LIG1       -0.5046
     19 H          -5.8693   -2.6692    0.8587 H       1  LIG1        0.2922
     20 C          -5.7204   -0.2588   -0.2621 C.ar    1  LIG1        0.0705
     21 C          -6.8391   -0.8333   -0.8349 C.ar    1  LIG1        0.0074
     22 C          -7.8791    0.1362   -0.7590 C.ar    1  LIG1        0.1441
     23 C          -7.3745    1.2648   -0.1567 C.ar    1  LIG1        0.1054
     24 N          -6.0562    1.0021    0.1427 N.ar    1  LIG1       -0.3488
     25 H          -5.4968    1.5538    0.7754 H       1  LIG1        0.1661
     26 H          -6.8769   -1.8040   -1.3036 H       1  LIG1        0.0676
     27 O          -9.1733    0.0167   -1.1808 O.3     1  LIG1       -0.5046
     28 H          -9.2011   -0.4778   -2.0065 H       1  LIG1        0.2922
     29 C          -8.0085    2.5460    0.1333 C.ar    1  LIG1        0.0701
     30 C          -9.2981    2.8343    0.5236 C.ar    1  LIG1        0.0067
     31 C          -9.3727    4.2484    0.6581 C.ar    1  LIG1        0.1347
     32 C          -8.1434    4.7757    0.3552 C.ar    1  LIG1        0.0442
     33 N          -7.3201    3.7220    0.0439 N.ar    1  LIG1       -0.3564
     34 H          -6.3910    3.8070   -0.3329 H       1  LIG1        0.1655
     35 H          -7.8116    5.7977    0.3428 H       1  LIG1        0.0844
     36 H         -10.0737    2.1064    0.6967 H       1  LIG1        0.0676
     37 O         -10.4485    5.0004    1.0385 O.3     1  LIG1       -0.5053
     38 H         -11.2182    4.4315    1.1326 H       1  LIG1        0.2922
@<TRIPOS>BOND
     1    28    27    1
     2    10     9    1
     3    26    21    1
     4    27    22    1
     5     9     3    1
     6    21    22   ar
     7    21    20   ar
     8    22    23   ar
     9     8     2    1
    10    16    15    1
    11     3     2   ar
    12     3     4   ar
    13     2     1   ar
    14    34    33    1
    15    20    14    1
    16    20    24   ar
    17    15    14   ar
    18    15    11   ar
    19    23    29    1
    20    23    24   ar
    21    14    13   ar
    22    33    29   ar
    23    33    32   ar
    24     4    11    1
    25     4     5   ar
    26    29    30   ar
    27    24    25    1
    28    11    12   ar
    29     1     5   ar
    30     1     7    1
    31    35    32    1
    32    32    31   ar
    33    13    12   ar
    34    13    18    1
    35    30    31   ar
    36    30    36    1
    37     5     6    1
    38    12    17    1
    39    31    37    1
    40    18    19    1
    41    37    38    1
