@<TRIPOS>MOLECULE
mol_data/opt/m06hf/geoms/mol2/13af13af13af-13af.out
 38 41 0 0 0
SMALL
GASTEIGER

@<TRIPOS>ATOM
      1 C           1.2804    0.1658   -0.3930 C.ar    1  LIG1        0.0058
      2 C           0.8084    1.1534    0.4407 C.ar    1  LIG1       -0.0021
      3 C          -0.5839    0.9204    0.5899 C.ar    1  LIG1        0.1434
      4 C          -0.9166   -0.1910   -0.1513 C.ar    1  LIG1        0.1050
      5 N           0.2448   -0.6452   -0.7382 N.ar    1  LIG1       -0.3566
      6 H           0.2822   -1.3888   -1.4158 H       1  LIG1        0.1655
      7 H           2.2743   -0.0128   -0.7645 H       1  LIG1        0.0808
      8 H           1.3749    1.9441    0.9000 H       1  LIG1        0.0669
      9 O          -1.4233    1.6694    1.3547 O.3     1  LIG1       -0.5046
     10 H          -2.2824    1.2288    1.3925 H       1  LIG1        0.2922
     11 C          -2.2218   -0.8299   -0.2951 C.ar    1  LIG1        0.0705
     12 C          -3.4454   -0.2765   -0.6214 C.ar    1  LIG1        0.0074
     13 C          -4.3910   -1.3332   -0.5625 C.ar    1  LIG1        0.1441
     14 C          -3.7330   -2.4919   -0.2114 C.ar    1  LIG1        0.1055
     15 N          -2.4164   -2.1611   -0.0448 N.ar    1  LIG1       -0.3488
     16 H          -1.7106   -2.7705    0.3372 H       1  LIG1        0.1661
     17 H          -3.6170    0.7488   -0.9069 H       1  LIG1        0.0676
     18 O          -5.7495   -1.2779   -0.7787 O.3     1  LIG1       -0.5046
     19 H          -5.9298   -0.8378   -1.6168 H       1  LIG1        0.2922
     20 C          -4.2711   -3.8320   -0.0315 C.ar    1  LIG1        0.0705
     21 C          -3.6585   -5.0560    0.1656 C.ar    1  LIG1        0.0074
     22 C          -4.7063   -6.0049    0.2620 C.ar    1  LIG1        0.1441
     23 C          -5.9114   -5.3488    0.1185 C.ar    1  LIG1        0.1054
     24 N          -5.6199   -4.0296   -0.0628 N.ar    1  LIG1       -0.3488
     25 H          -6.2768   -3.2800   -0.2382 H       1  LIG1        0.1661
     26 H          -2.6012   -5.2599    0.2090 H       1  LIG1        0.0676
     27 O          -4.5966   -7.3724    0.4214 O.3     1  LIG1       -0.5046
     28 H          -4.1868   -7.5615    1.2733 H       1  LIG1        0.2922
     29 C          -7.2628   -5.8929    0.1334 C.ar    1  LIG1        0.0701
     30 C          -8.5011   -5.2817    0.1737 C.ar    1  LIG1        0.0067
     31 C          -9.4594   -6.3267    0.1632 C.ar    1  LIG1        0.1347
     32 C          -8.7898   -7.5276    0.1204 C.ar    1  LIG1        0.0442
     33 N          -7.4508   -7.2391    0.1014 N.ar    1  LIG1       -0.3564
     34 H          -6.6796   -7.8911    0.0732 H       1  LIG1        0.1655
     35 H          -9.1569   -8.5386    0.1022 H       1  LIG1        0.0844
     36 H          -8.7169   -4.2281    0.2230 H       1  LIG1        0.0676
     37 O         -10.8080   -6.1031    0.1975 O.3     1  LIG1       -0.5053
     38 H         -11.2780   -6.9423    0.1694 H       1  LIG1        0.2922
@<TRIPOS>BOND
     1    19    18    1
     2     6     5    1
     3    17    12    1
     4    18    13    1
     5     7     1    1
     6     5     1   ar
     7     5     4   ar
     8    12    13   ar
     9    12    11   ar
    10    13    14   ar
    11     1     2   ar
    12    11     4    1
    13    11    15   ar
    14    25    24    1
    15    14    15   ar
    16    14    20    1
    17     4     3   ar
    18    24    20   ar
    19    24    23   ar
    20    15    16    1
    21    20    21   ar
    22    34    33    1
    23    33    32   ar
    24    33    29   ar
    25    35    32    1
    26    23    29    1
    27    23    22   ar
    28    32    31   ar
    29    29    30   ar
    30    31    30   ar
    31    31    37    1
    32    21    26    1
    33    21    22   ar
    34    38    37    1
    35    30    36    1
    36    22    27    1
    37    27    28    1
    38     2     3   ar
    39     2     8    1
    40     3     9    1
    41     9    10    1
