@<TRIPOS>MOLECULE
mol_data/opt/m06hf/geoms/mol2/13af13af-4af13af.out
 40 43 0 0 0
SMALL
GASTEIGER

@<TRIPOS>ATOM
      1 C           1.3203   -0.2241   -0.2960 C.ar    1  LIG1        0.0058
      2 C           0.8397    1.0647   -0.2819 C.ar    1  LIG1       -0.0021
      3 C          -0.5693    0.9580   -0.1443 C.ar    1  LIG1        0.1434
      4 C          -0.9046   -0.3759   -0.0805 C.ar    1  LIG1        0.1050
      5 N           0.2658   -1.0782   -0.1827 N.ar    1  LIG1       -0.3566
      6 H           0.3270   -2.0826   -0.2038 H       1  LIG1        0.1655
      7 H           2.3272   -0.5913   -0.3890 H       1  LIG1        0.0808
      8 H           1.4188    1.9683   -0.3693 H       1  LIG1        0.0669
      9 O          -1.5081    1.9651   -0.1221 O.3     1  LIG1       -0.5046
     10 H          -1.2096    2.6763    0.4545 H       1  LIG1        0.2922
     11 C          -2.2200   -0.9853    0.0555 C.ar    1  LIG1        0.0705
     12 C          -2.6177   -2.2986    0.2397 C.ar    1  LIG1        0.0074
     13 C          -4.0335   -2.2804    0.2735 C.ar    1  LIG1        0.1426
     14 C          -4.4650   -0.9765    0.1197 C.ar    1  LIG1        0.0891
     15 N          -3.3331   -0.2132   -0.0156 N.ar    1  LIG1       -0.3500
     16 H          -3.2934    0.7796   -0.2045 H       1  LIG1        0.1661
     17 H          -1.9823   -3.1638    0.3418 H       1  LIG1        0.0676
     18 O          -4.8756   -3.3514    0.4190 O.3     1  LIG1       -0.5046
     19 H          -4.4363   -4.0387    0.9297 H       1  LIG1        0.2922
     20 C          -6.0476    0.9403    0.3905 C.ar    1  LIG1       -0.0517
     21 C          -7.3361    1.4498    0.3529 C.ar    1  LIG1       -0.0485
     22 C          -5.8175   -0.4104    0.1065 C.ar    1  LIG1        0.0054
     23 C          -8.4437    0.6561    0.0391 C.ar    1  LIG1        0.0398
     24 H          -7.4991    2.4920    0.5914 H       1  LIG1        0.0625
     25 C          -6.9106   -1.2249   -0.1935 C.ar    1  LIG1       -0.0103
     26 C          -8.1957   -0.7002   -0.2179 C.ar    1  LIG1        0.1266
     27 H          -6.7474   -2.2749   -0.4076 H       1  LIG1        0.0661
     28 H          -5.2290    1.5892    0.6735 H       1  LIG1        0.0624
     29 O          -9.2639   -1.5121   -0.5100 O.3     1  LIG1       -0.5061
     30 H          -8.9605   -2.4093   -0.6821 H       1  LIG1        0.2922
     31 C          -9.7879    1.2596   -0.0086 C.ar    1  LIG1        0.0535
     32 C         -10.1481    2.5971    0.0296 C.ar    1  LIG1        0.0053
     33 C         -11.5595    2.6417   -0.0304 C.ar    1  LIG1        0.1347
     34 C         -12.0255    1.3486   -0.1072 C.ar    1  LIG1        0.0441
     35 N         -10.9338    0.5277   -0.0919 N.ar    1  LIG1       -0.3575
     36 H         -10.9303   -0.4775   -0.1693 H       1  LIG1        0.1654
     37 H         -13.0281    0.9640   -0.1765 H       1  LIG1        0.0844
     38 H          -9.4985    3.4537    0.0782 H       1  LIG1        0.0675
     39 O         -12.2781    3.8063   -0.0203 O.3     1  LIG1       -0.5053
     40 H         -13.2188    3.6057   -0.0330 H       1  LIG1        0.2922
@<TRIPOS>BOND
     1    30    29    1
     2    29    26    1
     3    27    25    1
     4     7     1    1
     5     8     2    1
     6     1     2   ar
     7     1     5   ar
     8     2     3   ar
     9    26    25   ar
    10    26    23   ar
    11    16    15    1
    12     6     5    1
    13    25    22   ar
    14     5     4   ar
    15    37    34    1
    16    36    35    1
    17     3     9    1
    18     3     4   ar
    19     9    10    1
    20    34    35   ar
    21    34    33   ar
    22    35    31   ar
    23     4    11    1
    24    40    39    1
    25    33    39    1
    26    33    32   ar
    27    15    11   ar
    28    15    14   ar
    29    31    32   ar
    30    31    23    1
    31    32    38    1
    32    23    21   ar
    33    11    12   ar
    34    22    14    1
    35    22    20   ar
    36    14    13   ar
    37    12    13   ar
    38    12    17    1
    39    13    18    1
    40    21    20   ar
    41    21    24    1
    42    20    28    1
    43    18    19    1
