@<TRIPOS>MOLECULE
mol_data/opt/m06hf/geoms/mol2/13af13af13af.out
 29 31 0 0 0
SMALL
GASTEIGER

@<TRIPOS>ATOM
      1 C           1.1808    0.1733   -0.7952 C.ar    1  LIG1        0.0058
      2 C           0.8964    0.9970    0.2695 C.ar    1  LIG1       -0.0021
      3 C          -0.4565    0.7455    0.6207 C.ar    1  LIG1        0.1434
      4 C          -0.9509   -0.2148   -0.2318 C.ar    1  LIG1        0.1050
      5 N           0.0734   -0.5609   -1.0864 N.ar    1  LIG1       -0.3566
      6 H          -0.0388   -1.1618   -1.8862 H       1  LIG1        0.1655
      7 H           2.0871    0.0637   -1.3652 H       1  LIG1        0.0808
      8 H           1.5612    1.6917    0.7515 H       1  LIG1        0.0669
      9 O          -1.1200    1.3442    1.6459 O.3     1  LIG1       -0.5046
     10 H          -2.0155    0.9841    1.6831 H       1  LIG1        0.2922
     11 C          -2.2802   -0.8245   -0.2387 C.ar    1  LIG1        0.0705
     12 C          -3.5274   -0.2283   -0.3019 C.ar    1  LIG1        0.0074
     13 C          -4.4819   -1.2744   -0.2152 C.ar    1  LIG1        0.1441
     14 C          -3.8031   -2.4688   -0.1090 C.ar    1  LIG1        0.1054
     15 N          -2.4599   -2.1708   -0.1178 N.ar    1  LIG1       -0.3488
     16 H          -1.7142   -2.8437   -0.0373 H       1  LIG1        0.1661
     17 H          -3.7250    0.8215   -0.4404 H       1  LIG1        0.0676
     18 O          -5.8297   -1.1065   -0.2363 O.3     1  LIG1       -0.5046
     19 H          -6.2489   -1.9693   -0.1192 H       1  LIG1        0.2922
     20 C          -4.3606   -3.8142    0.0215 C.ar    1  LIG1        0.0701
     21 C          -5.3023   -4.4566   -0.7572 C.ar    1  LIG1        0.0067
     22 C          -5.5432   -5.7177   -0.1477 C.ar    1  LIG1        0.1347
     23 C          -4.7475   -5.8121    0.9686 C.ar    1  LIG1        0.0442
     24 N          -4.0346   -4.6426    1.0563 N.ar    1  LIG1       -0.3564
     25 H          -3.4513   -4.3719    1.8315 H       1  LIG1        0.1655
     26 H          -4.6352   -6.6034    1.6892 H       1  LIG1        0.0844
     27 H          -5.7268   -4.0947   -1.6786 H       1  LIG1        0.0676
     28 O          -6.4174   -6.6345   -0.6540 O.3     1  LIG1       -0.5053
     29 H          -6.4524   -7.4097   -0.0849 H       1  LIG1        0.2922
@<TRIPOS>BOND
     1     6     5    1
     2    27    21    1
     3     7     1    1
     4     5     1   ar
     5     5     4   ar
     6     1     2   ar
     7    21    22   ar
     8    21    20   ar
     9    28    22    1
    10    28    29    1
    11    17    12    1
    12    12    11   ar
    13    12    13   ar
    14    11     4    1
    15    11    15   ar
    16    18    13    1
    17    18    19    1
    18     4     3   ar
    19    13    14   ar
    20    22    23   ar
    21    15    14   ar
    22    15    16    1
    23    14    20    1
    24    20    24   ar
    25     2     3   ar
    26     2     8    1
    27     3     9    1
    28    23    24   ar
    29    23    26    1
    30    24    25    1
    31     9    10    1
