@<TRIPOS>MOLECULE
mol_data/opt/m06hf/geoms/mol2/13ag13ag13ag13ag-.out
 38 41 0 0 0
SMALL
GASTEIGER

@<TRIPOS>ATOM
      1 C           1.2357    0.1979    0.3404 C.ar    1  LIG1        0.0033
      2 C           0.7611    1.3217   -0.2895 C.ar    1  LIG1       -0.0305
      3 C          -0.6513    1.1793   -0.3925 C.ar    1  LIG1        0.0315
      4 C          -0.9893   -0.0283    0.1806 C.ar    1  LIG1        0.0762
      5 N           0.1749   -0.6160    0.6069 N.ar    1  LIG1       -0.3586
      6 H           0.2107   -1.4712    1.1379 H       1  LIG1        0.1654
      7 H           2.2379   -0.0824    0.6144 H       1  LIG1        0.0807
      8 H           1.3446    2.1503   -0.6533 H       1  LIG1        0.0644
      9 S          -1.7408    2.3721   -1.1202 S.3     1  LIG1       -0.1405
     10 H          -2.5614    1.4837   -1.6954 H       1  LIG1        0.1072
     11 C          -2.2877   -0.6890    0.3241 C.ar    1  LIG1        0.0655
     12 C          -3.4871   -0.2229    0.8119 C.ar    1  LIG1       -0.0211
     13 C          -4.4296   -1.2823    0.7008 C.ar    1  LIG1        0.0321
     14 C          -3.7761   -2.3642    0.1472 C.ar    1  LIG1        0.0767
     15 N          -2.4716   -1.9933   -0.0579 N.ar    1  LIG1       -0.3510
     16 H          -1.8133   -2.5180   -0.6136 H       1  LIG1        0.1660
     17 H          -3.6585    0.7549    1.2298 H       1  LIG1        0.0650
     18 S          -6.1264   -1.1791    1.1958 S.3     1  LIG1       -0.1405
     19 H          -6.2148   -2.4360    1.6486 H       1  LIG1        0.1072
     20 C          -4.2564   -3.7078   -0.1709 C.ar    1  LIG1        0.0655
     21 C          -5.4490   -4.1269   -0.7200 C.ar    1  LIG1       -0.0211
     22 C          -5.4001   -5.5467   -0.7941 C.ar    1  LIG1        0.0321
     23 C          -4.1819   -5.9494   -0.2916 C.ar    1  LIG1        0.0767
     24 N          -3.4921   -4.8166    0.0704 N.ar    1  LIG1       -0.3510
     25 H          -2.6608   -4.8266    0.6417 H       1  LIG1        0.1660
     26 H          -6.2437   -3.4832   -1.0588 H       1  LIG1        0.0650
     27 S          -6.6863   -6.5663   -1.4488 S.3     1  LIG1       -0.1405
     28 H          -5.9686   -7.6947   -1.4120 H       1  LIG1        0.1072
     29 C          -3.6142   -7.2909   -0.1298 C.ar    1  LIG1        0.0650
     30 C          -4.0657   -8.3808    0.5798 C.ar    1  LIG1       -0.0218
     31 C          -3.1229   -9.4295    0.3812 C.ar    1  LIG1        0.0227
     32 C          -2.1256   -8.9391   -0.4308 C.ar    1  LIG1        0.0154
     33 N          -2.4330   -7.6505   -0.7333 N.ar    1  LIG1       -0.3585
     34 H          -1.9260   -7.0576   -1.3717 H       1  LIG1        0.1654
     35 H          -1.2378   -9.4224   -0.8006 H       1  LIG1        0.0818
     36 H          -4.9536   -8.4150    1.1898 H       1  LIG1        0.0650
     37 S          -3.1396  -11.0421    1.1144 S.3     1  LIG1       -0.1412
     38 H          -3.9084  -11.6434    0.1981 H       1  LIG1        0.1072
@<TRIPOS>BOND
     1    10     9    1
     2    27    28    1
     3    27    22    1
     4    34    33    1
     5     9     3    1
     6    26    21    1
     7    35    32    1
     8    22    21   ar
     9    22    23   ar
    10    33    32   ar
    11    33    29   ar
    12    21    20   ar
    13     8     2    1
    14    16    15    1
    15    32    31   ar
    16     3     2   ar
    17     3     4   ar
    18    23    29    1
    19    23    24   ar
    20     2     1   ar
    21    20    24   ar
    22    20    14    1
    23    29    30   ar
    24    15    14   ar
    25    15    11   ar
    26    24    25    1
    27    14    13   ar
    28     4    11    1
    29     4     5   ar
    30    38    37    1
    31    11    12   ar
    32     1     5   ar
    33     1     7    1
    34    31    30   ar
    35    31    37    1
    36    30    36    1
    37     5     6    1
    38    13    12   ar
    39    13    18    1
    40    12    17    1
    41    18    19    1
