@<TRIPOS>MOLECULE
mol_data/opt/m06hf/geoms/mol2/13ag13ag.out
 20 21 0 0 0
SMALL
GASTEIGER

@<TRIPOS>ATOM
      1 C           1.1631   -0.2233    0.3115 C.ar    1  LIG1        0.0033
      2 C           0.7180    1.0275   -0.0293 C.ar    1  LIG1       -0.0305
      3 C          -0.6990    0.9481   -0.1621 C.ar    1  LIG1        0.0315
      4 C          -1.0696   -0.3531    0.1138 C.ar    1  LIG1        0.0762
      5 N           0.0756   -1.0479    0.3918 N.ar    1  LIG1       -0.3586
      6 H           0.0866   -1.9967    0.7313 H       1  LIG1        0.1654
      7 H           2.1556   -0.5881    0.5106 H       1  LIG1        0.0807
      8 H           1.3172    1.9102   -0.1738 H       1  LIG1        0.0644
      9 S          -1.7946    2.2799   -0.5614 S.3     1  LIG1       -0.1405
     10 H          -1.6776    2.2022   -1.8940 H       1  LIG1        0.1072
     11 C          -2.3777   -1.0144    0.1273 C.ar    1  LIG1        0.0650
     12 C          -3.5686   -0.6635    0.7157 C.ar    1  LIG1       -0.0218
     13 C          -4.5056   -1.6901    0.4051 C.ar    1  LIG1        0.0227
     14 C          -3.8507   -2.6359   -0.3489 C.ar    1  LIG1        0.0154
     15 N          -2.5651   -2.2201   -0.5072 N.ar    1  LIG1       -0.3585
     16 H          -1.8745   -2.6649   -1.0911 H       1  LIG1        0.1654
     17 H          -4.2157   -3.5549   -0.7740 H       1  LIG1        0.0818
     18 H          -3.7462    0.2181    1.3077 H       1  LIG1        0.0650
     19 S          -6.1928   -1.8014    0.9352 S.3     1  LIG1       -0.1412
     20 H          -6.7112   -0.9879    0.0065 H       1  LIG1        0.1072
@<TRIPOS>BOND
     1    10     9    1
     2    16    15    1
     3    17    14    1
     4     9     3    1
     5    15    14   ar
     6    15    11   ar
     7    14    13   ar
     8     8     2    1
     9     3     2   ar
    10     3     4   ar
    11     2     1   ar
    12    20    19    1
    13     4    11    1
    14     4     5   ar
    15    11    12   ar
    16     1     5   ar
    17     1     7    1
    18     5     6    1
    19    13    12   ar
    20    13    19    1
    21    12    18    1
