@<TRIPOS>MOLECULE
mol_data/opt/m06hf/geoms/mol2/13ag13ag-13ag.out
 29 31 0 0 0
SMALL
GASTEIGER

@<TRIPOS>ATOM
      1 C           1.1565    0.0859   -0.9373 C.ar    1  LIG1        0.0033
      2 C           0.9363    0.9732    0.0881 C.ar    1  LIG1       -0.0305
      3 C          -0.4119    0.7971    0.5094 C.ar    1  LIG1        0.0315
      4 C          -0.9653   -0.1915   -0.2747 C.ar    1  LIG1        0.0762
      5 N           0.0101   -0.6183   -1.1429 N.ar    1  LIG1       -0.3586
      6 H          -0.1515   -1.2754   -1.8898 H       1  LIG1        0.1654
      7 H           2.0376   -0.0936   -1.5282 H       1  LIG1        0.0807
      8 H           1.6521    1.6614    0.5042 H       1  LIG1        0.0644
      9 S          -1.1867    1.6882    1.8275 S.3     1  LIG1       -0.1405
     10 H          -2.2439    0.8724    1.9154 H       1  LIG1        0.1072
     11 C          -2.3019   -0.7917   -0.2504 C.ar    1  LIG1        0.0655
     12 C          -3.5523   -0.2170   -0.3502 C.ar    1  LIG1       -0.0211
     13 C          -4.5066   -1.2657   -0.2513 C.ar    1  LIG1        0.0321
     14 C          -3.8113   -2.4482   -0.0997 C.ar    1  LIG1        0.0767
     15 N          -2.4759   -2.1378   -0.0952 N.ar    1  LIG1       -0.3510
     16 H          -1.7294   -2.8062    0.0201 H       1  LIG1        0.1660
     17 H          -3.7479    0.8333   -0.4912 H       1  LIG1        0.0650
     18 S          -6.2623   -1.0556   -0.3123 S.3     1  LIG1       -0.1405
     19 H          -6.5404   -2.2836    0.1432 H       1  LIG1        0.1072
     20 C          -4.2934   -3.8225    0.0678 C.ar    1  LIG1        0.0650
     21 C          -5.0928   -4.6028   -0.7360 C.ar    1  LIG1       -0.0218
     22 C          -5.2414   -5.8603   -0.0849 C.ar    1  LIG1        0.0227
     23 C          -4.5209   -5.8056    1.0866 C.ar    1  LIG1        0.0154
     24 N          -3.9549   -4.5728    1.1687 N.ar    1  LIG1       -0.3585
     25 H          -3.4320   -4.2187    1.9549 H       1  LIG1        0.1654
     26 H          -4.3824   -6.5541    1.8474 H       1  LIG1        0.0818
     27 H          -5.5017   -4.3149   -1.6905 H       1  LIG1        0.0650
     28 S          -6.0798   -7.2961   -0.6959 S.3     1  LIG1       -0.1412
     29 H          -7.3087   -6.9833   -0.2679 H       1  LIG1        0.1072
@<TRIPOS>BOND
     1     6     5    1
     2    27    21    1
     3     7     1    1
     4     5     1   ar
     5     5     4   ar
     6     1     2   ar
     7    21    22   ar
     8    21    20   ar
     9    28    29    1
    10    28    22    1
    11    17    12    1
    12    12    13   ar
    13    12    11   ar
    14    18    13    1
    15    18    19    1
    16     4    11    1
    17     4     3   ar
    18    13    14   ar
    19    11    15   ar
    20    14    15   ar
    21    14    20    1
    22    15    16    1
    23    22    23   ar
    24    20    24   ar
    25     2     8    1
    26     2     3   ar
    27     3     9    1
    28    23    24   ar
    29    23    26    1
    30    24    25    1
    31     9    10    1
