@<TRIPOS>MOLECULE
mol_data/opt/m06hf/geoms/mol2/13ag13ag13ag13ag.out
 38 41 0 0 0
SMALL
GASTEIGER

@<TRIPOS>ATOM
      1 C           1.1978    0.1417    0.2000 C.ar    1  LIG1        0.0033
      2 C           0.7134    1.3301   -0.2826 C.ar    1  LIG1       -0.0305
      3 C          -0.7072    1.2254   -0.3124 C.ar    1  LIG1        0.0315
      4 C          -1.0406   -0.0281    0.1624 C.ar    1  LIG1        0.0762
      5 N           0.1297   -0.6719    0.4584 N.ar    1  LIG1       -0.3586
      6 H           0.1753   -1.5677    0.9172 H       1  LIG1        0.1654
      7 H           2.2056   -0.1860    0.3869 H       1  LIG1        0.0807
      8 H           1.2882    2.1882   -0.5862 H       1  LIG1        0.0644
      9 S          -1.8369    2.4958   -0.8088 S.3     1  LIG1       -0.1405
     10 H          -1.9870    2.1062   -2.0810 H       1  LIG1        0.1072
     11 C          -2.3336   -0.6930    0.3353 C.ar    1  LIG1        0.0655
     12 C          -3.5177   -0.2518    0.8768 C.ar    1  LIG1       -0.0211
     13 C          -4.4502   -1.3220    0.7820 C.ar    1  LIG1        0.0321
     14 C          -3.8052   -2.3854    0.1861 C.ar    1  LIG1        0.0767
     15 N          -2.5123   -1.9953   -0.0585 N.ar    1  LIG1       -0.3510
     16 H          -1.8800   -2.4956   -0.6649 H       1  LIG1        0.1660
     17 H          -3.6883    0.7180    1.3117 H       1  LIG1        0.0650
     18 S          -6.1301   -1.2465    1.3363 S.3     1  LIG1       -0.1405
     19 H          -6.1914   -2.5109    1.7721 H       1  LIG1        0.1072
     20 C          -4.2784   -3.7291   -0.1434 C.ar    1  LIG1        0.0655
     21 C          -5.4600   -4.1512   -0.7114 C.ar    1  LIG1       -0.0211
     22 C          -5.4038   -5.5709   -0.7924 C.ar    1  LIG1        0.0321
     23 C          -4.1918   -5.9704   -0.2720 C.ar    1  LIG1        0.0767
     24 N          -3.5117   -4.8364    0.1040 N.ar    1  LIG1       -0.3510
     25 H          -2.6946   -4.8423    0.6958 H       1  LIG1        0.1660
     26 H          -6.2523   -3.5089   -1.0586 H       1  LIG1        0.0650
     27 S          -6.6733   -6.5893   -1.4825 S.3     1  LIG1       -0.1405
     28 H          -5.9324   -7.7042   -1.4996 H       1  LIG1        0.1072
     29 C          -3.6180   -7.3075   -0.1065 C.ar    1  LIG1        0.0650
     30 C          -4.1241   -8.4385    0.4934 C.ar    1  LIG1       -0.0218
     31 C          -3.1375   -9.4574    0.3656 C.ar    1  LIG1        0.0227
     32 C          -2.0609   -8.9094   -0.2934 C.ar    1  LIG1        0.0154
     33 N          -2.3629   -7.6137   -0.5747 N.ar    1  LIG1       -0.3585
     34 H          -1.7989   -6.9841   -1.1234 H       1  LIG1        0.1654
     35 H          -1.1227   -9.3565   -0.5735 H       1  LIG1        0.0818
     36 H          -5.0761   -8.5189    0.9921 H       1  LIG1        0.0650
     37 S          -3.2102  -11.1049    1.0136 S.3     1  LIG1       -0.1412
     38 H          -3.8284  -11.6698   -0.0292 H       1  LIG1        0.1072
@<TRIPOS>BOND
     1    10     9    1
     2    28    27    1
     3    27    22    1
     4    34    33    1
     5    26    21    1
     6     9     3    1
     7    22    21   ar
     8    22    23   ar
     9    21    20   ar
    10    16    15    1
    11     8     2    1
    12    33    32   ar
    13    33    29   ar
    14    35    32    1
    15     3     2   ar
    16     3     4   ar
    17    32    31   ar
    18     2     1   ar
    19    23    29    1
    20    23    24   ar
    21    20    24   ar
    22    20    14    1
    23    29    30   ar
    24    15    14   ar
    25    15    11   ar
    26    38    37    1
    27    24    25    1
    28     4    11    1
    29     4     5   ar
    30    14    13   ar
    31     1     7    1
    32     1     5   ar
    33    11    12   ar
    34    31    30   ar
    35    31    37    1
    36     5     6    1
    37    30    36    1
    38    13    12   ar
    39    13    18    1
    40    12    17    1
    41    18    19    1
