@<TRIPOS>MOLECULE
mol_data/opt/m06hf/geoms/mol2/13ag13ag13ag.out
 29 31 0 0 0
SMALL
GASTEIGER

@<TRIPOS>ATOM
      1 C           1.2771   -0.0189    0.0971 C.ar    1  LIG1        0.0033
      2 C           0.7886    1.1221   -0.4895 C.ar    1  LIG1       -0.0305
      3 C          -0.6307    1.0090   -0.5082 C.ar    1  LIG1        0.0315
      4 C          -0.9578   -0.1996    0.0693 C.ar    1  LIG1        0.0762
      5 N           0.2168   -0.8152    0.4171 N.ar    1  LIG1       -0.3586
      6 H           0.2661   -1.6766    0.9372 H       1  LIG1        0.1654
      7 H           2.2880   -0.3230    0.3063 H       1  LIG1        0.0807
      8 H           1.3649    1.9437   -0.8792 H       1  LIG1        0.0644
      9 S          -1.7424    2.2285   -1.1541 S.3     1  LIG1       -0.1405
     10 H          -2.5469    1.3690   -1.7902 H       1  LIG1        0.1072
     11 C          -2.2574   -0.8378    0.2838 C.ar    1  LIG1        0.0655
     12 C          -3.4298   -0.3364    0.8017 C.ar    1  LIG1       -0.0211
     13 C          -4.3893   -1.3862    0.7636 C.ar    1  LIG1        0.0321
     14 C          -3.7736   -2.4949    0.2236 C.ar    1  LIG1        0.0767
     15 N          -2.4714   -2.1501   -0.0466 N.ar    1  LIG1       -0.3510
     16 H          -1.8515   -2.6990   -0.6233 H       1  LIG1        0.1660
     17 H          -3.5679    0.6586    1.1912 H       1  LIG1        0.0650
     18 S          -6.0539   -1.2495    1.3477 S.3     1  LIG1       -0.1405
     19 H          -6.2453   -2.5663    1.4990 H       1  LIG1        0.1072
     20 C          -4.2921   -3.8386   -0.0405 C.ar    1  LIG1        0.0650
     21 C          -5.4178   -4.2530   -0.7154 C.ar    1  LIG1       -0.0218
     22 C          -5.4365   -5.6759   -0.6626 C.ar    1  LIG1        0.0227
     23 C          -4.3179   -6.0792    0.0296 C.ar    1  LIG1        0.0154
     24 N          -3.6345   -4.9624    0.3990 N.ar    1  LIG1       -0.3585
     25 H          -2.8162   -4.9421    0.9868 H       1  LIG1        0.1654
     26 H          -3.9773   -7.0705    0.2739 H       1  LIG1        0.0818
     27 H          -6.1285   -3.6127   -1.2116 H       1  LIG1        0.0650
     28 S          -6.6047   -6.7671   -1.4270 S.3     1  LIG1       -0.1412
     29 H          -7.5621   -6.6774   -0.4950 H       1  LIG1        0.1072
@<TRIPOS>BOND
     1    10     9    1
     2    28    22    1
     3    28    29    1
     4    27    21    1
     5     9     3    1
     6     8     2    1
     7    21    22   ar
     8    21    20   ar
     9    22    23   ar
    10    16    15    1
    11     3     2   ar
    12     3     4   ar
    13     2     1   ar
    14    15    14   ar
    15    15    11   ar
    16    20    14    1
    17    20    24   ar
    18    23    26    1
    19    23    24   ar
    20     4    11    1
    21     4     5   ar
    22     1     7    1
    23     1     5   ar
    24    14    13   ar
    25    11    12   ar
    26    24    25    1
    27     5     6    1
    28    13    12   ar
    29    13    18    1
    30    12    17    1
    31    18    19    1
