@<TRIPOS>MOLECULE
mol_data/opt/m06hf/geoms/mol2/13ag13ag-13ag-13ag.out
 38 41 0 0 0
SMALL
GASTEIGER

@<TRIPOS>ATOM
      1 C           1.2367    0.2022   -0.3132 C.ar    1  LIG1        0.0033
      2 C           0.7627    1.3150    0.3363 C.ar    1  LIG1       -0.0305
      3 C          -0.6498    1.1713    0.4372 C.ar    1  LIG1        0.0315
      4 C          -0.9883   -0.0261   -0.1568 C.ar    1  LIG1        0.0762
      5 N           0.1756   -0.6066   -0.5936 N.ar    1  LIG1       -0.3586
      6 H           0.2110   -1.4525   -1.1394 H       1  LIG1        0.1654
      7 H           2.2388   -0.0735   -0.5922 H       1  LIG1        0.0807
      8 H           1.3465    2.1370    0.7143 H       1  LIG1        0.0644
      9 S          -1.7387    2.3516    1.1857 S.3     1  LIG1       -0.1405
     10 H          -2.5592    1.4536    1.7460 H       1  LIG1        0.1072
     11 C          -2.2870   -0.6838   -0.3115 C.ar    1  LIG1        0.0655
     12 C          -3.4861   -0.2093   -0.7918 C.ar    1  LIG1       -0.0211
     13 C          -4.4289   -1.2701   -0.6985 C.ar    1  LIG1        0.0321
     14 C          -3.7759   -2.3612   -0.1628 C.ar    1  LIG1        0.0767
     15 N          -2.4714   -1.9942    0.0488 N.ar    1  LIG1       -0.3510
     16 H          -1.8133   -2.5283    0.5958 H       1  LIG1        0.1660
     17 H          -3.6571    0.7754   -1.1934 H       1  LIG1        0.0650
     18 S          -6.1256   -1.1582   -1.1923 S.3     1  LIG1       -0.1405
     19 H          -6.2142   -2.4074   -1.6659 H       1  LIG1        0.1072
     20 C          -4.2567   -3.7098    0.1327 C.ar    1  LIG1        0.0655
     21 C          -5.4497   -4.1377    0.6740 C.ar    1  LIG1       -0.0211
     22 C          -5.4011   -5.5586    0.7248 C.ar    1  LIG1        0.0321
     23 C          -4.1827   -5.9531    0.2165 C.ar    1  LIG1        0.0767
     24 N          -3.4924   -4.8146   -0.1264 N.ar    1  LIG1       -0.3510
     25 H          -2.6609   -4.8154   -0.6974 H       1  LIG1        0.1660
     26 H          -6.2446   -3.4995    1.0230 H       1  LIG1        0.0650
     27 S          -6.6878   -6.5886    1.3619 S.3     1  LIG1       -0.1405
     28 H          -5.9706   -7.7165    1.3063 H       1  LIG1        0.1072
     29 C          -3.6150   -7.2919    0.0330 C.ar    1  LIG1        0.0650
     30 C          -4.0662   -8.3700   -0.6946 C.ar    1  LIG1       -0.0218
     31 C          -3.1236   -9.4219   -0.5125 C.ar    1  LIG1        0.0227
     32 C          -2.1268   -8.9450    0.3080 C.ar    1  LIG1        0.0154
     33 N          -2.4342   -7.6614    0.6313 N.ar    1  LIG1       -0.3585
     34 H          -1.9277   -7.0792    1.2800 H       1  LIG1        0.1654
     35 H          -1.2392   -9.4343    0.6704 H       1  LIG1        0.0818
     36 H          -4.9536   -8.3940   -1.3056 H       1  LIG1        0.0650
     37 S          -3.1403  -11.0224   -1.2718 S.3     1  LIG1       -0.1412
     38 H          -3.9099  -11.6380   -0.3658 H       1  LIG1        0.1072
@<TRIPOS>BOND
     1    19    18    1
     2    36    30    1
     3    37    31    1
     4    37    38    1
     5    17    12    1
     6    18    13    1
     7     6     5    1
     8    12    13   ar
     9    12    11   ar
    10    13    14   ar
    11    25    24    1
    12    30    31   ar
    13    30    29   ar
    14     5     1   ar
    15     5     4   ar
    16     7     1    1
    17    31    32   ar
    18     1     2   ar
    19    11     4    1
    20    11    15   ar
    21    14    15   ar
    22    14    20    1
    23     4     3   ar
    24    24    20   ar
    25    24    23   ar
    26    29    23    1
    27    29    33   ar
    28    15    16    1
    29    20    21   ar
    30    23    22   ar
    31    32    33   ar
    32    32    35    1
    33     2     3   ar
    34     2     8    1
    35     3     9    1
    36    33    34    1
    37    21    22   ar
    38    21    26    1
    39    22    27    1
    40     9    10    1
    41    28    27    1
