@<TRIPOS>MOLECULE
mol_data/opt/m06hf/geoms/mol2/13ag13ag-13ag-.out
 29 31 0 0 0
SMALL
GASTEIGER

@<TRIPOS>ATOM
      1 C           1.2724   -0.0130   -0.1558 C.ar    1  LIG1        0.0033
      2 C           0.7931    1.1203    0.4530 C.ar    1  LIG1       -0.0305
      3 C          -0.6255    1.0054    0.4950 C.ar    1  LIG1        0.0315
      4 C          -0.9615   -0.1965   -0.0915 C.ar    1  LIG1        0.0762
      5 N           0.2074   -0.8065   -0.4672 N.ar    1  LIG1       -0.3586
      6 H           0.2485   -1.6614   -0.9986 H       1  LIG1        0.1654
      7 H           2.2798   -0.3135   -0.3861 H       1  LIG1        0.0807
      8 H           1.3754    1.9376    0.8427 H       1  LIG1        0.0644
      9 S          -1.7267    2.2158    1.1748 S.3     1  LIG1       -0.1405
     10 H          -2.5191    1.3478    1.8147 H       1  LIG1        0.1072
     11 C          -2.2640   -0.8335   -0.2913 C.ar    1  LIG1        0.0655
     12 C          -3.4457   -0.3271   -0.7826 C.ar    1  LIG1       -0.0211
     13 C          -4.4033   -1.3784   -0.7409 C.ar    1  LIG1        0.0321
     14 C          -3.7773   -2.4930   -0.2256 C.ar    1  LIG1        0.0767
     15 N          -2.4709   -2.1500    0.0264 N.ar    1  LIG1       -0.3510
     16 H          -1.8406   -2.7054    0.5852 H       1  LIG1        0.1660
     17 H          -3.5915    0.6724   -1.1573 H       1  LIG1        0.0650
     18 S          -6.0781   -1.2365   -1.2941 S.3     1  LIG1       -0.1405
     19 H          -6.2707   -2.5515   -1.4585 H       1  LIG1        0.1072
     20 C          -4.2898   -3.8406    0.0308 C.ar    1  LIG1        0.0650
     21 C          -5.4029   -4.2648    0.7202 C.ar    1  LIG1       -0.0218
     22 C          -5.4212   -5.6869    0.6499 C.ar    1  LIG1        0.0227
     23 C          -4.3146   -6.0801   -0.0671 C.ar    1  LIG1        0.0154
     24 N          -3.6390   -4.9580   -0.4344 N.ar    1  LIG1       -0.3585
     25 H          -2.8313   -4.9293   -1.0363 H       1  LIG1        0.1654
     26 H          -3.9774   -7.0679   -0.3299 H       1  LIG1        0.0818
     27 H          -6.1054   -3.6316    1.2369 H       1  LIG1        0.0650
     28 S          -6.5747   -6.7889    1.4211 S.3     1  LIG1       -0.1412
     29 H          -7.5481   -6.6894    0.5069 H       1  LIG1        0.1072
@<TRIPOS>BOND
     1    19    18    1
     2    18    13    1
     3    17    12    1
     4    25    24    1
     5     6     5    1
     6    12    13   ar
     7    12    11   ar
     8    13    14   ar
     9     5     1   ar
    10     5     4   ar
    11    24    23   ar
    12    24    20   ar
    13     7     1    1
    14    26    23    1
    15    11     4    1
    16    11    15   ar
    17    14    15   ar
    18    14    20    1
    19     1     2   ar
    20     4     3   ar
    21    23    22   ar
    22    15    16    1
    23    20    21   ar
    24     2     3   ar
    25     2     8    1
    26     3     9    1
    27    29    28    1
    28    22    21   ar
    29    22    28    1
    30    21    27    1
    31     9    10    1
