@<TRIPOS>MOLECULE
mol_data/opt/m06hf/geoms/mol2/13ag13ag13ag-13ag.out
 38 41 0 0 0
SMALL
GASTEIGER

@<TRIPOS>ATOM
      1 C           1.2281    0.2031    0.3576 C.ar    1  LIG1        0.0033
      2 C           0.7515    1.3304   -0.2645 C.ar    1  LIG1       -0.0305
      3 C          -0.6606    1.1859   -0.3688 C.ar    1  LIG1        0.0315
      4 C          -0.9964   -0.0263    0.1958 C.ar    1  LIG1        0.0762
      5 N           0.1688   -0.6147    0.6183 N.ar    1  LIG1       -0.3586
      6 H           0.2062   -1.4735    1.1435 H       1  LIG1        0.1654
      7 H           2.2308   -0.0772    0.6298 H       1  LIG1        0.0807
      8 H           1.3335    2.1626   -0.6224 H       1  LIG1        0.0644
      9 S          -1.7522    2.3816   -1.0886 S.3     1  LIG1       -0.1405
     10 H          -2.5709    1.4956   -1.6700 H       1  LIG1        0.1072
     11 C          -2.2936   -0.6904    0.3345 C.ar    1  LIG1        0.0655
     12 C          -3.4939   -0.2301    0.8256 C.ar    1  LIG1       -0.0211
     13 C          -4.4344   -1.2904    0.7066 C.ar    1  LIG1        0.0321
     14 C          -3.7788   -2.3670    0.1452 C.ar    1  LIG1        0.0767
     15 N          -2.4751   -1.9923   -0.0570 N.ar    1  LIG1       -0.3510
     16 H          -1.8156   -2.5117   -0.6164 H       1  LIG1        0.1660
     17 H          -3.6672    0.7443    1.2506 H       1  LIG1        0.0650
     18 S          -6.1315   -1.1941    1.2023 S.3     1  LIG1       -0.1405
     19 H          -6.2175   -2.4547    1.6454 H       1  LIG1        0.1072
     20 C          -4.2566   -3.7092   -0.1826 C.ar    1  LIG1        0.0655
     21 C          -5.4485   -4.1266   -0.7345 C.ar    1  LIG1       -0.0211
     22 C          -5.3969   -5.5458   -0.8189 C.ar    1  LIG1        0.0321
     23 C          -4.1779   -5.9497   -0.3194 C.ar    1  LIG1        0.0767
     24 N          -3.4901   -4.8182    0.0506 N.ar    1  LIG1       -0.3510
     25 H          -2.6589   -4.8308    0.6218 H       1  LIG1        0.1660
     26 H          -6.2446   -3.4820   -1.0685 H       1  LIG1        0.0650
     27 S          -6.6813   -6.5630   -1.4809 S.3     1  LIG1       -0.1405
     28 H          -5.9616   -7.6903   -1.4520 H       1  LIG1        0.1072
     29 C          -3.6074   -7.2912   -0.1675 C.ar    1  LIG1        0.0650
     30 C          -4.0566   -8.3873    0.5340 C.ar    1  LIG1       -0.0218
     31 C          -3.1115   -9.4325    0.3277 C.ar    1  LIG1        0.0227
     32 C          -2.1153   -8.9340   -0.4806 C.ar    1  LIG1        0.0154
     33 N          -2.4255   -7.6439   -0.7736 N.ar    1  LIG1       -0.3585
     34 H          -1.9198   -7.0452   -1.4078 H       1  LIG1        0.1654
     35 H          -1.2264   -9.4126   -0.8539 H       1  LIG1        0.0818
     36 H          -4.9444   -8.4279    1.1437 H       1  LIG1        0.0650
     37 S          -3.1248  -11.0503    1.0492 S.3     1  LIG1       -0.1412
     38 H          -3.8923  -11.6467    0.1286 H       1  LIG1        0.1072
@<TRIPOS>BOND
     1    10     9    1
     2    27    28    1
     3    27    22    1
     4    34    33    1
     5     9     3    1
     6    26    21    1
     7    35    32    1
     8    22    21   ar
     9    22    23   ar
    10    33    32   ar
    11    33    29   ar
    12    21    20   ar
    13     8     2    1
    14    16    15    1
    15    32    31   ar
    16     3     2   ar
    17     3     4   ar
    18    23    29    1
    19    23    24   ar
    20     2     1   ar
    21    20    24   ar
    22    20    14    1
    23    29    30   ar
    24    15    14   ar
    25    15    11   ar
    26    24    25    1
    27    38    37    1
    28    14    13   ar
    29     4    11    1
    30     4     5   ar
    31    31    30   ar
    32    31    37    1
    33    11    12   ar
    34     1     5   ar
    35     1     7    1
    36    30    36    1
    37     5     6    1
    38    13    12   ar
    39    13    18    1
    40    12    17    1
    41    18    19    1
