@<TRIPOS>MOLECULE
mol_data/opt/m06hf/geoms/mol2/13ag13ag-13ag-13ag-.out
 38 41 0 0 0
SMALL
GASTEIGER

@<TRIPOS>ATOM
      1 C           1.2251    0.2113   -0.3536 C.ar    1  LIG1        0.0033
      2 C           0.7575    1.3216    0.3049 C.ar    1  LIG1       -0.0305
      3 C          -0.6533    1.1748    0.4239 C.ar    1  LIG1        0.0315
      4 C          -0.9973   -0.0218   -0.1685 C.ar    1  LIG1        0.0762
      5 N           0.1619   -0.5989   -0.6220 N.ar    1  LIG1       -0.3586
      6 H           0.1918   -1.4434   -1.1704 H       1  LIG1        0.1654
      7 H           2.2239   -0.0618   -0.6465 H       1  LIG1        0.0807
      8 H           1.3446    2.1437    0.6772 H       1  LIG1        0.0644
      9 S          -1.7346    2.3509    1.1898 S.3     1  LIG1       -0.1405
     10 H          -2.5460    1.4499    1.7582 H       1  LIG1        0.1072
     11 C          -2.2966   -0.6816   -0.3078 C.ar    1  LIG1        0.0655
     12 C          -3.5031   -0.2077   -0.7696 C.ar    1  LIG1       -0.0211
     13 C          -4.4425   -1.2708   -0.6674 C.ar    1  LIG1        0.0321
     14 C          -3.7800   -2.3626   -0.1450 C.ar    1  LIG1        0.0767
     15 N          -2.4734   -1.9938    0.0499 N.ar    1  LIG1       -0.3510
     16 H          -1.8069   -2.5285    0.5861 H       1  LIG1        0.1660
     17 H          -3.6816    0.7782   -1.1652 H       1  LIG1        0.0650
     18 S          -6.1461   -1.1603   -1.1372 S.3     1  LIG1       -0.1405
     19 H          -6.2390   -2.4079   -1.6141 H       1  LIG1        0.1072
     20 C          -4.2541   -3.7131    0.1522 C.ar    1  LIG1        0.0655
     21 C          -5.4385   -4.1453    0.7089 C.ar    1  LIG1       -0.0211
     22 C          -5.3867   -5.5662    0.7534 C.ar    1  LIG1        0.0321
     23 C          -4.1750   -5.9567    0.2261 C.ar    1  LIG1        0.0767
     24 N          -3.4917   -4.8156   -0.1221 N.ar    1  LIG1       -0.3510
     25 H          -2.6683   -4.8126   -0.7047 H       1  LIG1        0.1660
     26 H          -6.2294   -3.5099    1.0717 H       1  LIG1        0.0650
     27 S          -6.6625   -6.6011    1.4047 S.3     1  LIG1       -0.1405
     28 H          -5.9439   -7.7273    1.3348 H       1  LIG1        0.1072
     29 C          -3.6078   -7.2937    0.0292 C.ar    1  LIG1        0.0650
     30 C          -4.0676   -8.3695   -0.6964 C.ar    1  LIG1       -0.0218
     31 C          -3.1209   -9.4207   -0.5320 C.ar    1  LIG1        0.0227
     32 C          -2.1134   -8.9455    0.2764 C.ar    1  LIG1        0.0154
     33 N          -2.4183   -7.6639    0.6094 N.ar    1  LIG1       -0.3585
     34 H          -1.9034   -7.0834    1.2531 H       1  LIG1        0.1654
     35 H          -1.2201   -9.4350    0.6243 H       1  LIG1        0.0818
     36 H          -4.9635   -8.3925   -1.2950 H       1  LIG1        0.0650
     37 S          -3.1457  -11.0178   -1.2980 S.3     1  LIG1       -0.1412
     38 H          -3.9010  -11.6391   -0.3838 H       1  LIG1        0.1072
@<TRIPOS>BOND
     1    19    18    1
     2    37    31    1
     3    37    38    1
     4    36    30    1
     5     6     5    1
     6    17    12    1
     7    18    13    1
     8    12    13   ar
     9    12    11   ar
    10    25    24    1
    11    30    31   ar
    12    30    29   ar
    13    13    14   ar
    14     7     1    1
    15     5     1   ar
    16     5     4   ar
    17    31    32   ar
    18     1     2   ar
    19    11     4    1
    20    11    15   ar
    21     4     3   ar
    22    14    15   ar
    23    14    20    1
    24    24    20   ar
    25    24    23   ar
    26    29    23    1
    27    29    33   ar
    28    15    16    1
    29    20    21   ar
    30    23    22   ar
    31    32    33   ar
    32    32    35    1
    33     2     3   ar
    34     2     8    1
    35     3     9    1
    36    33    34    1
    37    21    22   ar
    38    21    26    1
    39    22    27    1
    40     9    10    1
    41    28    27    1
