@<TRIPOS>MOLECULE
mol_data/opt/m06hf/geoms/mol2/13ag13ag-.out
 20 21 0 0 0
SMALL
GASTEIGER

@<TRIPOS>ATOM
      1 C           1.2257   -0.2117   -0.3508 C.ar    1  LIG1        0.0033
      2 C           0.7974    1.0026    0.1268 C.ar    1  LIG1       -0.0305
      3 C          -0.6147    0.9122    0.2881 C.ar    1  LIG1        0.0315
      4 C          -0.9962   -0.3542   -0.0977 C.ar    1  LIG1        0.0762
      5 N           0.1413   -1.0261   -0.4739 N.ar    1  LIG1       -0.3586
      6 H           0.1400   -1.9427   -0.8915 H       1  LIG1        0.1654
      7 H           2.2132   -0.5516   -0.6102 H       1  LIG1        0.0807
      8 H           1.4142    1.8566    0.3494 H       1  LIG1        0.0644
      9 S          -1.6527    2.2107    0.8969 S.3     1  LIG1       -0.1405
     10 H          -2.7117    1.4213    1.1143 H       1  LIG1        0.1072
     11 C          -2.3174   -0.9872   -0.1113 C.ar    1  LIG1        0.0650
     12 C          -3.5067   -0.5847   -0.6754 C.ar    1  LIG1       -0.0218
     13 C          -4.4794   -1.5742   -0.3537 C.ar    1  LIG1        0.0227
     14 C          -3.8473   -2.5509    0.3808 C.ar    1  LIG1        0.0154
     15 N          -2.5451   -2.1854    0.5221 N.ar    1  LIG1       -0.3585
     16 H          -1.8580   -2.6647    1.0830 H       1  LIG1        0.1654
     17 H          -4.2397   -3.4602    0.8027 H       1  LIG1        0.0818
     18 H          -3.6559    0.3015   -1.2706 H       1  LIG1        0.0650
     19 S          -6.1779   -1.6110   -0.8571 S.3     1  LIG1       -0.1412
     20 H          -6.6620   -0.8565    0.1374 H       1  LIG1        0.1072
@<TRIPOS>BOND
     1    18    12    1
     2     6     5    1
     3    19    13    1
     4    19    20    1
     5    12    13   ar
     6    12    11   ar
     7     7     1    1
     8     5     1   ar
     9     5     4   ar
    10    13    14   ar
    11     1     2   ar
    12    11     4    1
    13    11    15   ar
    14     4     3   ar
    15     2     3   ar
    16     2     8    1
    17     3     9    1
    18    14    15   ar
    19    14    17    1
    20    15    16    1
    21     9    10    1
