@<TRIPOS>MOLECULE
mol_data/opt/m06hf/geoms/mol2/13ag13ag13ag-.out
 29 31 0 0 0
SMALL
GASTEIGER

@<TRIPOS>ATOM
      1 C           1.2232   -0.0787    0.1695 C.ar    1  LIG1        0.0033
      2 C           0.7775    1.1156   -0.3348 C.ar    1  LIG1       -0.0305
      3 C          -0.6450    1.0486   -0.3831 C.ar    1  LIG1        0.0315
      4 C          -1.0184   -0.1892    0.1024 C.ar    1  LIG1        0.0762
      5 N           0.1300   -0.8596    0.4237 N.ar    1  LIG1       -0.3586
      6 H           0.1441   -1.7501    0.8948 H       1  LIG1        0.1654
      7 H           2.2193   -0.4308    0.3733 H       1  LIG1        0.0807
      8 H           1.3793    1.9538   -0.6428 H       1  LIG1        0.0644
      9 S          -1.7333    2.3440   -0.9032 S.3     1  LIG1       -0.1405
     10 H          -1.8560    1.9699   -2.1840 H       1  LIG1        0.1072
     11 C          -2.3283   -0.8209    0.2728 C.ar    1  LIG1        0.0655
     12 C          -3.5143   -0.3352    0.7704 C.ar    1  LIG1       -0.0211
     13 C          -4.4606   -1.3969    0.7134 C.ar    1  LIG1        0.0321
     14 C          -3.8230   -2.4971    0.1831 C.ar    1  LIG1        0.0767
     15 N          -2.5187   -2.1376   -0.0610 N.ar    1  LIG1       -0.3510
     16 H          -1.8929   -2.6689   -0.6479 H       1  LIG1        0.1660
     17 H          -3.6744    0.6572    1.1564 H       1  LIG1        0.0650
     18 S          -6.1349   -1.2811    1.2732 S.3     1  LIG1       -0.1405
     19 H          -6.3124   -2.6005    1.4202 H       1  LIG1        0.1072
     20 C          -4.3108   -3.8517   -0.0792 C.ar    1  LIG1        0.0650
     21 C          -5.4452   -4.3000   -0.7170 C.ar    1  LIG1       -0.0218
     22 C          -5.4135   -5.7233   -0.6756 C.ar    1  LIG1        0.0227
     23 C          -4.2570   -6.0930   -0.0287 C.ar    1  LIG1        0.0154
     24 N          -3.6009   -4.9560    0.3279 N.ar    1  LIG1       -0.3585
     25 H          -2.7690   -4.9117    0.8950 H       1  LIG1        0.1654
     26 H          -3.8726   -7.0734    0.1937 H       1  LIG1        0.0818
     27 H          -6.1953   -3.6826   -1.1840 H       1  LIG1        0.0650
     28 S          -6.5862   -6.8410   -1.3940 S.3     1  LIG1       -0.1412
     29 H          -7.4143   -6.9112   -0.3453 H       1  LIG1        0.1072
@<TRIPOS>BOND
     1    10     9    1
     2    28    22    1
     3    28    29    1
     4    27    21    1
     5     9     3    1
     6    21    22   ar
     7    21    20   ar
     8    22    23   ar
     9    16    15    1
    10     8     2    1
    11     3     2   ar
    12     3     4   ar
    13     2     1   ar
    14    20    14    1
    15    20    24   ar
    16    15    14   ar
    17    15    11   ar
    18    23    26    1
    19    23    24   ar
    20     4    11    1
    21     4     5   ar
    22     1     7    1
    23     1     5   ar
    24    14    13   ar
    25    11    12   ar
    26    24    25    1
    27     5     6    1
    28    13    12   ar
    29    13    18    1
    30    12    17    1
    31    18    19    1
