@<TRIPOS>MOLECULE
mol_data/opt/m06hf/geoms/mol2/13ag13ag13ag-13ag-.out
 38 41 0 0 0
SMALL
GASTEIGER

@<TRIPOS>ATOM
      1 C           1.1995    0.2122   -0.5161 C.ar    1  LIG1        0.0033
      2 C           0.6290    1.4349   -0.7583 C.ar    1  LIG1       -0.0305
      3 C          -0.7658    1.3086   -0.4972 C.ar    1  LIG1        0.0315
      4 C          -0.9961    0.0071   -0.0963 C.ar    1  LIG1        0.0762
      5 N           0.2071   -0.6425   -0.1234 N.ar    1  LIG1       -0.3586
      6 H           0.3455   -1.5813    0.2149 H       1  LIG1        0.1654
      7 H           2.2223   -0.1159   -0.5838 H       1  LIG1        0.0807
      8 H           1.1296    2.3297   -1.0865 H       1  LIG1        0.0644
      9 S          -1.9689    2.6035   -0.6137 S.3     1  LIG1       -0.1405
     10 H          -2.3939    2.3339   -1.8547 H       1  LIG1        0.1072
     11 C          -2.2261   -0.6967    0.2722 C.ar    1  LIG1        0.0655
     12 C          -3.2944   -0.3108    1.0484 C.ar    1  LIG1       -0.0211
     13 C          -4.2175   -1.3936    1.0600 C.ar    1  LIG1        0.0321
     14 C          -3.6826   -2.4062    0.2942 C.ar    1  LIG1        0.0767
     15 N          -2.4602   -1.9744   -0.1634 N.ar    1  LIG1       -0.3510
     16 H          -1.9535   -2.4223   -0.9125 H       1  LIG1        0.1660
     17 H          -3.3887    0.6309    1.5615 H       1  LIG1        0.0650
     18 S          -5.7549   -1.3971    1.9348 S.3     1  LIG1       -0.1405
     19 H          -5.9470   -2.7196    1.8388 H       1  LIG1        0.1072
     20 C          -4.2042   -3.7359   -0.0290 C.ar    1  LIG1        0.0655
     21 C          -5.4021   -4.1182   -0.5962 C.ar    1  LIG1       -0.0211
     22 C          -5.3886   -5.5363   -0.6929 C.ar    1  LIG1        0.0321
     23 C          -4.1826   -5.9766   -0.1865 C.ar    1  LIG1        0.0767
     24 N          -3.4816   -4.8692    0.2169 N.ar    1  LIG1       -0.3510
     25 H          -2.5622   -4.8888    0.6304 H       1  LIG1        0.1660
     26 H          -6.1856   -3.4496   -0.9129 H       1  LIG1        0.0650
     27 S          -6.6978   -6.5149   -1.3684 S.3     1  LIG1       -0.1405
     28 H          -6.2331   -7.6830   -0.9024 H       1  LIG1        0.1072
     29 C          -3.6534   -7.3334   -0.0250 C.ar    1  LIG1        0.0650
     30 C          -3.4491   -8.3392   -0.9421 C.ar    1  LIG1       -0.0218
     31 C          -2.9135   -9.4510   -0.2320 C.ar    1  LIG1        0.0227
     32 C          -2.7991   -9.0807    1.0887 C.ar    1  LIG1        0.0154
     33 N          -3.2491   -7.8031    1.2021 N.ar    1  LIG1       -0.3585
     34 H          -3.3613   -7.2955    2.0659 H       1  LIG1        0.1654
     35 H          -2.4342   -9.6402    1.9328 H       1  LIG1        0.0818
     36 H          -3.6380   -8.2765   -2.0014 H       1  LIG1        0.0650
     37 S          -2.3818  -11.0032   -0.9009 S.3     1  LIG1       -0.1412
     38 H          -3.5754  -11.6118   -0.8881 H       1  LIG1        0.1072
@<TRIPOS>BOND
     1    36    30    1
     2    10     9    1
     3    27    28    1
     4    27    22    1
     5     8     2    1
     6    30    31   ar
     7    30    29   ar
     8    26    21    1
     9    16    15    1
    10    37    38    1
    11    37    31    1
    12     2     1   ar
    13     2     3   ar
    14    22    21   ar
    15    22    23   ar
    16     9     3    1
    17    21    20   ar
    18     7     1    1
    19     1     5   ar
    20     3     4   ar
    21    31    32   ar
    22    23    29    1
    23    23    24   ar
    24    15    11   ar
    25    15    14   ar
    26     5     4   ar
    27     5     6    1
    28     4    11    1
    29    20    24   ar
    30    20    14    1
    31    29    33   ar
    32    24    25    1
    33    11    12   ar
    34    14    13   ar
    35    12    13   ar
    36    12    17    1
    37    13    18    1
    38    32    33   ar
    39    32    35    1
    40    33    34    1
    41    19    18    1
