@<TRIPOS>MOLECULE
mol_data/opt/m06hf/geoms/mol2/13ah13ah-13ah-13ah.out
 42 45 0 0 0
SMALL
GASTEIGER

@<TRIPOS>ATOM
      1 C           1.3954   -0.4832   -0.0948 C.ar    1  LIG1        0.0040
      2 C           1.0181    0.6968    0.4960 C.ar    1  LIG1       -0.0230
      3 C          -0.4069    0.7007    0.5389 C.ar    1  LIG1        0.0516
      4 C          -0.8437   -0.4798   -0.0272 C.ar    1  LIG1        0.0839
      5 N           0.2629   -1.1823   -0.4037 N.ar    1  LIG1       -0.3580
      6 H           0.2366   -2.0842   -0.8494 H       1  LIG1        0.1654
      7 H           2.3717   -0.8761   -0.3184 H       1  LIG1        0.0807
      8 H           1.6760    1.4699    0.8572 H       1  LIG1        0.0651
      9 N          -1.2989    1.6984    1.0577 N.pl3   1  LIG1       -0.3563
     10 H          -1.1641    1.8141    2.0589 H       1  LIG1        0.1424
     11 H          -1.1250    2.5979    0.6184 H       1  LIG1        0.1424
     12 C          -2.2053   -0.9645   -0.2258 C.ar    1  LIG1        0.0670
     13 C          -2.7025   -2.1609   -0.7145 C.ar    1  LIG1       -0.0135
     14 C          -4.1189   -2.0705   -0.6604 C.ar    1  LIG1        0.0523
     15 C          -4.4328   -0.8306   -0.1359 C.ar    1  LIG1        0.0843
     16 N          -3.2534   -0.1766    0.1204 N.ar    1  LIG1       -0.3504
     17 H          -3.1059    0.7203    0.5760 H       1  LIG1        0.1660
     18 H          -2.1337   -3.0081   -1.0620 H       1  LIG1        0.0658
     19 N          -5.0421   -3.0670   -1.0399 N.pl3   1  LIG1       -0.3563
     20 H          -5.9695   -2.6700   -1.1589 H       1  LIG1        0.1424
     21 H          -4.7604   -3.5303   -1.8961 H       1  LIG1        0.1424
     22 C          -5.7461   -0.2394    0.0949 C.ar    1  LIG1        0.0670
     23 C          -6.8994   -0.7893    0.6145 C.ar    1  LIG1       -0.0135
     24 C          -7.8970    0.2281    0.5850 C.ar    1  LIG1        0.0523
     25 C          -7.3201    1.3652    0.0555 C.ar    1  LIG1        0.0843
     26 N          -6.0221    1.0621   -0.2362 N.ar    1  LIG1       -0.3504
     27 H          -5.3750    1.6780   -0.7021 H       1  LIG1        0.1660
     28 H          -6.9902   -1.7891    1.0094 H       1  LIG1        0.0658
     29 N          -9.2632    0.1718    1.0223 N.pl3   1  LIG1       -0.3563
     30 H          -9.7759   -0.5337    0.5003 H       1  LIG1        0.1424
     31 H          -9.3117   -0.0798    2.0060 H       1  LIG1        0.1424
     32 C          -7.9054    2.6797   -0.1873 C.ar    1  LIG1        0.0665
     33 C          -7.3804    3.8452   -0.7126 C.ar    1  LIG1       -0.0142
     34 C          -8.4279    4.8075   -0.7062 C.ar    1  LIG1        0.0427
     35 C          -9.5430    4.1944   -0.1771 C.ar    1  LIG1        0.0230
     36 N          -9.2040    2.9104    0.1411 N.ar    1  LIG1       -0.3578
     37 H          -9.7722    2.1779    0.5553 H       1  LIG1        0.1654
     38 H         -10.5326    4.5797   -0.0022 H       1  LIG1        0.0826
     39 H          -6.3705    4.0169   -1.0480 H       1  LIG1        0.0658
     40 N          -8.2904    6.1558   -1.1307 N.pl3   1  LIG1       -0.3568
     41 H          -8.0806    6.2103   -2.1221 H       1  LIG1        0.1424
     42 H          -9.1327    6.6891   -0.9485 H       1  LIG1        0.1424
@<TRIPOS>BOND
     1    41    40    1
     2    21    19    1
     3    20    19    1
     4    40    42    1
     5    40    34    1
     6    18    13    1
     7    39    33    1
     8    19    14    1
     9     6     5    1
    10    13    14   ar
    11    13    12   ar
    12    33    34   ar
    13    33    32   ar
    14    34    35   ar
    15    27    26    1
    16    14    15   ar
    17     5     1   ar
    18     5     4   ar
    19     7     1    1
    20    26    25   ar
    21    26    22   ar
    22    12     4    1
    23    12    16   ar
    24    32    25    1
    25    32    36   ar
    26    35    38    1
    27    35    36   ar
    28    15    22    1
    29    15    16   ar
    30     1     2   ar
    31     4     3   ar
    32    25    24   ar
    33    22    23   ar
    34    16    17    1
    35    36    37    1
    36     2     3   ar
    37     2     8    1
    38    30    29    1
    39     3     9    1
    40    24    23   ar
    41    24    29    1
    42    23    28    1
    43    11     9    1
    44    29    31    1
    45     9    10    1
