@<TRIPOS>MOLECULE
mol_data/opt/m06hf/geoms/mol2/13ah13ah.out
 22 23 0 0 0
SMALL
GASTEIGER

@<TRIPOS>ATOM
      1 C           1.2113   -0.2468    0.4530 C.ar    1  LIG1        0.0040
      2 C           0.8470    0.9975   -0.0040 C.ar    1  LIG1       -0.0230
      3 C          -0.5585    0.9623   -0.2414 C.ar    1  LIG1        0.0516
      4 C          -0.9965   -0.3038    0.0809 C.ar    1  LIG1        0.0838
      5 N           0.0990   -1.0275    0.5014 N.ar    1  LIG1       -0.3580
      6 H           0.0417   -1.9468    0.9075 H       1  LIG1        0.1654
      7 H           2.1730   -0.6236    0.7551 H       1  LIG1        0.0807
      8 H           1.5004    1.8410   -0.1504 H       1  LIG1        0.0651
      9 N          -1.3614    2.0309   -0.6889 N.pl3   1  LIG1       -0.3563
     10 H          -0.9349    2.5239   -1.4647 H       1  LIG1        0.1424
     11 H          -2.2845    1.7032   -0.9555 H       1  LIG1        0.1424
     12 C          -2.3425   -0.8693    0.0025 C.ar    1  LIG1        0.0665
     13 C          -3.5464   -0.3740    0.4574 C.ar    1  LIG1       -0.0142
     14 C          -4.5571   -1.3115    0.0896 C.ar    1  LIG1        0.0427
     15 C          -3.9341   -2.3455   -0.5667 C.ar    1  LIG1        0.0230
     16 N          -2.5886   -2.0688   -0.6021 N.ar    1  LIG1       -0.3578
     17 H          -1.8972   -2.5916   -1.1138 H       1  LIG1        0.1654
     18 H          -4.3387   -3.2474   -0.9919 H       1  LIG1        0.0826
     19 H          -3.6735    0.5269    1.0357 H       1  LIG1        0.0658
     20 N          -5.9248   -1.2083    0.4321 N.pl3   1  LIG1       -0.3568
     21 H          -6.2860   -0.2791    0.2492 H       1  LIG1        0.1424
     22 H          -6.4937   -1.8884   -0.0573 H       1  LIG1        0.1424
@<TRIPOS>BOND
     1    10     9    1
     2    17    16    1
     3    18    15    1
     4    11     9    1
     5     9     3    1
     6    16    15   ar
     7    16    12   ar
     8    15    14   ar
     9     3     2   ar
    10     3     4   ar
    11     8     2    1
    12    22    20    1
    13     2     1   ar
    14    12     4    1
    15    12    13   ar
    16     4     5   ar
    17    14    20    1
    18    14    13   ar
    19    21    20    1
    20     1     5   ar
    21     1     7    1
    22    13    19    1
    23     5     6    1
