@<TRIPOS>MOLECULE
mol_data/opt/m06hf/geoms/mol2/13ah4lh12fd-4fe-.out
 50 53 0 0 0
SMALL
GASTEIGER

@<TRIPOS>ATOM
      1 C           0.7604    1.3132    1.0417 C.ar    1  LIG1        0.0040
      2 C           1.2135    0.7994   -0.1519 C.ar    1  LIG1       -0.0231
      3 C           0.1834   -0.0341   -0.6655 C.ar    1  LIG1        0.0503
      4 C          -0.8650   -0.0011    0.2413 C.ar    1  LIG1        0.0710
      5 N          -0.4917    0.8393    1.2603 N.ar    1  LIG1       -0.3591
      6 H          -1.1208    1.0922    2.0087 H       1  LIG1        0.1654
      7 H           1.2307    1.9877    1.7362 H       1  LIG1        0.0807
      8 H           2.1570    1.0016   -0.6292 H       1  LIG1        0.0651
      9 N           0.2332   -0.6920   -1.9222 N.pl3   1  LIG1       -0.3563
     10 H           0.8434   -1.5025   -1.9105 H       1  LIG1        0.1424
     11 H          -0.6892   -0.9634   -2.2425 H       1  LIG1        0.1424
     12 C          -3.3062   -0.0604    0.7962 C.ar    1  LIG1        0.1300
     13 C          -4.5279   -0.7006    0.7882 C.ar    1  LIG1       -0.0067
     14 C          -2.1755   -0.6711    0.2294 C.ar    1  LIG1        0.0435
     15 C          -4.6821   -1.9699    0.2140 C.ar    1  LIG1        0.0451
     16 H          -5.3742   -0.2040    1.2450 H       1  LIG1        0.0662
     17 C          -2.3295   -1.9375   -0.3273 C.ar    1  LIG1       -0.0277
     18 C          -3.5623   -2.6037   -0.3644 C.ar    1  LIG1        0.0363
     19 H          -1.4554   -2.4461   -0.7156 H       1  LIG1        0.0644
     20 O          -3.2054    1.1834    1.3891 O.3     1  LIG1       -0.4944
     21 C          -3.2362    2.2522    0.4392 C.3     1  LIG1        0.0788
     22 H          -3.1288    3.1733    1.0076 H       1  LIG1        0.0660
     23 H          -2.4127    2.1487   -0.2707 H       1  LIG1        0.0660
     24 H          -4.1917    2.2444   -0.0886 H       1  LIG1        0.0660
     25 N          -3.6112   -3.8851   -0.9050 N.pl3   1  LIG1       -0.3574
     26 H          -4.5079   -4.2024   -1.2389 H       1  LIG1        0.1423
     27 H          -2.8469   -4.1089   -1.5240 H       1  LIG1        0.1423
     28 C          -6.0129   -2.5804    0.2656 C.ar    1  LIG1        0.1801
     29 C          -7.2381   -2.1043    0.6261 C.ar    1  LIG1        0.1811
     30 C          -8.1678   -3.1956    0.5057 C.ar    1  LIG1        0.1395
     31 C          -7.4452   -4.2767    0.0730 C.ar    1  LIG1        0.1602
     32 O          -6.1679   -3.8950   -0.0691 O.2     1  LIG1       -0.4495
     33 O          -7.5372   -0.8498    1.0290 O.3     1  LIG1       -0.5023
     34 H          -8.4692   -0.7906    1.2771 H       1  LIG1        0.2923
     35 N         -10.5847   -2.7389    1.2560 N.1     1  LIG1       -0.1906
     36 C          -9.5363   -3.0325    0.8898 C.1     1  LIG1        0.1067
     37 C          -8.9918   -6.1526   -0.5181 C.ar    1  LIG1        0.1276
     38 C          -9.2086   -7.5059   -0.7715 C.ar    1  LIG1       -0.0183
     39 C          -7.7065   -5.6928   -0.2066 C.ar    1  LIG1        0.0612
     40 C          -8.1481   -8.3983   -0.7291 C.ar    1  LIG1       -0.0428
     41 H         -10.2067   -7.8514   -1.0114 H       1  LIG1        0.0655
     42 C          -6.6435   -6.5960   -0.1757 C.ar    1  LIG1       -0.0321
     43 C          -6.8552   -7.9491   -0.4379 C.ar    1  LIG1        0.0256
     44 H          -5.6485   -6.2412    0.0614 H       1  LIG1        0.0638
     45 H          -8.3123   -9.4487   -0.9260 H       1  LIG1        0.0631
     46 O          -9.9738   -5.2274   -0.5781 O.3     1  LIG1       -0.5061
     47 H         -10.8460   -5.6242   -0.6741 H       1  LIG1        0.2922
     48 C          -5.7514   -8.8784   -0.3983 C.1     1  LIG1       -0.0696
     49 C          -4.8339   -9.6530   -0.3654 C.1     1  LIG1       -0.1139
     50 H          -4.0176  -10.3366   -0.3308 H       1  LIG1        0.1232
@<TRIPOS>BOND
     1    11     9    1
     2     9    10    1
     3     9     3    1
     4    27    25    1
     5    26    25    1
     6    41    38    1
     7    45    40    1
     8    25    18    1
     9    38    40   ar
    10    38    37   ar
    11    40    43   ar
    12    19    17    1
    13    47    46    1
    14     3     2   ar
    15     3     4   ar
    16     8     2    1
    17    46    37    1
    18    37    39   ar
    19    43    48    1
    20    43    42   ar
    21    48    49    3
    22    49    50    1
    23    18    17   ar
    24    18    15   ar
    25    17    14   ar
    26    23    21    1
    27    39    42   ar
    28    39    31    1
    29    42    44    1
    30     2     1   ar
    31    24    21    1
    32    32    31   ar
    33    32    28   ar
    34    31    30   ar
    35    15    28    1
    36    15    13   ar
    37    14     4    1
    38    14    12   ar
    39     4     5   ar
    40    28    29   ar
    41    21    22    1
    42    21    20    1
    43    30    29   ar
    44    30    36    1
    45    29    33    1
    46    13    12   ar
    47    13    16    1
    48    12    20    1
    49    36    35    3
    50    33    34    1
    51     1     5   ar
    52     1     7    1
    53     5     6    1
