@<TRIPOS>MOLECULE
mol_data/opt/m06hf/geoms/mol2/13ah13ah13ah.out
 32 34 0 0 0
SMALL
GASTEIGER

@<TRIPOS>ATOM
      1 C           1.1664    0.0595    0.9258 C.ar    1  LIG1        0.0040
      2 C           0.9051    1.0538    0.0136 C.ar    1  LIG1       -0.0230
      3 C          -0.4528    0.9026   -0.3938 C.ar    1  LIG1        0.0516
      4 C          -0.9665   -0.1796    0.2870 C.ar    1  LIG1        0.0839
      5 N           0.0383   -0.6823    1.0866 N.ar    1  LIG1       -0.3580
      6 H          -0.1012   -1.3938    1.7853 H       1  LIG1        0.1654
      7 H           2.0648   -0.1639    1.4743 H       1  LIG1        0.0807
      8 H           1.5948    1.8074   -0.3276 H       1  LIG1        0.0651
      9 N          -1.1532    1.7243   -1.2992 N.pl3   1  LIG1       -0.3563
     10 H          -0.6026    1.9351   -2.1233 H       1  LIG1        0.1424
     11 H          -2.0342    1.3001   -1.5705 H       1  LIG1        0.1424
     12 C          -2.3034   -0.7670    0.2200 C.ar    1  LIG1        0.0670
     13 C          -3.5455   -0.1650    0.2882 C.ar    1  LIG1       -0.0135
     14 C          -4.5224   -1.1925    0.1525 C.ar    1  LIG1        0.0523
     15 C          -3.8463   -2.3869    0.0131 C.ar    1  LIG1        0.0843
     16 N          -2.4978   -2.1068    0.0581 N.ar    1  LIG1       -0.3504
     17 H          -1.7632   -2.7912   -0.0249 H       1  LIG1        0.1660
     18 H          -3.7196    0.8841    0.4651 H       1  LIG1        0.0658
     19 N          -5.9202   -1.0382    0.2096 N.pl3   1  LIG1       -0.3563
     20 H          -6.2371   -0.2229   -0.3005 H       1  LIG1        0.1424
     21 H          -6.3948   -1.8702   -0.1252 H       1  LIG1        0.1424
     22 C          -4.3804   -3.7352   -0.1698 C.ar    1  LIG1        0.0665
     23 C          -5.3622   -4.4053    0.5300 C.ar    1  LIG1       -0.0142
     24 C          -5.5254   -5.6825   -0.0848 C.ar    1  LIG1        0.0427
     25 C          -4.6344   -5.7478   -1.1296 C.ar    1  LIG1        0.0230
     26 N          -3.9408   -4.5620   -1.1633 N.ar    1  LIG1       -0.3578
     27 H          -3.3038   -4.2797   -1.8899 H       1  LIG1        0.1654
     28 H          -4.4369   -6.5400   -1.8302 H       1  LIG1        0.0826
     29 H          -5.8618   -4.0378    1.4119 H       1  LIG1        0.0658
     30 N          -6.3862   -6.7046    0.3731 N.pl3   1  LIG1       -0.3568
     31 H          -7.2749   -6.3322    0.6853 H       1  LIG1        0.1424
     32 H          -6.5496   -7.4135   -0.3316 H       1  LIG1        0.1424
@<TRIPOS>BOND
     1    10     9    1
     2    27    26    1
     3    28    25    1
     4    11     9    1
     5     9     3    1
     6    26    25   ar
     7    26    22   ar
     8    25    24   ar
     9     3     2   ar
    10     3     4   ar
    11    32    30    1
    12     8     2    1
    13    20    19    1
    14    22    15    1
    15    22    23   ar
    16    21    19    1
    17    24    30    1
    18    24    23   ar
    19    17    16    1
    20    15    16   ar
    21    15    14   ar
    22     2     1   ar
    23    16    12   ar
    24    14    19    1
    25    14    13   ar
    26    12     4    1
    27    12    13   ar
    28     4     5   ar
    29    13    18    1
    30    30    31    1
    31    23    29    1
    32     1     5   ar
    33     1     7    1
    34     5     6    1
