@<TRIPOS>MOLECULE
mol_data/opt/m06hf/geoms/mol2/13ah13ah-13ah.out
 32 34 0 0 0
SMALL
GASTEIGER

@<TRIPOS>ATOM
      1 C           1.2822   -0.3140   -0.0931 C.ar    1  LIG1        0.0040
      2 C           0.8497    0.9880   -0.0815 C.ar    1  LIG1       -0.0230
      3 C          -0.5760    0.9510   -0.0757 C.ar    1  LIG1        0.0516
      4 C          -0.9581   -0.3751   -0.0840 C.ar    1  LIG1        0.0839
      5 N           0.1817   -1.1246   -0.0942 N.ar    1  LIG1       -0.3580
      6 H           0.2004   -2.1312   -0.1035 H       1  LIG1        0.1654
      7 H           2.2759   -0.7259   -0.1005 H       1  LIG1        0.0807
      8 H           1.4704    1.8692   -0.0772 H       1  LIG1        0.0651
      9 N          -1.5127    2.0383   -0.0635 N.pl3   1  LIG1       -0.3563
     10 H          -1.3862    2.6125    0.7653 H       1  LIG1        0.1424
     11 H          -1.3834    2.6327   -0.8775 H       1  LIG1        0.1424
     12 C          -2.2988   -0.9521   -0.0807 C.ar    1  LIG1        0.0670
     13 C          -2.7567   -2.2548   -0.0776 C.ar    1  LIG1       -0.0135
     14 C          -4.1773   -2.1862   -0.0720 C.ar    1  LIG1        0.0523
     15 C          -4.5324   -0.8487   -0.0717 C.ar    1  LIG1        0.0843
     16 N          -3.3827   -0.1242   -0.0775 N.ar    1  LIG1       -0.3504
     17 H          -3.2639    0.8864   -0.0732 H       1  LIG1        0.1660
     18 H          -2.1617   -3.1551   -0.0779 H       1  LIG1        0.0658
     19 N          -5.1341   -3.2563   -0.0646 N.pl3   1  LIG1       -0.3563
     20 H          -5.0245   -3.8425   -0.8873 H       1  LIG1        0.1424
     21 H          -5.0096   -3.8433    0.7555 H       1  LIG1        0.1424
     22 C          -5.8600   -0.2421   -0.0659 C.ar    1  LIG1        0.0665
     23 C          -6.2750    1.0757   -0.0621 C.ar    1  LIG1       -0.0142
     24 C          -7.6972    1.0585   -0.0528 C.ar    1  LIG1        0.0427
     25 C          -8.0911   -0.2619   -0.0481 C.ar    1  LIG1        0.0230
     26 N          -6.9645   -1.0345   -0.0456 N.ar    1  LIG1       -0.3578
     27 H          -6.8764   -2.0458   -0.0370 H       1  LIG1        0.1654
     28 H          -9.0764   -0.6943   -0.0397 H       1  LIG1        0.0826
     29 H          -5.6524    1.9556   -0.0486 H       1  LIG1        0.0658
     30 N          -8.5207    2.2153   -0.0071 N.pl3   1  LIG1       -0.3568
     31 H          -8.4036    2.7809   -0.8414 H       1  LIG1        0.1424
     32 H          -9.4996    1.9680    0.0805 H       1  LIG1        0.1424
@<TRIPOS>BOND
     1    20    19    1
     2    11     9    1
     3    31    30    1
     4     6     5    1
     5     7     1    1
     6     5     1   ar
     7     5     4   ar
     8     1     2   ar
     9     4    12    1
    10     4     3   ar
    11     2     8    1
    12     2     3   ar
    13    12    13   ar
    14    12    16   ar
    15    18    13    1
    16    13    14   ar
    17    16    17    1
    18    16    15   ar
    19     3     9    1
    20    14    15   ar
    21    14    19    1
    22    15    22    1
    23    22    23   ar
    24    22    26   ar
    25    19    21    1
    26     9    10    1
    27    23    24   ar
    28    23    29    1
    29    24    25   ar
    30    24    30    1
    31    25    26   ar
    32    25    28    1
    33    26    27    1
    34    30    32    1
