@<TRIPOS>MOLECULE
mol_data/opt/m06hf/geoms/mol2/13ah13ah-4ah13ah.out
 44 47 0 0 0
SMALL
GASTEIGER

@<TRIPOS>ATOM
      1 C           1.3416   -0.2911    0.1888 C.ar    1  LIG1        0.0040
      2 C           0.8712    0.9765    0.4240 C.ar    1  LIG1       -0.0230
      3 C          -0.5501    0.9154    0.3261 C.ar    1  LIG1        0.0516
      4 C          -0.8914   -0.3898    0.0335 C.ar    1  LIG1        0.0839
      5 N           0.2681   -1.1037   -0.0450 N.ar    1  LIG1       -0.3580
      6 H           0.3172   -2.0887   -0.2457 H       1  LIG1        0.1654
      7 H           2.3458   -0.6766    0.1697 H       1  LIG1        0.0807
      8 H           1.4655    1.8488    0.6422 H       1  LIG1        0.0651
      9 N          -1.5193    1.9612    0.4887 N.pl3   1  LIG1       -0.3563
     10 H          -1.4543    2.3706    1.4165 H       1  LIG1        0.1424
     11 H          -1.3663    2.7024   -0.1895 H       1  LIG1        0.1424
     12 C          -2.2113   -0.9779   -0.1698 C.ar    1  LIG1        0.0669
     13 C          -2.6222   -2.2682   -0.4626 C.ar    1  LIG1       -0.0136
     14 C          -4.0388   -2.2424   -0.5237 C.ar    1  LIG1        0.0508
     15 C          -4.4468   -0.9418   -0.2691 C.ar    1  LIG1        0.0679
     16 N          -3.3139   -0.1978   -0.0720 N.ar    1  LIG1       -0.3515
     17 H          -3.2371    0.7821    0.1887 H       1  LIG1        0.1660
     18 H          -1.9943   -3.1310   -0.6207 H       1  LIG1        0.0658
     19 N          -4.8995   -3.3368   -0.7909 N.pl3   1  LIG1       -0.3563
     20 H          -5.5718   -3.1063   -1.5173 H       1  LIG1        0.1424
     21 H          -4.3728   -4.1531   -1.0784 H       1  LIG1        0.1424
     22 C          -6.0080    0.9887   -0.5452 C.ar    1  LIG1       -0.0518
     23 C          -7.2878    1.5184   -0.4699 C.ar    1  LIG1       -0.0502
     24 C          -5.7935   -0.3569   -0.2271 C.ar    1  LIG1        0.0019
     25 C          -8.3861    0.7356   -0.1099 C.ar    1  LIG1        0.0190
     26 H          -7.4525    2.5677   -0.6778 H       1  LIG1        0.0625
     27 C          -6.8847   -1.1514    0.1364 C.ar    1  LIG1       -0.0312
     28 C          -8.1735   -0.6240    0.1843 C.ar    1  LIG1        0.0344
     29 H          -6.7138   -2.1923    0.3899 H       1  LIG1        0.0643
     30 H          -5.1814    1.6144   -0.8567 H       1  LIG1        0.0624
     31 N          -9.2620   -1.4369    0.5762 N.pl3   1  LIG1       -0.3574
     32 H         -10.0736   -1.3061   -0.0210 H       1  LIG1        0.1423
     33 H          -9.0115   -2.4168    0.6259 H       1  LIG1        0.1423
     34 C          -9.7264    1.3511   -0.0335 C.ar    1  LIG1        0.0500
     35 C         -10.2669    2.3972   -0.7564 C.ar    1  LIG1       -0.0157
     36 C         -11.5638    2.6518   -0.2312 C.ar    1  LIG1        0.0427
     37 C         -11.7714    1.7540    0.7918 C.ar    1  LIG1        0.0230
     38 N         -10.6499    0.9758    0.8985 N.ar    1  LIG1       -0.3590
     39 H         -10.4804    0.2418    1.5720 H       1  LIG1        0.1654
     40 H         -12.6206    1.6149    1.4378 H       1  LIG1        0.0826
     41 H          -9.7938    2.9161   -1.5742 H       1  LIG1        0.0657
     42 N         -12.4354    3.6786   -0.6694 N.pl3   1  LIG1       -0.3568
     43 H         -12.5398    3.6698   -1.6782 H       1  LIG1        0.1424
     44 H         -13.3521    3.6001   -0.2457 H       1  LIG1        0.1424
@<TRIPOS>BOND
     1    43    42    1
     2    41    35    1
     3    20    19    1
     4    21    19    1
     5    30    22    1
     6    19    14    1
     7    35    36   ar
     8    35    34   ar
     9    26    23    1
    10    42    44    1
    11    42    36    1
    12    18    13    1
    13    22    23   ar
    14    22    24   ar
    15    14    13   ar
    16    14    15   ar
    17    23    25   ar
    18    13    12   ar
    19    15    24    1
    20    15    16   ar
    21     6     5    1
    22    36    37   ar
    23    24    27   ar
    24    11     9    1
    25    12    16   ar
    26    12     4    1
    27    25    34    1
    28    25    28   ar
    29    16    17    1
    30     5     4   ar
    31     5     1   ar
    32    34    38   ar
    33    32    31    1
    34     4     3   ar
    35    27    28   ar
    36    27    29    1
    37     7     1    1
    38    28    31    1
    39     1     2   ar
    40     3     2   ar
    41     3     9    1
    42     2     8    1
    43     9    10    1
    44    31    33    1
    45    37    38   ar
    46    37    40    1
    47    38    39    1
