@<TRIPOS>MOLECULE
mol_data/opt/m06hf/geoms/mol2/13ah13ah-.out
 22 23 0 0 0
SMALL
GASTEIGER

@<TRIPOS>ATOM
      1 C           1.2269   -0.2568    0.0024 C.ar    1  LIG1        0.0040
      2 C           0.7824    1.0377   -0.0910 C.ar    1  LIG1       -0.0230
      3 C          -0.6423    0.9847   -0.1238 C.ar    1  LIG1        0.0516
      4 C          -1.0118   -0.3429   -0.0494 C.ar    1  LIG1        0.0838
      5 N           0.1342   -1.0776    0.0259 N.ar    1  LIG1       -0.3580
      6 H           0.1610   -2.0813    0.0960 H       1  LIG1        0.1654
      7 H           2.2246   -0.6567    0.0539 H       1  LIG1        0.0807
      8 H           1.3954    1.9230   -0.1312 H       1  LIG1        0.0651
      9 N          -1.5887    2.0609   -0.2138 N.pl3   1  LIG1       -0.3563
     10 H          -1.4744    2.7022    0.5663 H       1  LIG1        0.1424
     11 H          -1.4497    2.5886   -1.0711 H       1  LIG1        0.1424
     12 C          -2.3455   -0.9382   -0.0451 C.ar    1  LIG1        0.0665
     13 C          -2.7787   -2.2485    0.0244 C.ar    1  LIG1       -0.0142
     14 C          -4.2009   -2.2130   -0.0100 C.ar    1  LIG1        0.0427
     15 C          -4.5749   -0.8898   -0.0955 C.ar    1  LIG1        0.0230
     16 N          -3.4379   -0.1333   -0.1050 N.ar    1  LIG1       -0.3578
     17 H          -3.3350    0.8760   -0.1553 H       1  LIG1        0.1654
     18 H          -5.5535   -0.4439   -0.1424 H       1  LIG1        0.0826
     19 H          -2.1742   -3.1371    0.1090 H       1  LIG1        0.0658
     20 N          -5.0416   -3.3544    0.0800 N.pl3   1  LIG1       -0.3568
     21 H          -6.0196   -3.0896    0.1148 H       1  LIG1        0.1424
     22 H          -4.9043   -3.9742   -0.7118 H       1  LIG1        0.1424
@<TRIPOS>BOND
     1    11     9    1
     2    22    20    1
     3     9     3    1
     4     9    10    1
     5    17    16    1
     6    18    15    1
     7     8     2    1
     8     3     2   ar
     9     3     4   ar
    10    16    15   ar
    11    16    12   ar
    12    15    14   ar
    13     2     1   ar
    14     4    12    1
    15     4     5   ar
    16    12    13   ar
    17    14    13   ar
    18    14    20    1
    19     1     5   ar
    20     1     7    1
    21    13    19    1
    22     5     6    1
    23    20    21    1
