@<TRIPOS>MOLECULE
mol_data/opt/m06hf/geoms/mol2/13ah13ah-13ah13ah-.out
 42 45 0 0 0
SMALL
GASTEIGER

@<TRIPOS>ATOM
      1 C           1.3395   -0.2665   -0.0690 C.ar    1  LIG1        0.0040
      2 C           0.9011    1.0319   -0.1323 C.ar    1  LIG1       -0.0230
      3 C          -0.5241    0.9876   -0.1430 C.ar    1  LIG1        0.0516
      4 C          -0.8998   -0.3395   -0.0876 C.ar    1  LIG1        0.0839
      5 N           0.2435   -1.0822   -0.0438 N.ar    1  LIG1       -0.3580
      6 H           0.2655   -2.0873    0.0101 H       1  LIG1        0.1654
      7 H           2.3359   -0.6707   -0.0401 H       1  LIG1        0.0807
      8 H           1.5188    1.9143   -0.1663 H       1  LIG1        0.0651
      9 N          -1.4660    2.0695   -0.1993 N.pl3   1  LIG1       -0.3563
     10 H          -1.3179    2.7123    0.5739 H       1  LIG1        0.1424
     11 H          -1.3584    2.5935   -1.0636 H       1  LIG1        0.1424
     12 C          -2.2365   -0.9240   -0.0714 C.ar    1  LIG1        0.0670
     13 C          -2.6845   -2.2301   -0.0453 C.ar    1  LIG1       -0.0135
     14 C          -4.1053   -2.1726   -0.0394 C.ar    1  LIG1        0.0523
     15 C          -4.4698   -0.8372   -0.0623 C.ar    1  LIG1        0.0843
     16 N          -3.3258   -0.1039   -0.0811 N.ar    1  LIG1       -0.3504
     17 H          -3.2119    0.9066   -0.1076 H       1  LIG1        0.1660
     18 H          -2.0828   -3.1251   -0.0340 H       1  LIG1        0.0658
     19 N          -5.0547   -3.2487   -0.0146 N.pl3   1  LIG1       -0.3563
     20 H          -4.9229   -3.8634   -0.8130 H       1  LIG1        0.1424
     21 H          -4.9467   -3.8051    0.8293 H       1  LIG1        0.1424
     22 C          -5.8031   -0.2475   -0.0650 C.ar    1  LIG1        0.0670
     23 C          -6.2412    1.0620   -0.0667 C.ar    1  LIG1       -0.0135
     24 C          -7.6625    1.0139   -0.0645 C.ar    1  LIG1        0.0523
     25 C          -8.0375   -0.3185   -0.0612 C.ar    1  LIG1        0.0843
     26 N          -6.8989   -1.0597   -0.0622 N.ar    1  LIG1       -0.3504
     27 H          -6.7967   -2.0718   -0.0540 H       1  LIG1        0.1660
     28 H          -5.6268    1.9484   -0.0674 H       1  LIG1        0.0658
     29 N          -8.6047    2.0977   -0.0623 N.pl3   1  LIG1       -0.3563
     30 H          -8.4668    2.6893    0.7526 H       1  LIG1        0.1424
     31 H          -8.4868    2.6765   -0.8895 H       1  LIG1        0.1424
     32 C          -9.3732   -0.9059   -0.0584 C.ar    1  LIG1        0.0665
     33 C          -9.8042   -2.2187   -0.0597 C.ar    1  LIG1       -0.0142
     34 C         -11.2260   -2.1840   -0.0555 C.ar    1  LIG1        0.0427
     35 C         -11.6036   -0.8586   -0.0482 C.ar    1  LIG1        0.0230
     36 N         -10.4670   -0.1000   -0.0396 N.ar    1  LIG1       -0.3578
     37 H         -10.3647    0.9099   -0.0304 H       1  LIG1        0.1654
     38 H         -12.5843   -0.4155   -0.0415 H       1  LIG1        0.0826
     39 H          -9.1906   -3.1044   -0.0483 H       1  LIG1        0.0658
     40 N         -12.0668   -3.3282   -0.0150 N.pl3   1  LIG1       -0.3568
     41 H         -13.0454   -3.0651   -0.0003 H       1  LIG1        0.1424
     42 H         -11.9065   -3.9262   -0.8189 H       1  LIG1        0.1424
@<TRIPOS>BOND
     1    11     9    1
     2    31    29    1
     3    42    40    1
     4    20    19    1
     5     9     3    1
     6     9    10    1
     7     8     2    1
     8     3     2   ar
     9     3     4   ar
    10     2     1   ar
    11    17    16    1
    12     4    12    1
    13     4     5   ar
    14    16    12   ar
    15    16    15   ar
    16    12    13   ar
    17     1     5   ar
    18     1     7    1
    19    28    23    1
    20    23    22   ar
    21    23    24   ar
    22    22    15    1
    23    22    26   ar
    24    24    29    1
    25    24    25   ar
    26    29    30    1
    27    15    14   ar
    28    26    25   ar
    29    26    27    1
    30    25    32    1
    31    33    32   ar
    32    33    34   ar
    33    33    39    1
    34    32    36   ar
    35    34    35   ar
    36    34    40    1
    37    35    38    1
    38    35    36   ar
    39    13    14   ar
    40    13    18    1
    41     5     6    1
    42    36    37    1
    43    14    19    1
    44    40    41    1
    45    19    21    1
