@<TRIPOS>MOLECULE
mol_data/opt/m06hf/geoms/mol2/13ah13ah13ah-13ah.out
 42 45 0 0 0
SMALL
GASTEIGER

@<TRIPOS>ATOM
      1 C           1.2532    0.0939    0.5939 C.ar    1  LIG1        0.0040
      2 C           0.8959    1.1129   -0.2570 C.ar    1  LIG1       -0.0230
      3 C          -0.4941    0.9594   -0.5356 C.ar    1  LIG1        0.0516
      4 C          -0.9304   -0.1480    0.1590 C.ar    1  LIG1        0.0839
      5 N           0.1527   -0.6650    0.8396 N.ar    1  LIG1       -0.3580
      6 H           0.0885   -1.4035    1.5208 H       1  LIG1        0.1654
      7 H           2.2036   -0.1361    1.0436 H       1  LIG1        0.0807
      8 H           1.5437    1.8839   -0.6390 H       1  LIG1        0.0651
      9 N          -1.2883    1.7998   -1.3388 N.pl3   1  LIG1       -0.3563
     10 H          -0.8022    2.0928   -2.1778 H       1  LIG1        0.1424
     11 H          -2.1646    1.3509   -1.5854 H       1  LIG1        0.1424
     12 C          -2.2599   -0.7501    0.2054 C.ar    1  LIG1        0.0670
     13 C          -3.4994   -0.1769    0.3902 C.ar    1  LIG1       -0.0135
     14 C          -4.4612   -1.2261    0.3195 C.ar    1  LIG1        0.0523
     15 C          -3.7774   -2.4060    0.1005 C.ar    1  LIG1        0.0843
     16 N          -2.4493   -2.0992    0.0356 N.ar    1  LIG1       -0.3504
     17 H          -1.7193   -2.7419   -0.2275 H       1  LIG1        0.1660
     18 H          -3.6797    0.8672    0.5919 H       1  LIG1        0.0658
     19 N          -5.8875   -1.1614    0.4580 N.pl3   1  LIG1       -0.3563
     20 H          -6.1451   -0.8370    1.3863 H       1  LIG1        0.1424
     21 H          -6.2845   -0.5141   -0.2176 H       1  LIG1        0.1424
     22 C          -4.2946   -3.7611   -0.0472 C.ar    1  LIG1        0.0670
     23 C          -3.6747   -4.9802   -0.2408 C.ar    1  LIG1       -0.0135
     24 C          -4.7077   -5.9552   -0.3087 C.ar    1  LIG1        0.0523
     25 C          -5.9156   -5.2969   -0.1532 C.ar    1  LIG1        0.0843
     26 N          -5.6410   -3.9757    0.0012 N.ar    1  LIG1       -0.3504
     27 H          -6.2860   -3.2028    0.1475 H       1  LIG1        0.1660
     28 H          -2.6151   -5.1659   -0.3213 H       1  LIG1        0.0658
     29 N          -4.6009   -7.3742   -0.4976 N.pl3   1  LIG1       -0.3563
     30 H          -4.1557   -7.5856   -1.3863 H       1  LIG1        0.1424
     31 H          -4.0393   -7.7928    0.2389 H       1  LIG1        0.1424
     32 C          -7.2707   -5.8383   -0.1408 C.ar    1  LIG1        0.0665
     33 C          -8.5046   -5.2359    0.0124 C.ar    1  LIG1       -0.0142
     34 C          -9.4778   -6.2707   -0.0576 C.ar    1  LIG1        0.0427
     35 C          -8.8019   -7.4568   -0.2473 C.ar    1  LIG1        0.0230
     36 N          -7.4658   -7.1759   -0.2844 N.ar    1  LIG1       -0.3578
     37 H          -6.6779   -7.8044   -0.4055 H       1  LIG1        0.1654
     38 H          -9.1750   -8.4612   -0.3489 H       1  LIG1        0.0826
     39 H          -8.7032   -4.1893    0.1748 H       1  LIG1        0.0658
     40 N         -10.8771   -6.0806    0.0962 N.pl3   1  LIG1       -0.3568
     41 H         -11.2497   -5.4881   -0.6388 H       1  LIG1        0.1424
     42 H         -11.3722   -6.9647    0.0784 H       1  LIG1        0.1424
@<TRIPOS>BOND
     1    10     9    1
     2    11     9    1
     3    30    29    1
     4     9     3    1
     5     8     2    1
     6    41    40    1
     7     3     2   ar
     8     3     4   ar
     9    29    24    1
    10    29    31    1
    11    37    36    1
    12    38    35    1
    13    28    23    1
    14    24    23   ar
    15    24    25   ar
    16    36    35   ar
    17    36    32   ar
    18     2     1   ar
    19    35    34   ar
    20    23    22   ar
    21    17    16    1
    22    21    19    1
    23    25    32    1
    24    25    26   ar
    25    32    33   ar
    26    34    33   ar
    27    34    40    1
    28    22    26   ar
    29    22    15    1
    30    26    27    1
    31    33    39    1
    32    16    15   ar
    33    16    12   ar
    34    42    40    1
    35    15    14   ar
    36     4    12    1
    37     4     5   ar
    38    12    13   ar
    39    14    13   ar
    40    14    19    1
    41    13    18    1
    42    19    20    1
    43     1     5   ar
    44     1     7    1
    45     5     6    1
