@<TRIPOS>MOLECULE
mol_data/opt/m06hf/geoms/mol2/13ah13ah-13ah-13ah-.out
 42 45 0 0 0
SMALL
GASTEIGER

@<TRIPOS>ATOM
      1 C           1.4130   -0.4072    0.0595 C.ar    1  LIG1        0.0040
      2 C           1.0023    0.7819    0.6075 C.ar    1  LIG1       -0.0230
      3 C          -0.4235    0.7674    0.6060 C.ar    1  LIG1        0.0516
      4 C          -0.8268   -0.4329    0.0564 C.ar    1  LIG1        0.0839
      5 N           0.3002   -1.1292   -0.2673 N.ar    1  LIG1       -0.3580
      6 H           0.3003   -2.0440   -0.6873 H       1  LIG1        0.1654
      7 H           2.4008   -0.7926   -0.1227 H       1  LIG1        0.0807
      8 H           1.6387    1.5722    0.9706 H       1  LIG1        0.0651
      9 N          -1.3440    1.7634    1.0761 N.pl3   1  LIG1       -0.3563
     10 H          -1.2464    1.8955    2.0795 H       1  LIG1        0.1424
     11 H          -1.1629    2.6582    0.6301 H       1  LIG1        0.1424
     12 C          -2.1752   -0.9423   -0.1705 C.ar    1  LIG1        0.0670
     13 C          -2.6405   -2.1580   -0.6417 C.ar    1  LIG1       -0.0135
     14 C          -4.0595   -2.0905   -0.6229 C.ar    1  LIG1        0.0523
     15 C          -4.4061   -0.8433   -0.1374 C.ar    1  LIG1        0.0843
     16 N          -3.2443   -0.1631    0.1291 N.ar    1  LIG1       -0.3504
     17 H          -3.1226    0.7419    0.5761 H       1  LIG1        0.1660
     18 H          -2.0498   -3.0044   -0.9530 H       1  LIG1        0.0658
     19 N          -4.9552   -3.1131   -0.9965 N.pl3   1  LIG1       -0.3563
     20 H          -5.8917   -2.7430   -1.1279 H       1  LIG1        0.1424
     21 H          -4.6539   -3.5878   -1.8393 H       1  LIG1        0.1424
     22 C          -5.7337   -0.2664    0.0476 C.ar    1  LIG1        0.0670
     23 C          -6.8873   -0.8288    0.5620 C.ar    1  LIG1       -0.0135
     24 C          -7.9047    0.1662    0.5038 C.ar    1  LIG1        0.0523
     25 C          -7.3396    1.3024   -0.0360 C.ar    1  LIG1        0.0843
     26 N          -6.0181    1.0183   -0.3073 N.ar    1  LIG1       -0.3504
     27 H          -5.3538    1.6717   -0.6897 H       1  LIG1        0.1660
     28 H          -6.9654   -1.8185    0.9818 H       1  LIG1        0.0658
     29 N          -9.2297    0.0408    0.9645 N.pl3   1  LIG1       -0.3563
     30 H          -9.8063    0.8060    0.6299 H       1  LIG1        0.1424
     31 H          -9.6407   -0.8468    0.7002 H       1  LIG1        0.1424
     32 C          -7.9549    2.5964   -0.3240 C.ar    1  LIG1        0.0665
     33 C          -8.7476    3.4030    0.4660 C.ar    1  LIG1       -0.0142
     34 C          -9.1109    4.5393   -0.3172 C.ar    1  LIG1        0.0427
     35 C          -8.5227    4.3887   -1.5502 C.ar    1  LIG1        0.0230
     36 N          -7.8173    3.2092   -1.5365 N.ar    1  LIG1       -0.3578
     37 H          -7.3828    2.7804   -2.3371 H       1  LIG1        0.1654
     38 H          -8.5433    5.0264   -2.4164 H       1  LIG1        0.0826
     39 H          -8.9892    3.2196    1.5006 H       1  LIG1        0.0658
     40 N          -9.8612    5.6435    0.1446 N.pl3   1  LIG1       -0.3568
     41 H         -10.2334    6.2007   -0.6149 H       1  LIG1        0.1424
     42 H         -10.6189    5.3542    0.7514 H       1  LIG1        0.1424
@<TRIPOS>BOND
     1    38    35    1
     2    37    36    1
     3    21    19    1
     4    35    36   ar
     5    35    34   ar
     6    36    32   ar
     7    20    19    1
     8    19    14    1
     9    18    13    1
    10    27    26    1
    11     6     5    1
    12    13    14   ar
    13    13    12   ar
    14    14    15   ar
    15    41    40    1
    16    32    25    1
    17    32    33   ar
    18    34    40    1
    19    34    33   ar
    20    26    25   ar
    21    26    22   ar
    22     5     4   ar
    23     5     1   ar
    24    12     4    1
    25    12    16   ar
    26    15    22    1
    27    15    16   ar
    28     7     1    1
    29    25    24   ar
    30    22    23   ar
    31     4     3   ar
    32     1     2   ar
    33    16    17    1
    34    40    42    1
    35    33    39    1
    36    24    23   ar
    37    24    29    1
    38    23    28    1
    39     3     2   ar
    40     3     9    1
    41     2     8    1
    42    30    29    1
    43    11     9    1
    44    31    29    1
    45     9    10    1
