@<TRIPOS>MOLECULE
mol_data/opt/m06hf/geoms/mol2/13ah13ah13ah13ah-.out
 42 45 0 0 0
SMALL
GASTEIGER

@<TRIPOS>ATOM
      1 C           0.6994    0.7519    1.5747 C.ar    1  LIG1        0.0040
      2 C           0.7617    1.3561    0.3415 C.ar    1  LIG1       -0.0230
      3 C          -0.3924    0.9427   -0.3868 C.ar    1  LIG1        0.0516
      4 C          -1.1136    0.1016    0.4324 C.ar    1  LIG1        0.0839
      5 N          -0.4286   -0.0053    1.6247 N.ar    1  LIG1       -0.3580
      6 H          -0.7990   -0.4502    2.4483 H       1  LIG1        0.1654
      7 H           1.3664    0.8171    2.4166 H       1  LIG1        0.0807
      8 H           1.5343    2.0206   -0.0075 H       1  LIG1        0.0651
      9 N          -0.7519    1.3434   -1.6887 N.pl3   1  LIG1       -0.3563
     10 H           0.0437    1.3458   -2.3164 H       1  LIG1        0.1424
     11 H          -1.4860    0.7508   -2.0626 H       1  LIG1        0.1424
     12 C          -2.3663   -0.6024    0.1666 C.ar    1  LIG1        0.0670
     13 C          -3.5521   -0.1369   -0.3690 C.ar    1  LIG1       -0.0135
     14 C          -4.4524   -1.2384   -0.4263 C.ar    1  LIG1        0.0523
     15 C          -3.7914   -2.3373    0.0826 C.ar    1  LIG1        0.0843
     16 N          -2.5232   -1.9293    0.4381 N.ar    1  LIG1       -0.3504
     17 H          -1.8102   -2.5256    0.8264 H       1  LIG1        0.1660
     18 H          -3.7528    0.8871   -0.6391 H       1  LIG1        0.0658
     19 N          -5.7907   -1.2101   -0.8599 N.pl3   1  LIG1       -0.3563
     20 H          -5.9172   -0.6156   -1.6699 H       1  LIG1        0.1424
     21 H          -6.1355   -2.1447   -1.0542 H       1  LIG1        0.1424
     22 C          -4.2674   -3.7088    0.2420 C.ar    1  LIG1        0.0670
     23 C          -5.4382   -4.1914    0.7862 C.ar    1  LIG1       -0.0135
     24 C          -5.3984   -5.6112    0.6747 C.ar    1  LIG1        0.0523
     25 C          -4.2029   -5.9500    0.0712 C.ar    1  LIG1        0.0843
     26 N          -3.5347   -4.7887   -0.1845 N.ar    1  LIG1       -0.3504
     27 H          -2.6721   -4.7236   -0.7011 H       1  LIG1        0.1660
     28 H          -6.2068   -3.5876    1.2425 H       1  LIG1        0.0658
     29 N          -6.3651   -6.5827    1.1001 N.pl3   1  LIG1       -0.3563
     30 H          -6.5470   -6.4929    2.0960 H       1  LIG1        0.1424
     31 H          -7.2471   -6.4459    0.6136 H       1  LIG1        0.1424
     32 C          -3.6708   -7.2662   -0.2667 C.ar    1  LIG1        0.0665
     33 C          -2.4936   -7.6624   -0.8727 C.ar    1  LIG1       -0.0142
     34 C          -2.5193   -9.0833   -0.9311 C.ar    1  LIG1        0.0427
     35 C          -3.7038   -9.4943   -0.3582 C.ar    1  LIG1        0.0230
     36 N          -4.3819   -8.3809    0.0473 N.ar    1  LIG1       -0.3578
     37 H          -5.2819   -8.3092    0.5118 H       1  LIG1        0.1654
     38 H          -4.0981  -10.4844   -0.2082 H       1  LIG1        0.0826
     39 H          -1.6901   -7.0339   -1.2214 H       1  LIG1        0.0658
     40 N          -1.4713   -9.8903   -1.4467 N.pl3   1  LIG1       -0.3568
     41 H          -1.6514  -10.8757   -1.2934 H       1  LIG1        0.1424
     42 H          -1.3391   -9.7350   -2.4406 H       1  LIG1        0.1424
@<TRIPOS>BOND
     1    42    40    1
     2    10     9    1
     3    11     9    1
     4     9     3    1
     5    20    19    1
     6    40    41    1
     7    40    34    1
     8    39    33    1
     9    21    19    1
    10    34    33   ar
    11    34    35   ar
    12    33    32   ar
    13    19    14    1
    14    27    26    1
    15    18    13    1
    16    14    13   ar
    17    14    15   ar
    18     3     2   ar
    19     3     4   ar
    20    13    12   ar
    21    35    38    1
    22    35    36   ar
    23    32    36   ar
    24    32    25    1
    25    26    25   ar
    26    26    22   ar
    27     8     2    1
    28    36    37    1
    29    25    24   ar
    30    15    22    1
    31    15    16   ar
    32    12     4    1
    33    12    16   ar
    34    22    23   ar
    35     2     1   ar
    36     4     5   ar
    37    16    17    1
    38    31    29    1
    39    24    23   ar
    40    24    29    1
    41    23    28    1
    42    29    30    1
    43     1     5   ar
    44     1     7    1
    45     5     6    1
