@<TRIPOS>MOLECULE
mol_data/opt/m06hf/geoms/mol2/13ah12al13el6la6dd-4ai-13ah-4fd-.out
 96 103 0 0 0
SMALL
GASTEIGER

@<TRIPOS>ATOM
      1 C          -0.4666    0.4833    3.2970 C.ar    1  LIG1        0.0041
      2 C          -0.5342    1.7218    2.6973 C.ar    1  LIG1       -0.0230
      3 C          -1.4453    1.6116    1.6110 C.ar    1  LIG1        0.0532
      4 C          -1.8980    0.3072    1.5947 C.ar    1  LIG1        0.1031
      5 N          -1.2815   -0.3642    2.6201 N.ar    1  LIG1       -0.3568
      6 H          -1.4489   -1.3345    2.8331 H       1  LIG1        0.1655
      7 H           0.1044    0.1522    4.1468 H       1  LIG1        0.0807
      8 H           0.0040    2.6055    2.9970 H       1  LIG1        0.0651
      9 N          -1.8608    2.6138    0.7087 N.pl3   1  LIG1       -0.3562
     10 H          -1.3648    3.4835    0.8587 H       1  LIG1        0.1424
     11 H          -1.7459    2.3206   -0.2567 H       1  LIG1        0.1424
     12 C          -2.8634   -0.3219    0.7187 C.ar    1  LIG1        0.1573
     13 C          -3.8069    0.1817   -0.1232 C.ar    1  LIG1        0.0282
     14 C          -4.4471   -0.9680   -0.7089 C.ar    1  LIG1        0.1678
     15 C          -3.8660   -2.0698   -0.1613 C.ar    1  LIG1        0.1945
     16 O          -2.8817   -1.6768    0.6986 O.2     1  LIG1       -0.4480
     17 H          -4.0180    1.2254   -0.2813 H       1  LIG1        0.0693
     18 O          -5.4047   -0.9876   -1.6637 O.3     1  LIG1       -0.4912
     19 C          -6.6000   -0.2994   -1.3101 C.3     1  LIG1        0.0790
     20 H          -7.2895   -0.4507   -2.1370 H       1  LIG1        0.0660
     21 H          -7.0141   -0.7224   -0.3938 H       1  LIG1        0.0660
     22 H          -6.4042    0.7670   -1.1797 H       1  LIG1        0.0660
     23 C          -4.0497   -3.4968   -0.3488 C.ar    1  LIG1        0.1054
     24 C          -5.1760   -4.2436   -0.6796 C.ar    1  LIG1        0.0953
     25 C          -4.7552   -5.6014   -0.7026 C.ar    1  LIG1        0.1614
     26 C          -3.4070   -5.6485   -0.3909 C.ar    1  LIG1        0.0956
     27 N          -3.0156   -4.3514   -0.1795 N.ar    1  LIG1       -0.3476
     28 H          -2.0633   -4.0885    0.0341 H       1  LIG1        0.1661
     29 C          -6.5175   -3.7944   -0.8835 C.1     1  LIG1       -0.0637
     30 C          -7.6659   -3.4803   -1.0555 C.1     1  LIG1       -0.1137
     31 H          -8.6838   -3.2031   -1.2020 H       1  LIG1        0.1232
     32 O          -5.5517   -6.6736   -0.9690 O.3     1  LIG1       -0.4917
     33 C          -5.8901   -6.7951   -2.3541 C.3     1  LIG1        0.0789
     34 H          -6.5465   -7.6585   -2.4311 H       1  LIG1        0.0660
     35 H          -6.4068   -5.8966   -2.6912 H       1  LIG1        0.0660
     36 H          -4.9830   -6.9509   -2.9423 H       1  LIG1        0.0660
     37 C          -1.1144   -6.6915   -0.1261 C.ar    1  LIG1        0.2245
     38 C          -2.5209   -6.8083   -0.2734 C.ar    1  LIG1        0.0634
     39 C          -3.0227   -8.1044   -0.3118 C.ar    1  LIG1       -0.0454
     40 C          -2.1621   -9.1994   -0.2185 C.ar    1  LIG1       -0.0347
     41 C          -0.8063   -8.9558   -0.0686 C.ar    1  LIG1        0.0776
     42 N          -0.3035   -7.7172   -0.0225 N.ar    1  LIG1       -0.2123
     43 H          -4.0898   -8.2439   -0.4207 H       1  LIG1        0.0626
     44 O          -0.5832   -5.4546   -0.0808 O.3     1  LIG1       -0.4792
     45 C           0.8484   -5.3656   -0.0741 C.3     1  LIG1        0.0804
     46 H           1.0643   -4.3014   -0.0991 H       1  LIG1        0.0660
     47 H           1.2431   -5.8247    0.8309 H       1  LIG1        0.0660
     48 H           1.2548   -5.8726   -0.9476 H       1  LIG1        0.0660
     49 H          -2.5455  -10.2079   -0.2834 H       1  LIG1        0.0639
     50 C           1.4646  -10.0184   -0.4763 C.ar    1  LIG1        0.1499
     51 C           0.1732  -10.0675    0.0646 C.ar    1  LIG1        0.0376
     52 C          -0.1399  -11.2229    0.7734 C.ar    1  LIG1       -0.0303
     53 C           0.7948  -12.2466    0.8897 C.ar    1  LIG1        0.0784
     54 C           2.0562  -12.1157    0.2771 C.ar    1  LIG1        0.0898
     55 N           2.3561  -10.9952   -0.3767 N.ar    1  LIG1       -0.2344
     56 H          -1.0975  -11.3166    1.2689 H       1  LIG1        0.0638
     57 N           2.3367   -8.0011   -1.8787 N.1     1  LIG1       -0.1893
     58 C           1.9263   -8.8653   -1.2470 C.1     1  LIG1        0.1198
     59 N           0.0811  -14.2727    2.3436 N.1     1  LIG1       -0.1908
     60 C           0.4308  -13.3918    1.6966 C.1     1  LIG1        0.1013
     61 C           2.8431  -14.5183    0.3571 C.ar    1  LIG1       -0.0519
     62 C           3.8907  -15.4283    0.3855 C.ar    1  LIG1       -0.0518
     63 C           3.1252  -13.1517    0.3299 C.ar    1  LIG1        0.0019
     64 C           5.2212  -14.9996    0.3926 C.ar    1  LIG1        0.0013
     65 H           3.6866  -16.4907    0.3825 H       1  LIG1        0.0624
     66 C           4.4540  -12.7223    0.3245 C.ar    1  LIG1       -0.0490
     67 C           5.5130  -13.6243    0.3694 C.ar    1  LIG1       -0.0407
     68 H           4.6539  -11.6582    0.2964 H       1  LIG1        0.0627
     69 H           1.8246  -14.8804    0.3306 H       1  LIG1        0.0624
     70 C           6.9372  -13.0958    0.4264 C.3     1  LIG1       -0.0391
     71 H           6.9382  -12.0957    0.8579 H       1  LIG1        0.0278
     72 H           7.3712  -13.0235   -0.5745 H       1  LIG1        0.0278
     73 H           7.5653  -13.7465    1.0351 H       1  LIG1        0.0278
     74 C           6.2796  -16.0320    0.4532 C.ar    1  LIG1        0.0490
     75 C           6.3953  -17.1205    1.2925 C.ar    1  LIG1       -0.0151
     76 C           7.5942  -17.8039    0.9531 C.ar    1  LIG1        0.0509
     77 C           8.1746  -17.1092   -0.0971 C.ar    1  LIG1        0.0714
     78 N           7.3621  -16.0347   -0.3737 N.ar    1  LIG1       -0.3526
     79 H           7.5563  -15.3348   -1.0721 H       1  LIG1        0.1660
     80 H           5.7216  -17.3800    2.0927 H       1  LIG1        0.0657
     81 N           8.0548  -18.9654    1.6042 N.pl3   1  LIG1       -0.3563
     82 H           7.4652  -19.7689    1.4227 H       1  LIG1        0.1424
     83 H           9.0240  -19.1643    1.3948 H       1  LIG1        0.1424
     84 C          10.5950  -17.7520   -0.3818 C.ar    1  LIG1        0.1261
     85 C          11.7117  -17.9598   -1.1900 C.ar    1  LIG1       -0.0183
     86 C           9.3595  -17.3723   -0.9328 C.ar    1  LIG1        0.0427
     87 C          11.6273  -17.7785   -2.5623 C.ar    1  LIG1       -0.0409
     88 H          12.6517  -18.2542   -0.7385 H       1  LIG1        0.0655
     89 C           9.2873  -17.2105   -2.3163 C.ar    1  LIG1       -0.0317
     90 C          10.4087  -17.4007   -3.1236 C.ar    1  LIG1        0.0526
     91 H           8.3405  -16.9524   -2.7731 H       1  LIG1        0.0638
     92 H          12.4911  -17.9314   -3.1941 H       1  LIG1        0.0631
     93 O          10.6582  -17.9064    0.9652 O.3     1  LIG1       -0.5061
     94 H          11.5626  -18.0649    1.2566 H       1  LIG1        0.2922
     95 N          10.2170  -17.0692   -5.6912 N.1     1  LIG1       -0.1909
     96 C          10.3006  -17.2173   -4.5562 C.1     1  LIG1        0.0992
@<TRIPOS>BOND
     1    95    96    3
     2    96    90    1
     3    92    87    1
     4    90    87   ar
     5    90    89   ar
     6    36    33    1
     7    91    89    1
     8    35    33    1
     9    87    85   ar
    10    34    33    1
    11    33    32    1
    12    89    86   ar
    13    20    19    1
    14    57    58    3
    15    18    19    1
    16    18    14    1
    17    19    22    1
    18    19    21    1
    19    58    50    1
    20    31    30    1
    21    85    88    1
    22    85    84   ar
    23    79    78    1
    24    30    29    3
    25    32    25    1
    26    48    45    1
    27    86    84   ar
    28    86    77    1
    29    29    24    1
    30    14    15   ar
    31    14    13   ar
    32    25    24   ar
    33    25    26   ar
    34    24    23   ar
    35    72    70    1
    36    50    55   ar
    37    50    51   ar
    38    43    39    1
    39    26    38    1
    40    26    27   ar
    41    84    93    1
    42    55    54   ar
    43    78    77   ar
    44    78    74   ar
    45    23    27   ar
    46    23    15    1
    47    39    38   ar
    48    39    40   ar
    49    49    40    1
    50    17    13    1
    51    38    37   ar
    52    11     9    1
    53    40    41   ar
    54    27    28    1
    55    15    16   ar
    56    37    44    1
    57    37    42   ar
    58    13    12   ar
    59    46    45    1
    60    77    76   ar
    61    44    45    1
    62    45    47    1
    63    41    42   ar
    64    41    51    1
    65    51    52   ar
    66    54    63    1
    67    54    53   ar
    68    68    66    1
    69    66    63   ar
    70    66    67   ar
    71    63    61   ar
    72    69    61    1
    73    61    62   ar
    74    67    64   ar
    75    67    70    1
    76    65    62    1
    77    62    64   ar
    78    64    74    1
    79    70    71    1
    80    70    73    1
    81    74    75   ar
    82    16    12   ar
    83     9    10    1
    84     9     3    1
    85    12     4    1
    86    52    53   ar
    87    52    56    1
    88    53    60    1
    89    76    75   ar
    90    76    81    1
    91    93    94    1
    92    75    80    1
    93    83    81    1
    94    82    81    1
    95     4     3   ar
    96     4     5   ar
    97     3     2   ar
    98    60    59    3
    99     5     6    1
   100     5     1   ar
   101     2     8    1
   102     2     1   ar
   103     1     7    1
