@<TRIPOS>MOLECULE
mol_data/opt/m06hf/geoms/mol2/13ah13ah13ah13ah.out
 42 45 0 0 0
SMALL
GASTEIGER

@<TRIPOS>ATOM
      1 C           0.7531    0.6952    1.6369 C.ar    1  LIG1        0.0040
      2 C           0.8311    1.3009    0.4053 C.ar    1  LIG1       -0.0230
      3 C          -0.3282    0.9116   -0.3273 C.ar    1  LIG1        0.0516
      4 C          -1.0676    0.0815    0.4871 C.ar    1  LIG1        0.0839
      5 N          -0.3891   -0.0405    1.6815 N.ar    1  LIG1       -0.3580
      6 H          -0.7700   -0.4817    2.5025 H       1  LIG1        0.1654
      7 H           1.4190    0.7458    2.4811 H       1  LIG1        0.0807
      8 H           1.6164    1.9526    0.0611 H       1  LIG1        0.0651
      9 N          -0.6764    1.3241   -1.6289 N.pl3   1  LIG1       -0.3563
     10 H           0.1190    1.3090   -2.2563 H       1  LIG1        0.1424
     11 H          -1.4257    0.7524   -2.0049 H       1  LIG1        0.1424
     12 C          -2.3310   -0.6002    0.2139 C.ar    1  LIG1        0.0670
     13 C          -3.5108   -0.1115   -0.3134 C.ar    1  LIG1       -0.0135
     14 C          -4.4272   -1.1989   -0.3821 C.ar    1  LIG1        0.0523
     15 C          -3.7803   -2.3136    0.1097 C.ar    1  LIG1        0.0843
     16 N          -2.5061   -1.9290    0.4675 N.ar    1  LIG1       -0.3504
     17 H          -1.8068   -2.5371    0.8621 H       1  LIG1        0.1660
     18 H          -3.6971    0.9187   -0.5697 H       1  LIG1        0.0658
     19 N          -5.7659   -1.1434   -0.8127 N.pl3   1  LIG1       -0.3563
     20 H          -5.8773   -0.5757   -1.6438 H       1  LIG1        0.1424
     21 H          -6.1423   -2.0730   -0.9683 H       1  LIG1        0.1424
     22 C          -4.2723   -3.6838    0.2380 C.ar    1  LIG1        0.0670
     23 C          -5.4478   -4.1584    0.7880 C.ar    1  LIG1       -0.0135
     24 C          -5.4429   -5.5749    0.6415 C.ar    1  LIG1        0.0523
     25 C          -4.2644   -5.9191    0.0126 C.ar    1  LIG1        0.0843
     26 N          -3.5654   -4.7554   -0.2231 N.ar    1  LIG1       -0.3504
     27 H          -2.6656   -4.7065   -0.6731 H       1  LIG1        0.1660
     28 H          -6.1938   -3.5541    1.2783 H       1  LIG1        0.0658
     29 N          -6.4258   -6.4709    1.1028 N.pl3   1  LIG1       -0.3563
     30 H          -7.3637   -6.1402    0.9094 H       1  LIG1        0.1424
     31 H          -6.2921   -7.3962    0.7084 H       1  LIG1        0.1424
     32 C          -3.7787   -7.2389   -0.3873 C.ar    1  LIG1        0.0665
     33 C          -3.6855   -8.4109    0.3342 C.ar    1  LIG1       -0.0142
     34 C          -3.1748   -9.4116   -0.5457 C.ar    1  LIG1        0.0427
     35 C          -2.9698   -8.8135   -1.7662 C.ar    1  LIG1        0.0230
     36 N          -3.3318   -7.4930   -1.6524 N.ar    1  LIG1       -0.3578
     37 H          -3.3989   -6.8396   -2.4155 H       1  LIG1        0.1654
     38 H          -2.5896   -9.2190   -2.6874 H       1  LIG1        0.0826
     39 H          -3.9094   -8.5178    1.3833 H       1  LIG1        0.0658
     40 N          -2.8618  -10.7386   -0.1785 N.pl3   1  LIG1       -0.3568
     41 H          -3.5567  -11.1302    0.4459 H       1  LIG1        0.1424
     42 H          -2.7505  -11.3452   -0.9818 H       1  LIG1        0.1424
@<TRIPOS>BOND
     1    38    35    1
     2    37    36    1
     3    10     9    1
     4    11     9    1
     5    35    36   ar
     6    35    34   ar
     7    36    32   ar
     8    20    19    1
     9     9     3    1
    10    42    40    1
    11    21    19    1
    12    19    14    1
    13    27    26    1
    14    18    13    1
    15    34    40    1
    16    34    33   ar
    17    32    25    1
    18    32    33   ar
    19    14    13   ar
    20    14    15   ar
    21     3     2   ar
    22     3     4   ar
    23    13    12   ar
    24    26    25   ar
    25    26    22   ar
    26    40    41    1
    27    25    24   ar
    28     8     2    1
    29    15    22    1
    30    15    16   ar
    31    12    16   ar
    32    12     4    1
    33    22    23   ar
    34    33    39    1
    35     2     1   ar
    36    16    17    1
    37     4     5   ar
    38    24    23   ar
    39    24    29    1
    40    31    29    1
    41    23    28    1
    42    30    29    1
    43     1     5   ar
    44     1     7    1
    45     5     6    1
