@<TRIPOS>MOLECULE
mol_data/opt/m06hf/geoms/mol2/13ah6hf6hh6he-.out
 50 53 0 0 0
SMALL
GASTEIGER

@<TRIPOS>ATOM
      1 C           1.3495   -0.0357    0.4132 C.ar    1  LIG1        0.0040
      2 C           0.8978    1.2543    0.2378 C.ar    1  LIG1       -0.0231
      3 C          -0.5016    1.1770    0.0058 C.ar    1  LIG1        0.0503
      4 C          -0.8544   -0.1614    0.0434 C.ar    1  LIG1        0.0708
      5 N           0.2980   -0.8776    0.2797 N.ar    1  LIG1       -0.3591
      6 H           0.3032   -1.8840    0.3759 H       1  LIG1        0.1654
      7 H           2.3409   -0.4051    0.6101 H       1  LIG1        0.0807
      8 H           1.4953    2.1503    0.2693 H       1  LIG1        0.0651
      9 N          -1.3960    2.2554   -0.1825 N.pl3   1  LIG1       -0.3563
     10 H          -0.9045    3.1381   -0.2500 H       1  LIG1        0.1424
     11 H          -1.9790    2.1320   -1.0046 H       1  LIG1        0.1424
     12 C          -2.3630   -2.1184   -0.4697 C.ar    1  LIG1        0.1263
     13 C          -2.1804   -0.7844   -0.0343 C.ar    1  LIG1        0.0431
     14 C          -3.3137   -0.0971    0.3791 C.ar    1  LIG1       -0.0056
     15 C          -4.5581   -0.7239    0.3576 C.ar    1  LIG1        0.1436
     16 C          -4.6406   -2.0430   -0.0886 C.ar    1  LIG1        0.1177
     17 N          -3.5416   -2.7084   -0.4765 N.ar    1  LIG1       -0.2280
     18 H          -3.2330    0.9165    0.7539 H       1  LIG1        0.0662
     19 N          -1.2557   -2.8875   -0.8850 N.pl3   1  LIG1       -0.3426
     20 H          -1.5752   -3.7764   -1.2543 H       1  LIG1        0.1437
     21 H          -0.6879   -2.3957   -1.5707 H       1  LIG1        0.1437
     22 O          -5.6355   -0.0144    0.7945 O.3     1  LIG1       -0.5046
     23 H          -6.3390   -0.6202    1.0626 H       1  LIG1        0.2922
     24 C          -6.0961   -4.0968    0.2596 C.ar    1  LIG1        0.1263
     25 C          -5.9493   -2.7504   -0.1568 C.ar    1  LIG1        0.0453
     26 C          -7.0760   -2.1174   -0.6633 C.ar    1  LIG1       -0.0264
     27 C          -8.3211   -2.7522   -0.7042 C.ar    1  LIG1        0.0518
     28 C          -8.3775   -4.0579   -0.1981 C.ar    1  LIG1        0.0970
     29 N          -7.2791   -4.6958    0.2257 N.ar    1  LIG1       -0.2298
     30 H          -6.9850   -1.1058   -1.0472 H       1  LIG1        0.0644
     31 N          -5.0358   -4.8114    0.7563 N.pl3   1  LIG1       -0.3426
     32 H          -5.2222   -5.7899    0.9119 H       1  LIG1        0.1437
     33 H          -4.1262   -4.5559    0.3985 H       1  LIG1        0.1437
     34 N          -9.4501   -2.0790   -1.2031 N.pl3   1  LIG1       -0.3563
     35 H          -9.2099   -1.3175   -1.8250 H       1  LIG1        0.1424
     36 H         -10.1255   -2.6987   -1.6370 H       1  LIG1        0.1424
     37 C          -9.7520   -6.1893   -0.4612 C.ar    1  LIG1        0.1255
     38 C          -9.6666   -4.8062   -0.1304 C.ar    1  LIG1        0.0429
     39 C         -10.8307   -4.1787    0.2846 C.ar    1  LIG1       -0.0323
     40 C         -12.0413   -4.8806    0.3248 C.ar    1  LIG1        0.0435
     41 C         -12.0154   -6.2189   -0.0690 C.ar    1  LIG1        0.0451
     42 N         -10.9139   -6.8524   -0.4408 N.ar    1  LIG1       -0.2388
     43 H         -10.8056   -3.1344    0.5719 H       1  LIG1        0.0638
     44 H         -12.9314   -6.7978   -0.0696 H       1  LIG1        0.0843
     45 N          -8.6609   -6.8953   -0.8498 N.pl3   1  LIG1       -0.3426
     46 H          -8.8031   -7.8892   -0.9408 H       1  LIG1        0.1437
     47 H          -7.7629   -6.5432   -0.5474 H       1  LIG1        0.1437
     48 C         -13.2671   -4.2558    0.7482 C.1     1  LIG1       -0.0681
     49 C         -14.2927   -3.7365    1.1009 C.1     1  LIG1       -0.1139
     50 H         -15.2005   -3.2766    1.4157 H       1  LIG1        0.1232
@<TRIPOS>BOND
     1    35    34    1
     2    36    34    1
     3    21    19    1
     4    20    19    1
     5    34    27    1
     6    30    26    1
     7    11     9    1
     8    46    45    1
     9    19    12    1
    10    45    47    1
    11    45    37    1
    12    27    26   ar
    13    27    28   ar
    14    26    25   ar
    15    17    12   ar
    16    17    16   ar
    17    12    13   ar
    18    37    42   ar
    19    37    38   ar
    20    42    41   ar
    21    10     9    1
    22    28    38    1
    23    28    29   ar
    24     9     3    1
    25    25    16    1
    26    25    24   ar
    27    38    39   ar
    28    16    15   ar
    29    44    41    1
    30    41    40   ar
    31    13     4    1
    32    13    14   ar
    33     3     4   ar
    34     3     2   ar
    35     4     5   ar
    36    29    24   ar
    37     2     8    1
    38     2     1   ar
    39    24    31    1
    40     5     6    1
    41     5     1   ar
    42    39    40   ar
    43    39    43    1
    44    40    48    1
    45    15    14   ar
    46    15    22    1
    47    14    18    1
    48    33    31    1
    49     1     7    1
    50    48    49    3
    51    31    32    1
    52    22    23    1
    53    49    50    1
