@<TRIPOS>MOLECULE
mol_data/opt/m06hf/geoms/mol2/13ah13ah13ah-13ah-.out
 42 45 0 0 0
SMALL
GASTEIGER

@<TRIPOS>ATOM
      1 C           1.2878    0.0764    0.5147 C.ar    1  LIG1        0.0040
      2 C           0.8851    1.1472   -0.2478 C.ar    1  LIG1       -0.0230
      3 C          -0.5185    1.0098   -0.4556 C.ar    1  LIG1        0.0516
      4 C          -0.9172   -0.1402    0.1907 C.ar    1  LIG1        0.0839
      5 N           0.2013   -0.6976    0.7744 N.ar    1  LIG1       -0.3580
      6 H           0.1749   -1.4799    1.4076 H       1  LIG1        0.1654
      7 H           2.2613   -0.1814    0.8939 H       1  LIG1        0.0807
      8 H           1.5116    1.9422   -0.6158 H       1  LIG1        0.0651
      9 N          -1.3544    1.8983   -1.1595 N.pl3   1  LIG1       -0.3563
     10 H          -0.9256    2.2224   -2.0181 H       1  LIG1        0.1424
     11 H          -2.2536    1.4734   -1.3612 H       1  LIG1        0.1424
     12 C          -2.2423   -0.7492    0.2739 C.ar    1  LIG1        0.0670
     13 C          -3.4667   -0.2006    0.5896 C.ar    1  LIG1       -0.0135
     14 C          -4.4306   -1.2461    0.4970 C.ar    1  LIG1        0.0523
     15 C          -3.7626   -2.3995    0.1349 C.ar    1  LIG1        0.0843
     16 N          -2.4430   -2.0800    0.0055 N.ar    1  LIG1       -0.3504
     17 H          -1.7306   -2.6989   -0.3477 H       1  LIG1        0.1660
     18 H          -3.6324    0.8222    0.8901 H       1  LIG1        0.0658
     19 N          -5.8437   -1.2030    0.7431 N.pl3   1  LIG1       -0.3563
     20 H          -6.0306   -0.9674    1.7144 H       1  LIG1        0.1424
     21 H          -6.2849   -0.4928    0.1655 H       1  LIG1        0.1424
     22 C          -4.2845   -3.7428   -0.0861 C.ar    1  LIG1        0.0670
     23 C          -3.6589   -4.9436   -0.3752 C.ar    1  LIG1       -0.0135
     24 C          -4.6779   -5.9298   -0.4543 C.ar    1  LIG1        0.0523
     25 C          -5.8823   -5.2985   -0.2042 C.ar    1  LIG1        0.0843
     26 N          -5.6184   -3.9703    0.0148 N.ar    1  LIG1       -0.3504
     27 H          -6.2546   -3.2361    0.3141 H       1  LIG1        0.1660
     28 H          -2.6019   -5.1119   -0.5045 H       1  LIG1        0.0658
     29 N          -4.5004   -7.3058   -0.7091 N.pl3   1  LIG1       -0.3563
     30 H          -5.3867   -7.7432   -0.9416 H       1  LIG1        0.1424
     31 H          -3.8354   -7.4653   -1.4570 H       1  LIG1        0.1424
     32 C          -7.2288   -5.8625   -0.1903 C.ar    1  LIG1        0.0665
     33 C          -7.6928   -7.0492    0.3400 C.ar    1  LIG1       -0.0142
     34 C          -9.0859   -7.1282    0.0434 C.ar    1  LIG1        0.0427
     35 C          -9.4217   -5.9884   -0.6466 C.ar    1  LIG1        0.0230
     36 N          -8.2853   -5.2257   -0.7722 N.ar    1  LIG1       -0.3578
     37 H          -8.2028   -4.3808   -1.3133 H       1  LIG1        0.1654
     38 H         -10.3689   -5.6622   -1.0385 H       1  LIG1        0.0826
     39 H          -7.1124   -7.7431    0.9269 H       1  LIG1        0.0658
     40 N          -9.9513   -8.1613    0.4722 N.pl3   1  LIG1       -0.3568
     41 H         -10.8581   -8.1088    0.0240 H       1  LIG1        0.1424
     42 H          -9.5503   -9.0765    0.3045 H       1  LIG1        0.1424
@<TRIPOS>BOND
     1    10     9    1
     2    31    29    1
     3    11     9    1
     4    37    36    1
     5     9     3    1
     6    38    35    1
     7    30    29    1
     8    36    35   ar
     9    36    32   ar
    10    29    24    1
    11    35    34   ar
    12     8     2    1
    13    28    23    1
    14     3     2   ar
    15     3     4   ar
    16    24    23   ar
    17    24    25   ar
    18    23    22   ar
    19    17    16    1
    20     2     1   ar
    21    25    32    1
    22    25    26   ar
    23    32    33   ar
    24    22    26   ar
    25    22    15    1
    26    16    15   ar
    27    16    12   ar
    28    26    27    1
    29    41    40    1
    30    34    33   ar
    31    34    40    1
    32    15    14   ar
    33    21    19    1
    34     4    12    1
    35     4     5   ar
    36    12    13   ar
    37    42    40    1
    38    33    39    1
    39    14    13   ar
    40    14    19    1
    41     1     5   ar
    42     1     7    1
    43    13    18    1
    44    19    20    1
    45     5     6    1
