@<TRIPOS>MOLECULE
mol_data/opt/m06hf/geoms/mol2/13ai13ai-13ai13ai-.out
 46 49 0 0 0
SMALL
GASTEIGER

@<TRIPOS>ATOM
      1 C           1.0528   -0.2997   -1.4153 C.ar    1  LIG1        0.0025
      2 C           0.8865    0.9450   -0.8577 C.ar    1  LIG1       -0.0409
      3 C          -0.3910    0.9698   -0.2244 C.ar    1  LIG1       -0.0238
      4 C          -0.9553   -0.2735   -0.4304 C.ar    1  LIG1        0.0658
      5 N          -0.0682   -1.0270   -1.1503 N.ar    1  LIG1       -0.3593
      6 H          -0.2621   -1.9628   -1.4674 H       1  LIG1        0.1654
      7 H           1.8728   -0.7178   -1.9729 H       1  LIG1        0.0807
      8 H           1.6010    1.7515   -0.8830 H       1  LIG1        0.0635
      9 C          -0.9953    2.1121    0.5571 C.3     1  LIG1       -0.0377
     10 H          -1.7583    1.7396    1.2422 H       1  LIG1        0.0278
     11 H          -1.4492    2.8539   -0.1046 H       1  LIG1        0.0278
     12 H          -0.2229    2.6127    1.1416 H       1  LIG1        0.0278
     13 C          -2.2432   -0.8295   -0.0101 C.ar    1  LIG1        0.0639
     14 C          -2.5725   -2.0642    0.5112 C.ar    1  LIG1       -0.0314
     15 C          -3.9788   -2.0857    0.7317 C.ar    1  LIG1       -0.0231
     16 C          -4.4583   -0.8519    0.3320 C.ar    1  LIG1        0.0663
     17 N          -3.3987   -0.1109   -0.1118 N.ar    1  LIG1       -0.3517
     18 H          -3.4770    0.7949   -0.5478 H       1  LIG1        0.1660
     19 H          -1.8722   -2.8472    0.7575 H       1  LIG1        0.0642
     20 C          -4.7817   -3.2108    1.3400 C.3     1  LIG1       -0.0376
     21 H          -4.2011   -3.7009    2.1220 H       1  LIG1        0.0278
     22 H          -5.0434   -3.9645    0.5932 H       1  LIG1        0.0278
     23 H          -5.6995   -2.8245    1.7852 H       1  LIG1        0.0278
     24 C          -5.8089   -0.2902    0.3375 C.ar    1  LIG1        0.0639
     25 C          -6.2548    0.9820    0.6334 C.ar    1  LIG1       -0.0314
     26 C          -7.6679    1.0003    0.4616 C.ar    1  LIG1       -0.0231
     27 C          -8.0332   -0.2718    0.0630 C.ar    1  LIG1        0.0663
     28 N          -6.8999   -1.0339   -0.0065 N.ar    1  LIG1       -0.3517
     29 H          -6.8692   -1.9748   -0.3675 H       1  LIG1        0.1660
     30 H          -5.6396    1.7952    0.9858 H       1  LIG1        0.0642
     31 C          -8.5961    2.1616    0.7266 C.3     1  LIG1       -0.0376
     32 H          -9.6091    1.8006    0.9097 H       1  LIG1        0.0278
     33 H          -8.6160    2.8578   -0.1156 H       1  LIG1        0.0278
     34 H          -8.2633    2.7107    1.6076 H       1  LIG1        0.0278
     35 C          -9.3400   -0.8524   -0.2513 C.ar    1  LIG1        0.0634
     36 C          -9.8748   -2.0864    0.0519 C.ar    1  LIG1       -0.0321
     37 C         -11.1780   -2.1480   -0.5253 C.ar    1  LIG1       -0.0325
     38 C         -11.3845   -0.9437   -1.1548 C.ar    1  LIG1        0.0051
     39 N         -10.2708   -0.1709   -0.9845 N.ar    1  LIG1       -0.3593
     40 H         -10.1109    0.7380   -1.3874 H       1  LIG1        0.1654
     41 H         -12.2381   -0.5861   -1.7055 H       1  LIG1        0.0809
     42 H          -9.3979   -2.8442    0.6534 H       1  LIG1        0.0642
     43 C         -12.1513   -3.2991   -0.4484 C.3     1  LIG1       -0.0383
     44 H         -12.3846   -3.5377    0.5902 H       1  LIG1        0.0278
     45 H         -11.7334   -4.1907   -0.9184 H       1  LIG1        0.0278
     46 H         -13.0798   -3.0436   -0.9592 H       1  LIG1        0.0278
@<TRIPOS>BOND
     1     7     1    1
     2    41    38    1
     3     6     5    1
     4     1     5   ar
     5     1     2   ar
     6    40    39    1
     7    38    39   ar
     8    38    37   ar
     9     5     4   ar
    10    39    35   ar
    11    46    43    1
    12    45    43    1
    13     8     2    1
    14     2     3   ar
    15    18    17    1
    16    37    43    1
    17    37    36   ar
    18    43    44    1
    19     4     3   ar
    20     4    13    1
    21    29    28    1
    22    35    36   ar
    23    35    27    1
    24     3     9    1
    25    33    31    1
    26    17    13   ar
    27    17    16   ar
    28    11     9    1
    29    13    14   ar
    30    28    27   ar
    31    28    24   ar
    32    36    42    1
    33    27    26   ar
    34    16    24    1
    35    16    15   ar
    36    24    25   ar
    37    26    25   ar
    38    26    31    1
    39    14    15   ar
    40    14    19    1
    41     9    12    1
    42     9    10    1
    43    22    20    1
    44    25    30    1
    45    31    32    1
    46    31    34    1
    47    15    20    1
    48    20    23    1
    49    20    21    1
