@<TRIPOS>MOLECULE
mol_data/opt/m06hf/geoms/mol2/13ai13ai13ai13ai.out
 46 49 0 0 0
SMALL
GASTEIGER

@<TRIPOS>ATOM
      1 C           0.6360    0.5334   -1.9984 C.ar    1  LIG1        0.0025
      2 C           0.8306    1.1294   -0.7771 C.ar    1  LIG1       -0.0409
      3 C          -0.2874    0.8049    0.0483 C.ar    1  LIG1       -0.0238
      4 C          -1.1252    0.0198   -0.7140 C.ar    1  LIG1        0.0658
      5 N          -0.5473   -0.1421   -1.9499 N.ar    1  LIG1       -0.3593
      6 H          -1.0009   -0.5893   -2.7300 H       1  LIG1        0.1654
      7 H           1.2390    0.5394   -2.8897 H       1  LIG1        0.0807
      8 H           1.6821    1.7252   -0.4917 H       1  LIG1        0.0635
      9 C          -0.5113    1.2151    1.4826 C.3     1  LIG1       -0.0377
     10 H          -1.3181    0.6240    1.9164 H       1  LIG1        0.0278
     11 H          -0.7810    2.2709    1.5472 H       1  LIG1        0.0278
     12 H           0.3962    1.0591    2.0672 H       1  LIG1        0.0278
     13 C          -2.4099   -0.6081   -0.3873 C.ar    1  LIG1        0.0639
     14 C          -3.5700   -0.0833    0.1395 C.ar    1  LIG1       -0.0314
     15 C          -4.5208   -1.1382    0.2493 C.ar    1  LIG1       -0.0231
     16 C          -3.9041   -2.2776   -0.2261 C.ar    1  LIG1        0.0663
     17 N          -2.6287   -1.9414   -0.6045 N.ar    1  LIG1       -0.3517
     18 H          -1.9490   -2.5812   -0.9847 H       1  LIG1        0.1660
     19 H          -3.7166    0.9524    0.4008 H       1  LIG1        0.0642
     20 C          -5.9287   -1.0430    0.7819 C.3     1  LIG1       -0.0376
     21 H          -6.3226   -2.0413    0.9743 H       1  LIG1        0.0278
     22 H          -6.5827   -0.5445    0.0640 H       1  LIG1        0.0278
     23 H          -5.9430   -0.4708    1.7102 H       1  LIG1        0.0278
     24 C          -4.3976   -3.6545   -0.3352 C.ar    1  LIG1        0.0639
     25 C          -5.5358   -4.1664   -0.9196 C.ar    1  LIG1       -0.0314
     26 C          -5.5272   -5.5793   -0.7380 C.ar    1  LIG1       -0.0231
     27 C          -4.3700   -5.8823   -0.0494 C.ar    1  LIG1        0.0663
     28 N          -3.6992   -4.7094    0.1873 N.ar    1  LIG1       -0.3517
     29 H          -2.8208   -4.6358    0.6761 H       1  LIG1        0.1660
     30 H          -6.2836   -3.5822   -1.4318 H       1  LIG1        0.0642
     31 C          -6.5721   -6.5652   -1.1976 C.3     1  LIG1       -0.0376
     32 H          -6.4544   -7.5073   -0.6622 H       1  LIG1        0.0278
     33 H          -6.4793   -6.7614   -2.2678 H       1  LIG1        0.0278
     34 H          -7.5711   -6.1709   -1.0081 H       1  LIG1        0.0278
     35 C          -3.8492   -7.1682    0.4254 C.ar    1  LIG1        0.0634
     36 C          -3.6635   -8.3671   -0.2249 C.ar    1  LIG1       -0.0321
     37 C          -3.1297   -9.2973    0.7176 C.ar    1  LIG1       -0.0325
     38 C          -3.0075   -8.6214    1.9074 C.ar    1  LIG1        0.0051
     39 N          -3.4372   -7.3371    1.7222 N.ar    1  LIG1       -0.3593
     40 H          -3.5663   -6.6510    2.4487 H       1  LIG1        0.1654
     41 H          -2.6514   -8.9611    2.8652 H       1  LIG1        0.0809
     42 H          -3.8673   -8.5433   -1.2690 H       1  LIG1        0.0642
     43 C          -2.7556  -10.7367    0.4600 C.3     1  LIG1       -0.0383
     44 H          -2.3882  -11.2012    1.3754 H       1  LIG1        0.0278
     45 H          -1.9735  -10.8030   -0.2978 H       1  LIG1        0.0278
     46 H          -3.6202  -11.3022    0.1098 H       1  LIG1        0.0278
@<TRIPOS>BOND
     1     7     1    1
     2     6     5    1
     3    33    31    1
     4     1     5   ar
     5     1     2   ar
     6     5     4   ar
     7    30    25    1
     8    42    36    1
     9    31    34    1
    10    31    26    1
    11    31    32    1
    12    18    17    1
    13    25    26   ar
    14    25    24   ar
    15     2     8    1
    16     2     3   ar
    17    26    27   ar
    18     4    13    1
    19     4     3   ar
    20    17    13   ar
    21    17    16   ar
    22    13    14   ar
    23    24    16    1
    24    24    28   ar
    25    45    43    1
    26    16    15   ar
    27    36    35   ar
    28    36    37   ar
    29    27    28   ar
    30    27    35    1
    31     3     9    1
    32    22    20    1
    33    46    43    1
    34    14    15   ar
    35    14    19    1
    36    28    29    1
    37    15    20    1
    38    35    39   ar
    39    43    37    1
    40    43    44    1
    41    37    38   ar
    42    20    21    1
    43    20    23    1
    44     9    11    1
    45     9    10    1
    46     9    12    1
    47    39    38   ar
    48    39    40    1
    49    38    41    1
