@<TRIPOS>MOLECULE
mol_data/opt/m06hf/geoms/mol2/13ai13ai-4ai13ai.out
 48 51 0 0 0
SMALL
GASTEIGER

@<TRIPOS>ATOM
      1 C           1.1796   -0.4910   -1.1863 C.ar    1  LIG1        0.0025
      2 C           0.9666    0.8166   -0.8230 C.ar    1  LIG1       -0.0409
      3 C          -0.3494    0.9080   -0.2819 C.ar    1  LIG1       -0.0238
      4 C          -0.8883   -0.3621   -0.3438 C.ar    1  LIG1        0.0658
      5 N           0.0502   -1.1938   -0.8913 N.ar    1  LIG1       -0.3593
      6 H          -0.1157   -2.1676   -1.0879 H       1  LIG1        0.1654
      7 H           2.0372   -0.9690   -1.6262 H       1  LIG1        0.0807
      8 H           1.6736    1.6245   -0.9176 H       1  LIG1        0.0635
      9 C          -1.0140    2.1378    0.2898 C.3     1  LIG1       -0.0377
     10 H          -1.8058    1.8511    0.9840 H       1  LIG1        0.0278
     11 H          -1.4453    2.7623   -0.4966 H       1  LIG1        0.0278
     12 H          -0.2833    2.7390    0.8314 H       1  LIG1        0.0278
     13 C          -2.1956   -0.8743    0.0686 C.ar    1  LIG1        0.0638
     14 C          -2.5541   -2.0408    0.7130 C.ar    1  LIG1       -0.0315
     15 C          -3.9715   -2.0510    0.8438 C.ar    1  LIG1       -0.0246
     16 C          -4.4315   -0.8779    0.2732 C.ar    1  LIG1        0.0499
     17 N          -3.3436   -0.1811   -0.1824 N.ar    1  LIG1       -0.3528
     18 H          -3.3892    0.6559   -0.7429 H       1  LIG1        0.1660
     19 H          -1.8691   -2.7800    1.0976 H       1  LIG1        0.0642
     20 C          -4.7945   -3.1046    1.5461 C.3     1  LIG1       -0.0377
     21 H          -4.2343   -3.5071    2.3906 H       1  LIG1        0.0278
     22 H          -5.0388   -3.9321    0.8759 H       1  LIG1        0.0278
     23 H          -5.7237   -2.6744    1.9207 H       1  LIG1        0.0278
     24 C          -6.0266    1.0408    0.3408 C.ar    1  LIG1       -0.0520
     25 C          -7.3084    1.5516    0.1987 C.ar    1  LIG1       -0.0518
     26 C          -5.7926   -0.3244    0.1460 C.ar    1  LIG1       -0.0012
     27 C          -8.3880    0.7183   -0.1124 C.ar    1  LIG1        0.0012
     28 H          -7.4938    2.6099    0.3293 H       1  LIG1        0.0624
     29 C          -6.8722   -1.1526   -0.1697 C.ar    1  LIG1       -0.0491
     30 C          -8.1708   -0.6587   -0.2856 C.ar    1  LIG1       -0.0407
     31 H          -6.6903   -2.2083   -0.3336 H       1  LIG1        0.0627
     32 H          -5.2087    1.6939    0.6211 H       1  LIG1        0.0624
     33 C          -9.3103   -1.6222   -0.5757 C.3     1  LIG1       -0.0391
     34 H          -9.0408   -2.6216   -0.2359 H       1  LIG1        0.0278
     35 H          -9.5171   -1.6803   -1.6477 H       1  LIG1        0.0278
     36 H         -10.2189   -1.3035   -0.0648 H       1  LIG1        0.0278
     37 C          -9.7343    1.3264   -0.2164 C.ar    1  LIG1        0.0470
     38 C         -10.3824    2.1930    0.6366 C.ar    1  LIG1       -0.0335
     39 C         -11.6512    2.5066    0.0643 C.ar    1  LIG1       -0.0326
     40 C         -11.7236    1.8176   -1.1221 C.ar    1  LIG1        0.0051
     41 N         -10.5685    1.1050   -1.2790 N.ar    1  LIG1       -0.3604
     42 H         -10.3211    0.5636   -2.0908 H       1  LIG1        0.1653
     43 H         -12.5083    1.7843   -1.8593 H       1  LIG1        0.0809
     44 H          -9.9954    2.5390    1.5819 H       1  LIG1        0.0641
     45 C         -12.7125    3.4086    0.6461 C.3     1  LIG1       -0.0383
     46 H         -13.5873    3.4320   -0.0042 H       1  LIG1        0.0278
     47 H         -12.3364    4.4269    0.7547 H       1  LIG1        0.0278
     48 H         -13.0240    3.0532    1.6293 H       1  LIG1        0.0278
@<TRIPOS>BOND
     1    42    41    1
     2    43    40    1
     3    35    33    1
     4     7     1    1
     5    41    40   ar
     6    41    37   ar
     7     1     5   ar
     8     1     2   ar
     9    40    39   ar
    10     6     5    1
    11     8     2    1
    12     5     4   ar
    13     2     3   ar
    14    18    17    1
    15    33    30    1
    16    33    34    1
    17    33    36    1
    18    11     9    1
    19     4     3   ar
    20     4    13    1
    21    31    29    1
    22    30    29   ar
    23    30    27   ar
    24     3     9    1
    25    37    27    1
    26    37    38   ar
    27    17    13   ar
    28    17    16   ar
    29    29    26   ar
    30    27    25   ar
    31    46    45    1
    32    39    38   ar
    33    39    45    1
    34    13    14   ar
    35    26    16    1
    36    26    24   ar
    37    25    28    1
    38    25    24   ar
    39    16    15   ar
    40     9    12    1
    41     9    10    1
    42    24    32    1
    43    38    44    1
    44    45    47    1
    45    45    48    1
    46    14    15   ar
    47    14    19    1
    48    15    20    1
    49    22    20    1
    50    20    23    1
    51    20    21    1
