@<TRIPOS>MOLECULE
mol_data/opt/m06hf/geoms/mol2/13ai13ai-13ai-13ai.out
 46 49 0 0 0
SMALL
GASTEIGER

@<TRIPOS>ATOM
      1 C           1.2337   -0.7346   -1.1122 C.ar    1  LIG1        0.0025
      2 C           1.0432    0.6138   -0.9310 C.ar    1  LIG1       -0.0409
      3 C          -0.2865    0.8038   -0.4527 C.ar    1  LIG1       -0.0238
      4 C          -0.8566   -0.4513   -0.3676 C.ar    1  LIG1        0.0658
      5 N           0.0773   -1.3674   -0.7683 N.ar    1  LIG1       -0.3593
      6 H          -0.1068   -2.3547   -0.8430 H       1  LIG1        0.1654
      7 H           2.0912   -1.2857   -1.4567 H       1  LIG1        0.0807
      8 H           1.7742    1.3861   -1.1062 H       1  LIG1        0.0635
      9 C          -0.9339    2.1147   -0.0737 C.3     1  LIG1       -0.0377
     10 H          -1.7621    1.9425    0.6154 H       1  LIG1        0.0278
     11 H          -1.3111    2.6430   -0.9529 H       1  LIG1        0.0278
     12 H          -0.2064    2.7608    0.4180 H       1  LIG1        0.0278
     13 C          -2.1897   -0.8839    0.0563 C.ar    1  LIG1        0.0639
     14 C          -2.5940   -1.9671    0.8084 C.ar    1  LIG1       -0.0314
     15 C          -4.0163   -1.9403    0.8866 C.ar    1  LIG1       -0.0231
     16 C          -4.4297   -0.8326    0.1756 C.ar    1  LIG1        0.0663
     17 N          -3.3132   -0.2024   -0.3152 N.ar    1  LIG1       -0.3517
     18 H          -3.3218    0.5464   -0.9909 H       1  LIG1        0.1660
     19 H          -1.9375   -2.6728    1.2924 H       1  LIG1        0.0642
     20 C          -4.9040   -2.9017    1.6366 C.3     1  LIG1       -0.0376
     21 H          -4.4780   -3.1218    2.6162 H       1  LIG1        0.0278
     22 H          -5.0103   -3.8416    1.0913 H       1  LIG1        0.0278
     23 H          -5.8940   -2.4653    1.7719 H       1  LIG1        0.0278
     24 C          -5.7720   -0.3010   -0.0717 C.ar    1  LIG1        0.0639
     25 C          -6.9310   -0.9198   -0.4904 C.ar    1  LIG1       -0.0314
     26 C          -7.9522    0.0694   -0.5691 C.ar    1  LIG1       -0.0231
     27 C          -7.3699    1.2683   -0.2036 C.ar    1  LIG1        0.0663
     28 N          -6.0559    1.0266    0.0903 N.ar    1  LIG1       -0.3517
     29 H          -5.4135    1.7245    0.4317 H       1  LIG1        0.1660
     30 H          -7.0237   -1.9677   -0.7265 H       1  LIG1        0.0642
     31 C          -9.3983   -0.1489   -0.9449 C.3     1  LIG1       -0.0376
     32 H          -9.7689   -1.0631   -0.4806 H       1  LIG1        0.0278
     33 H          -9.5200   -0.2479   -2.0263 H       1  LIG1        0.0278
     34 H         -10.0089    0.6851   -0.5965 H       1  LIG1        0.0278
     35 C          -7.9243    2.6195   -0.0855 C.ar    1  LIG1        0.0634
     36 C          -7.7730    3.5754    0.8961 C.ar    1  LIG1       -0.0321
     37 C          -8.5128    4.7286    0.4980 C.ar    1  LIG1       -0.0325
     38 C          -9.0895    4.4239   -0.7120 C.ar    1  LIG1        0.0051
     39 N          -8.7286    3.1520   -1.0544 N.ar    1  LIG1       -0.3593
     40 H          -8.9523    2.6827   -1.9170 H       1  LIG1        0.1654
     41 H          -9.7264    5.0169   -1.3463 H       1  LIG1        0.0809
     42 H          -7.2251    3.4463    1.8163 H       1  LIG1        0.0642
     43 C          -8.6559    6.0219    1.2629 C.3     1  LIG1       -0.0383
     44 H          -9.3016    6.7132    0.7210 H       1  LIG1        0.0278
     45 H          -7.6840    6.4973    1.4039 H       1  LIG1        0.0278
     46 H          -9.0937    5.8409    2.2456 H       1  LIG1        0.0278
@<TRIPOS>BOND
     1    33    31    1
     2    40    39    1
     3     7     1    1
     4    41    38    1
     5     1     2   ar
     6     1     5   ar
     7     8     2    1
     8    39    38   ar
     9    39    35   ar
    10    18    17    1
    11    11     9    1
    12    31    34    1
    13    31    26    1
    14    31    32    1
    15     2     3   ar
    16     6     5    1
    17     5     4   ar
    18    30    25    1
    19    38    37   ar
    20    26    25   ar
    21    26    27   ar
    22    25    24   ar
    23     3     4   ar
    24     3     9    1
    25     4    13    1
    26    17    13   ar
    27    17    16   ar
    28    27    35    1
    29    27    28   ar
    30    35    36   ar
    31     9    12    1
    32     9    10    1
    33    24    28   ar
    34    24    16    1
    35    13    14   ar
    36    28    29    1
    37    16    15   ar
    38    37    36   ar
    39    37    43    1
    40    44    43    1
    41    14    15   ar
    42    14    19    1
    43    15    20    1
    44    36    42    1
    45    22    20    1
    46    43    45    1
    47    43    46    1
    48    20    23    1
    49    20    21    1
