@<TRIPOS>MOLECULE
mol_data/opt/m06hf/geoms/mol2/13ai12hf-4fe6ai-.out
 48 51 0 0 0
SMALL
GASTEIGER

@<TRIPOS>ATOM
      1 C           1.1527    0.1284   -0.8588 C.ar    1  LIG1        0.0025
      2 C           0.8409    1.1842   -0.0364 C.ar    1  LIG1       -0.0408
      3 C          -0.5208    1.0403    0.3618 C.ar    1  LIG1       -0.0221
      4 C          -0.9856   -0.1041   -0.2569 C.ar    1  LIG1        0.0870
      5 N           0.0391   -0.6437   -0.9889 N.ar    1  LIG1       -0.3580
      6 H          -0.0449   -1.4913   -1.5268 H       1  LIG1        0.1654
      7 H           2.0741   -0.1319   -1.3502 H       1  LIG1        0.0807
      8 H           1.5132    1.9690    0.2690 H       1  LIG1        0.0635
      9 C          -1.2805    1.9187    1.3275 C.3     1  LIG1       -0.0376
     10 H          -2.2610    1.4945    1.5432 H       1  LIG1        0.0278
     11 H          -1.4214    2.9208    0.9163 H       1  LIG1        0.0278
     12 H          -0.7216    2.0120    2.2597 H       1  LIG1        0.0278
     13 C          -2.2991   -0.7315   -0.2449 C.ar    1  LIG1        0.1762
     14 C          -3.5577   -0.2172   -0.2715 C.ar    1  LIG1        0.1152
     15 C          -4.4429   -1.3500   -0.2987 C.ar    1  LIG1        0.1846
     16 C          -3.6623   -2.4706   -0.3185 C.ar    1  LIG1        0.1824
     17 O          -2.3527   -2.0931   -0.2833 O.2     1  LIG1       -0.4475
     18 N          -3.9917    1.1101   -0.2504 N.pl3   1  LIG1       -0.3521
     19 H          -3.3537    1.7373   -0.7271 H       1  LIG1        0.1425
     20 H          -4.9371    1.1914   -0.6063 H       1  LIG1        0.1425
     21 O          -5.7818   -1.1804   -0.3042 O.3     1  LIG1       -0.5020
     22 H          -6.1958   -2.0059   -0.6019 H       1  LIG1        0.2924
     23 C          -5.1057   -4.4910   -0.7418 C.ar    1  LIG1        0.1283
     24 C          -5.3034   -5.8637   -0.6917 C.ar    1  LIG1       -0.0105
     25 C          -3.9122   -3.9135   -0.2945 C.ar    1  LIG1        0.0635
     26 C          -4.3093   -6.7182   -0.2181 C.ar    1  LIG1        0.0024
     27 H          -6.2329   -6.2869   -1.0578 H       1  LIG1        0.0661
     28 C          -2.9178   -4.7732    0.1755 C.ar    1  LIG1       -0.0314
     29 C          -3.0976   -6.1567    0.2161 C.ar    1  LIG1        0.0333
     30 H          -1.9879   -4.3483    0.5277 H       1  LIG1        0.0638
     31 O          -6.0722   -3.6629   -1.2562 O.3     1  LIG1       -0.5060
     32 H          -6.7950   -4.1713   -1.6391 H       1  LIG1        0.2922
     33 C          -2.0353   -6.9778    0.7499 C.1     1  LIG1       -0.0690
     34 C          -1.1380   -7.6366    1.2024 C.1     1  LIG1       -0.1139
     35 H          -0.3490   -8.2282    1.6055 H       1  LIG1        0.1232
     36 C          -3.6747   -9.0950   -0.7534 C.ar    1  LIG1        0.0353
     37 C          -4.5695   -8.1841   -0.1793 C.ar    1  LIG1        0.0018
     38 C          -5.7264   -8.6910    0.4048 C.ar    1  LIG1       -0.0482
     39 C          -5.9605  -10.0654    0.4060 C.ar    1  LIG1       -0.0318
     40 C          -4.9951  -10.8702   -0.1951 C.ar    1  LIG1        0.0305
     41 N          -3.8828  -10.4048   -0.7632 N.ar    1  LIG1       -0.2624
     42 H          -6.4339   -8.0156    0.8755 H       1  LIG1        0.0627
     43 H          -5.1273  -11.9467   -0.2196 H       1  LIG1        0.0832
     44 H          -2.7655   -8.7389   -1.2232 H       1  LIG1        0.0836
     45 C          -7.2032  -10.6570    1.0408 C.3     1  LIG1       -0.0383
     46 H          -7.1810  -11.7444    0.9803 H       1  LIG1        0.0278
     47 H          -8.0984  -10.2990    0.5299 H       1  LIG1        0.0278
     48 H          -7.2665  -10.3674    2.0906 H       1  LIG1        0.0278
@<TRIPOS>BOND
     1    32    31    1
     2     6     5    1
     3     7     1    1
     4    31    23    1
     5    44    36    1
     6    27    24    1
     7     5     1   ar
     8     5     4   ar
     9     1     2   ar
    10    41    36   ar
    11    41    40   ar
    12    36    37   ar
    13    23    24   ar
    14    23    25   ar
    15    19    18    1
    16    24    26   ar
    17    20    18    1
    18    22    21    1
    19    16    15   ar
    20    16    25    1
    21    16    17   ar
    22    21    15    1
    23    15    14   ar
    24    25    28   ar
    25    17    13   ar
    26    14    18    1
    27    14    13   ar
    28     4    13    1
    29     4     3   ar
    30    43    40    1
    31    26    37    1
    32    26    29   ar
    33    40    39   ar
    34    37    38   ar
    35     2     8    1
    36     2     3   ar
    37    28    29   ar
    38    28    30    1
    39    29    33    1
    40     3     9    1
    41    38    39   ar
    42    38    42    1
    43    39    45    1
    44    47    45    1
    45    33    34    3
    46    11     9    1
    47    46    45    1
    48    45    48    1
    49    34    35    1
    50     9    10    1
    51     9    12    1
