@<TRIPOS>MOLECULE
mol_data/opt/m06hf/geoms/mol2/13ai13ai13ai-13ai-.out
 46 49 0 0 0
SMALL
GASTEIGER

@<TRIPOS>ATOM
      1 C           0.9135   -0.1706   -1.7705 C.ar    1  LIG1        0.0025
      2 C           0.9474    0.8407   -0.8425 C.ar    1  LIG1       -0.0409
      3 C          -0.2933    0.8267   -0.1379 C.ar    1  LIG1       -0.0238
      4 C          -1.0385   -0.2015   -0.6737 C.ar    1  LIG1        0.0658
      5 N          -0.2907   -0.8001   -1.6581 N.ar    1  LIG1       -0.3593
      6 H          -0.6384   -1.5187   -2.2723 H       1  LIG1        0.1654
      7 H           1.6442   -0.4877   -2.4943 H       1  LIG1        0.0807
      8 H           1.7715    1.5135   -0.6696 H       1  LIG1        0.0635
      9 C          -0.7101    1.7360    0.9914 C.3     1  LIG1       -0.0377
     10 H          -1.5714    1.3141    1.5095 H       1  LIG1        0.0278
     11 H          -0.9811    2.7246    0.6160 H       1  LIG1        0.0278
     12 H           0.1080    1.8536    1.7031 H       1  LIG1        0.0278
     13 C          -2.3820   -0.6827   -0.3389 C.ar    1  LIG1        0.0639
     14 C          -3.5744   -0.0077   -0.1841 C.ar    1  LIG1       -0.0314
     15 C          -4.5789   -0.9608    0.1468 C.ar    1  LIG1       -0.0231
     16 C          -3.9583   -2.1957    0.1717 C.ar    1  LIG1        0.0663
     17 N          -2.6365   -2.0095   -0.1259 N.ar    1  LIG1       -0.3517
     18 H          -1.9451   -2.7437   -0.1228 H       1  LIG1        0.1660
     19 H          -3.7048    1.0552   -0.3106 H       1  LIG1        0.0642
     20 C          -6.0325   -0.6799    0.4435 C.3     1  LIG1       -0.0376
     21 H          -6.4602   -1.4925    1.0326 H       1  LIG1        0.0278
     22 H          -6.6138   -0.5657   -0.4747 H       1  LIG1        0.0278
     23 H          -6.1231    0.2440    1.0151 H       1  LIG1        0.0278
     24 C          -4.4791   -3.5322    0.4635 C.ar    1  LIG1        0.0639
     25 C          -3.9478   -4.5717    1.1975 C.ar    1  LIG1       -0.0314
     26 C          -4.8621   -5.6634    1.1374 C.ar    1  LIG1       -0.0231
     27 C          -5.9251   -5.2458    0.3630 C.ar    1  LIG1        0.0663
     28 N          -5.6808   -3.9542   -0.0317 N.ar    1  LIG1       -0.3517
     29 H          -6.2143   -3.4524   -0.7252 H       1  LIG1        0.1660
     30 H          -3.0287   -4.5346    1.7614 H       1  LIG1        0.0642
     31 C          -4.7294   -7.0015    1.8208 C.3     1  LIG1       -0.0376
     32 H          -4.3204   -6.8736    2.8236 H       1  LIG1        0.0278
     33 H          -4.0634   -7.6621    1.2622 H       1  LIG1        0.0278
     34 H          -5.7071   -7.4782    1.8947 H       1  LIG1        0.0278
     35 C          -7.1602   -5.9346   -0.0180 C.ar    1  LIG1        0.0634
     36 C          -7.3816   -7.2046   -0.5021 C.ar    1  LIG1       -0.0321
     37 C          -8.7863   -7.3550   -0.7052 C.ar    1  LIG1       -0.0325
     38 C          -9.3645   -6.1635   -0.3401 C.ar    1  LIG1        0.0051
     39 N          -8.3775   -5.3109    0.0687 N.ar    1  LIG1       -0.3593
     40 H          -8.5182   -4.4034    0.4825 H       1  LIG1        0.1654
     41 H         -10.3990   -5.8643   -0.3411 H       1  LIG1        0.0809
     42 H          -6.6130   -7.9303   -0.7148 H       1  LIG1        0.0642
     43 C          -9.5018   -8.5754   -1.2311 C.3     1  LIG1       -0.0383
     44 H          -9.3418   -9.4300   -0.5719 H       1  LIG1        0.0278
     45 H          -9.1381   -8.8378   -2.2255 H       1  LIG1        0.0278
     46 H         -10.5736   -8.3859   -1.2957 H       1  LIG1        0.0278
@<TRIPOS>BOND
     1     7     1    1
     2     6     5    1
     3    45    43    1
     4     1     5   ar
     5     1     2   ar
     6     5     4   ar
     7    46    43    1
     8    43    37    1
     9    43    44    1
    10     2     8    1
    11     2     3   ar
    12    29    28    1
    13    42    36    1
    14    37    36   ar
    15    37    38   ar
    16     4    13    1
    17     4     3   ar
    18    36    35   ar
    19    22    20    1
    20    41    38    1
    21    38    39   ar
    22    13    14   ar
    23    13    17   ar
    24    19    14    1
    25    14    15   ar
    26     3     9    1
    27    17    18    1
    28    17    16   ar
    29    28    27   ar
    30    28    24   ar
    31    35    39   ar
    32    35    27    1
    33    39    40    1
    34    15    16   ar
    35    15    20    1
    36    16    24    1
    37    27    26   ar
    38    20    23    1
    39    20    21    1
    40    24    25   ar
    41    11     9    1
    42     9    10    1
    43     9    12    1
    44    26    25   ar
    45    26    31    1
    46    25    30    1
    47    33    31    1
    48    31    34    1
    49    31    32    1
