@<TRIPOS>MOLECULE
mol_data/opt/m06hf/geoms/mol2/13ai13ai13ai.out
 35 37 0 0 0
SMALL
GASTEIGER

@<TRIPOS>ATOM
      1 C           1.1265   -0.0927   -1.1211 C.ar    1  LIG1        0.0025
      2 C           0.9422    0.9346   -0.2292 C.ar    1  LIG1       -0.0409
      3 C          -0.4089    0.8773    0.2270 C.ar    1  LIG1       -0.0238
      4 C          -0.9963   -0.1920   -0.4142 C.ar    1  LIG1        0.0658
      5 N          -0.0503   -0.7736   -1.2229 N.ar    1  LIG1       -0.3593
      6 H          -0.2468   -1.5151   -1.8761 H       1  LIG1        0.1654
      7 H           1.9940   -0.3890   -1.6848 H       1  LIG1        0.0807
      8 H           1.6897    1.6470    0.0793 H       1  LIG1        0.0635
      9 C          -1.0717    1.7863    1.2321 C.3     1  LIG1       -0.0377
     10 H          -2.0220    1.3574    1.5502 H       1  LIG1        0.0278
     11 H          -1.2631    2.7702    0.7997 H       1  LIG1        0.0278
     12 H          -0.4316    1.9163    2.1057 H       1  LIG1        0.0278
     13 C          -2.3571   -0.7336   -0.3290 C.ar    1  LIG1        0.0639
     14 C          -3.5882   -0.1297   -0.4667 C.ar    1  LIG1       -0.0314
     15 C          -4.5904   -1.1283   -0.2954 C.ar    1  LIG1       -0.0231
     16 C          -3.9285   -2.3172   -0.0650 C.ar    1  LIG1        0.0663
     17 N          -2.5809   -2.0617   -0.0868 N.ar    1  LIG1       -0.3517
     18 H          -1.8600   -2.7496    0.0663 H       1  LIG1        0.1660
     19 H          -3.7430    0.9152   -0.6832 H       1  LIG1        0.0642
     20 C          -6.0860   -0.9403   -0.3473 C.3     1  LIG1       -0.0376
     21 H          -6.5832   -1.8079    0.0868 H       1  LIG1        0.0278
     22 H          -6.4294   -0.8234   -1.3770 H       1  LIG1        0.0278
     23 H          -6.3744   -0.0491    0.2114 H       1  LIG1        0.0278
     24 C          -4.4456   -3.6659    0.1882 C.ar    1  LIG1        0.0634
     25 C          -5.3573   -4.4303   -0.5040 C.ar    1  LIG1       -0.0321
     26 C          -5.4982   -5.6731    0.1844 C.ar    1  LIG1       -0.0325
     27 C          -4.6590   -5.6152    1.2707 C.ar    1  LIG1        0.0051
     28 N          -4.0240   -4.4048    1.2635 N.ar    1  LIG1       -0.3593
     29 H          -3.4331   -4.0474    1.9969 H       1  LIG1        0.1654
     30 H          -4.4720   -6.3422    2.0430 H       1  LIG1        0.0809
     31 H          -5.8451   -4.1346   -1.4191 H       1  LIG1        0.0642
     32 C          -6.3804   -6.8333   -0.2083 C.3     1  LIG1       -0.0383
     33 H          -6.2801   -7.6456    0.5119 H       1  LIG1        0.0278
     34 H          -6.1053   -7.2111   -1.1941 H       1  LIG1        0.0278
     35 H          -7.4270   -6.5275   -0.2395 H       1  LIG1        0.0278
@<TRIPOS>BOND
     1     6     5    1
     2     7     1    1
     3    31    25    1
     4    22    20    1
     5     5     1   ar
     6     5     4   ar
     7    34    32    1
     8     1     2   ar
     9    19    14    1
    10    25    26   ar
    11    25    24   ar
    12    14    13   ar
    13    14    15   ar
    14     4    13    1
    15     4     3   ar
    16    20    15    1
    17    20    21    1
    18    20    23    1
    19    13    17   ar
    20    15    16   ar
    21    35    32    1
    22     2     8    1
    23     2     3   ar
    24    32    26    1
    25    32    33    1
    26    17    16   ar
    27    17    18    1
    28    16    24    1
    29    26    27   ar
    30    24    28   ar
    31     3     9    1
    32    11     9    1
    33     9    10    1
    34     9    12    1
    35    28    27   ar
    36    28    29    1
    37    27    30    1
