@<TRIPOS>MOLECULE
mol_data/opt/m06hf/geoms/mol2/13ai13ai13ai-13ai.out
 46 49 0 0 0
SMALL
GASTEIGER

@<TRIPOS>ATOM
      1 C           0.9131   -0.0853   -1.7447 C.ar    1  LIG1        0.0025
      2 C           0.9473    0.8888   -0.7781 C.ar    1  LIG1       -0.0409
      3 C          -0.2897    0.8415   -0.0682 C.ar    1  LIG1       -0.0238
      4 C          -1.0333   -0.1680   -0.6407 C.ar    1  LIG1        0.0658
      5 N          -0.2877   -0.7248   -1.6508 N.ar    1  LIG1       -0.3593
      6 H          -0.6339   -1.4225   -2.2894 H       1  LIG1        0.1654
      7 H           1.6410   -0.3699   -2.4846 H       1  LIG1        0.0807
      8 H           1.7689    1.5587   -0.5838 H       1  LIG1        0.0635
      9 C          -0.7057    1.7033    1.0977 C.3     1  LIG1       -0.0377
     10 H          -1.5578    1.2530    1.6071 H       1  LIG1        0.0278
     11 H          -0.9909    2.7021    0.7618 H       1  LIG1        0.0278
     12 H           0.1174    1.8036    1.8062 H       1  LIG1        0.0278
     13 C          -2.3712   -0.6716   -0.3153 C.ar    1  LIG1        0.0639
     14 C          -3.5679   -0.0144   -0.1244 C.ar    1  LIG1       -0.0314
     15 C          -4.5616   -0.9883    0.1776 C.ar    1  LIG1       -0.0231
     16 C          -3.9302   -2.2177    0.1487 C.ar    1  LIG1        0.0663
     17 N          -2.6125   -2.0082   -0.1525 N.ar    1  LIG1       -0.3517
     18 H          -1.9140   -2.7348   -0.1874 H       1  LIG1        0.1660
     19 H          -3.7101    1.0515   -0.2076 H       1  LIG1        0.0642
     20 C          -6.0161   -0.7320    0.4936 C.3     1  LIG1       -0.0376
     21 H          -6.4278   -1.5555    1.0789 H       1  LIG1        0.0278
     22 H          -6.6084   -0.6176   -0.4177 H       1  LIG1        0.0278
     23 H          -6.1135    0.1855    1.0741 H       1  LIG1        0.0278
     24 C          -4.4367   -3.5678    0.3981 C.ar    1  LIG1        0.0639
     25 C          -3.8814   -4.6312    1.0812 C.ar    1  LIG1       -0.0314
     26 C          -4.7951   -5.7208    1.0113 C.ar    1  LIG1       -0.0231
     27 C          -5.8820   -5.2775    0.2812 C.ar    1  LIG1        0.0663
     28 N          -5.6463   -3.9805   -0.0804 N.ar    1  LIG1       -0.3517
     29 H          -6.2410   -3.4438   -0.6930 H       1  LIG1        0.1660
     30 H          -2.9474   -4.6107    1.6205 H       1  LIG1        0.0642
     31 C          -4.6423   -7.0747    1.6624 C.3     1  LIG1       -0.0376
     32 H          -4.1739   -6.9664    2.6409 H       1  LIG1        0.0278
     33 H          -4.0161   -7.7394    1.0622 H       1  LIG1        0.0278
     34 H          -5.6196   -7.5398    1.7992 H       1  LIG1        0.0278
     35 C          -7.1310   -5.9398   -0.0989 C.ar    1  LIG1        0.0634
     36 C          -8.4264   -5.4692   -0.1282 C.ar    1  LIG1       -0.0321
     37 C          -9.2602   -6.5228   -0.6076 C.ar    1  LIG1       -0.0325
     38 C          -8.4357   -7.5959   -0.8473 C.ar    1  LIG1        0.0051
     39 N          -7.1551   -7.2343   -0.5377 N.ar    1  LIG1       -0.3593
     40 H          -6.3294   -7.7943   -0.6756 H       1  LIG1        0.1654
     41 H          -8.6690   -8.5819   -1.2117 H       1  LIG1        0.0809
     42 H          -8.7437   -4.4903    0.1958 H       1  LIG1        0.0642
     43 C         -10.7568   -6.4801   -0.7995 C.3     1  LIG1       -0.0383
     44 H         -11.1172   -7.4383   -1.1737 H       1  LIG1        0.0278
     45 H         -11.0317   -5.7051   -1.5166 H       1  LIG1        0.0278
     46 H         -11.2612   -6.2673    0.1441 H       1  LIG1        0.0278
@<TRIPOS>BOND
     1     7     1    1
     2     6     5    1
     3     1     5   ar
     4     1     2   ar
     5     5     4   ar
     6    45    43    1
     7    41    38    1
     8    44    43    1
     9    38    37   ar
    10    38    39   ar
    11    43    37    1
    12    43    46    1
    13     2     8    1
    14     2     3   ar
    15    29    28    1
    16    40    39    1
    17     4    13    1
    18     4     3   ar
    19    37    36   ar
    20    39    35   ar
    21    22    20    1
    22    13    17   ar
    23    13    14   ar
    24    19    14    1
    25    18    17    1
    26    17    16   ar
    27    36    35   ar
    28    36    42    1
    29    14    15   ar
    30    35    27    1
    31    28    27   ar
    32    28    24   ar
    33     3     9    1
    34    16    15   ar
    35    16    24    1
    36    15    20    1
    37    27    26   ar
    38    24    25   ar
    39    20    23    1
    40    20    21    1
    41    11     9    1
    42    26    25   ar
    43    26    31    1
    44    33    31    1
    45    25    30    1
    46     9    10    1
    47     9    12    1
    48    31    34    1
    49    31    32    1
