@<TRIPOS>MOLECULE
mol_data/opt/m06hf/geoms/mol2/13ai13ai13ai13ai-.out
 46 49 0 0 0
SMALL
GASTEIGER

@<TRIPOS>ATOM
      1 C           0.4304    0.6988   -2.1685 C.ar    1  LIG1        0.0025
      2 C           0.7142    1.2366   -0.9376 C.ar    1  LIG1       -0.0409
      3 C          -0.3278    0.8492   -0.0427 C.ar    1  LIG1       -0.0238
      4 C          -1.2117    0.0859   -0.7745 C.ar    1  LIG1        0.0658
      5 N          -0.7341   -0.0021   -2.0594 N.ar    1  LIG1       -0.3593
      6 H          -1.2388   -0.4262   -2.8209 H       1  LIG1        0.1654
      7 H           0.9601    0.7600   -3.1033 H       1  LIG1        0.0807
      8 H           1.5761    1.8352   -0.6919 H       1  LIG1        0.0635
      9 C          -0.4400    1.1824    1.4242 C.3     1  LIG1       -0.0377
     10 H          -1.2318    0.5879    1.8800 H       1  LIG1        0.0278
     11 H          -0.6730    2.2392    1.5651 H       1  LIG1        0.0278
     12 H           0.5003    0.9697    1.9348 H       1  LIG1        0.0278
     13 C          -2.4569   -0.5823   -0.3797 C.ar    1  LIG1        0.0639
     14 C          -3.5851   -0.1038    0.2503 C.ar    1  LIG1       -0.0314
     15 C          -4.5057   -1.1828    0.3851 C.ar    1  LIG1       -0.0231
     16 C          -3.9038   -2.2886   -0.1804 C.ar    1  LIG1        0.0663
     17 N          -2.6667   -1.9098   -0.6365 N.ar    1  LIG1       -0.3517
     18 H          -2.0023   -2.5205   -1.0855 H       1  LIG1        0.1660
     19 H          -3.7312    0.9170    0.5654 H       1  LIG1        0.0642
     20 C          -5.8699   -1.1415    1.0274 C.3     1  LIG1       -0.0376
     21 H          -6.2200   -2.1554    1.2228 H       1  LIG1        0.0278
     22 H          -6.5922   -0.6429    0.3783 H       1  LIG1        0.0278
     23 H          -5.8251   -0.5953    1.9702 H       1  LIG1        0.0278
     24 C          -4.3777   -3.6688   -0.3207 C.ar    1  LIG1        0.0639
     25 C          -5.5623   -4.1753   -0.8118 C.ar    1  LIG1       -0.0314
     26 C          -5.5019   -5.5955   -0.7258 C.ar    1  LIG1       -0.0231
     27 C          -4.2658   -5.9063   -0.1913 C.ar    1  LIG1        0.0663
     28 N          -3.6014   -4.7340    0.0446 N.ar    1  LIG1       -0.3517
     29 H          -2.6970   -4.6757    0.4865 H       1  LIG1        0.1660
     30 H          -6.3748   -3.5828   -1.2006 H       1  LIG1        0.0642
     31 C          -6.5862   -6.5747   -1.1079 C.3     1  LIG1       -0.0376
     32 H          -6.4129   -7.5369   -0.6245 H       1  LIG1        0.0278
     33 H          -6.6270   -6.7255   -2.1894 H       1  LIG1        0.0278
     34 H          -7.5571   -6.1981   -0.7850 H       1  LIG1        0.0278
     35 C          -3.6462   -7.1937    0.1338 C.ar    1  LIG1        0.0634
     36 C          -2.9385   -7.6020    1.2439 C.ar    1  LIG1       -0.0321
     37 C          -2.5328   -8.9528    1.0285 C.ar    1  LIG1       -0.0325
     38 C          -3.0164   -9.3135   -0.2066 C.ar    1  LIG1        0.0051
     39 N          -3.6849   -8.2473   -0.7370 N.ar    1  LIG1       -0.3593
     40 H          -4.0927   -8.1993   -1.6566 H       1  LIG1        0.1654
     41 H          -2.9337  -10.2461   -0.7388 H       1  LIG1        0.0809
     42 H          -2.7654   -7.0099    2.1290 H       1  LIG1        0.0642
     43 C          -1.7470   -9.8254    1.9768 C.3     1  LIG1       -0.0383
     44 H          -2.2754   -9.9362    2.9248 H       1  LIG1        0.0278
     45 H          -0.7673   -9.3906    2.1803 H       1  LIG1        0.0278
     46 H          -1.6009  -10.8164    1.5469 H       1  LIG1        0.0278
@<TRIPOS>BOND
     1     7     1    1
     2     6     5    1
     3    33    31    1
     4     1     5   ar
     5     1     2   ar
     6     5     4   ar
     7    40    39    1
     8    30    25    1
     9    31    34    1
    10    31    26    1
    11    31    32    1
    12    18    17    1
    13     2     8    1
    14     2     3   ar
    15    25    26   ar
    16    25    24   ar
    17     4    13    1
    18     4     3   ar
    19    41    38    1
    20    39    38   ar
    21    39    35   ar
    22    26    27   ar
    23    17    13   ar
    24    17    16   ar
    25    13    14   ar
    26    24    16    1
    27    24    28   ar
    28    38    37   ar
    29    27    28   ar
    30    27    35    1
    31    16    15   ar
    32     3     9    1
    33    28    29    1
    34    35    36   ar
    35    14    15   ar
    36    14    19    1
    37    22    20    1
    38    15    20    1
    39    20    21    1
    40    20    23    1
    41    37    36   ar
    42    37    43    1
    43    36    42    1
    44     9    11    1
    45     9    10    1
    46     9    12    1
    47    46    43    1
    48    43    45    1
    49    43    44    1
