@<TRIPOS>MOLECULE
mol_data/opt/m06hf/geoms/mol2/13ai13ai-.out
 24 25 0 0 0
SMALL
GASTEIGER

@<TRIPOS>ATOM
      1 C           1.2212   -0.2696   -0.3911 C.ar    1  LIG1        0.0025
      2 C           0.8539    0.9991   -0.0136 C.ar    1  LIG1       -0.0409
      3 C          -0.5630    1.0100    0.1492 C.ar    1  LIG1       -0.0238
      4 C          -1.0028   -0.2653   -0.1452 C.ar    1  LIG1        0.0658
      5 N           0.0893   -1.0240   -0.4679 N.ar    1  LIG1       -0.3593
      6 H           0.0312   -1.9847   -0.7653 H       1  LIG1        0.1654
      7 H           2.1881   -0.6888   -0.6083 H       1  LIG1        0.0807
      8 H           1.5200    1.8311    0.1461 H       1  LIG1        0.0635
      9 C          -1.4157    2.1735    0.5965 C.3     1  LIG1       -0.0377
     10 H          -2.3570    1.8143    1.0154 H       1  LIG1        0.0278
     11 H          -1.6351    2.8508   -0.2329 H       1  LIG1        0.0278
     12 H          -0.8944    2.7447    1.3652 H       1  LIG1        0.0278
     13 C          -2.3450   -0.8529   -0.1456 C.ar    1  LIG1        0.0634
     14 C          -2.7963   -2.0771    0.2998 C.ar    1  LIG1       -0.0321
     15 C          -4.1954   -2.1489    0.0310 C.ar    1  LIG1       -0.0325
     16 C          -4.5409   -0.9590   -0.5636 C.ar    1  LIG1        0.0051
     17 N          -3.4186   -0.1867   -0.6663 N.ar    1  LIG1       -0.3593
     18 H          -3.3552    0.7140   -1.1125 H       1  LIG1        0.1654
     19 H          -5.4967   -0.6107   -0.9166 H       1  LIG1        0.0809
     20 H          -2.1958   -2.8223    0.7974 H       1  LIG1        0.0642
     21 C          -5.1225   -3.2963    0.3506 C.3     1  LIG1       -0.0383
     22 H          -5.1212   -3.5073    1.4212 H       1  LIG1        0.0278
     23 H          -4.8136   -4.2006   -0.1759 H       1  LIG1        0.0278
     24 H          -6.1419   -3.0541    0.0493 H       1  LIG1        0.0278
@<TRIPOS>BOND
     1    18    17    1
     2    19    16    1
     3     6     5    1
     4    17    16   ar
     5    17    13   ar
     6     7     1    1
     7    16    15   ar
     8     5     1   ar
     9     5     4   ar
    10     1     2   ar
    11    11     9    1
    12    23    21    1
    13    13     4    1
    14    13    14   ar
    15     4     3   ar
    16     2     8    1
    17     2     3   ar
    18    15    14   ar
    19    15    21    1
    20    24    21    1
    21     3     9    1
    22    14    20    1
    23    21    22    1
    24     9    10    1
    25     9    12    1
