@<TRIPOS>MOLECULE
mol_data/opt/m06hf/geoms/mol2/13ai13ai-13ai.out
 35 37 0 0 0
SMALL
GASTEIGER

@<TRIPOS>ATOM
      1 C           1.1761   -0.2889   -0.9051 C.ar    1  LIG1        0.0025
      2 C           0.9241    0.9452   -0.3566 C.ar    1  LIG1       -0.0409
      3 C          -0.4306    0.9540    0.0889 C.ar    1  LIG1       -0.0238
      4 C          -0.9523   -0.2875   -0.2158 C.ar    1  LIG1        0.0658
      5 N           0.0330   -1.0250   -0.8149 N.ar    1  LIG1       -0.3593
      6 H          -0.1082   -1.9563   -1.1713 H       1  LIG1        0.1654
      7 H           2.0691   -0.6944   -1.3477 H       1  LIG1        0.0807
      8 H           1.6297    1.7548   -0.2664 H       1  LIG1        0.0635
      9 C          -1.1472    2.0805    0.7952 C.3     1  LIG1       -0.0377
     10 H          -2.0077    1.6960    1.3446 H       1  LIG1        0.0278
     11 H          -1.4921    2.8391    0.0885 H       1  LIG1        0.0278
     12 H          -0.4745    2.5641    1.5042 H       1  LIG1        0.0278
     13 C          -2.2829   -0.8564    0.0060 C.ar    1  LIG1        0.0639
     14 C          -2.6748   -2.1067    0.4404 C.ar    1  LIG1       -0.0314
     15 C          -4.0983   -2.1364    0.4595 C.ar    1  LIG1       -0.0231
     16 C          -4.5241   -0.8929    0.0311 C.ar    1  LIG1        0.0663
     17 N          -3.4166   -0.1380   -0.2384 N.ar    1  LIG1       -0.3517
     18 H          -3.4393    0.7788   -0.6575 H       1  LIG1        0.1660
     19 H          -2.0112   -2.8937    0.7621 H       1  LIG1        0.0642
     20 C          -4.9758   -3.2748    0.9230 C.3     1  LIG1       -0.0376
     21 H          -4.5428   -3.7432    1.8073 H       1  LIG1        0.0278
     22 H          -5.0772   -4.0416    0.1512 H       1  LIG1        0.0278
     23 H          -5.9679   -2.9033    1.1826 H       1  LIG1        0.0278
     24 C          -5.8661   -0.3326   -0.1411 C.ar    1  LIG1        0.0634
     25 C          -6.3726    0.9089    0.1787 C.ar    1  LIG1       -0.0321
     26 C          -7.7378    0.9405   -0.2343 C.ar    1  LIG1       -0.0325
     27 C          -8.0080   -0.2882   -0.7873 C.ar    1  LIG1        0.0051
     28 N          -6.8735   -1.0475   -0.7267 N.ar    1  LIG1       -0.3593
     29 H          -6.7542   -1.9708   -1.1112 H       1  LIG1        0.1654
     30 H          -8.9186   -0.6724   -1.2145 H       1  LIG1        0.0809
     31 H          -5.8324    1.6930    0.6861 H       1  LIG1        0.0642
     32 C          -8.7060    2.0883   -0.0796 C.3     1  LIG1       -0.0383
     33 H          -9.6772    1.8223   -0.4972 H       1  LIG1        0.0278
     34 H          -8.3389    2.9748   -0.5986 H       1  LIG1        0.0278
     35 H          -8.8415    2.3401    0.9732 H       1  LIG1        0.0278
@<TRIPOS>BOND
     1     7     1    1
     2    30    27    1
     3     6     5    1
     4    29    28    1
     5     1     5   ar
     6     1     2   ar
     7     5     4   ar
     8    27    28   ar
     9    27    26   ar
    10    28    24   ar
    11    18    17    1
    12    34    32    1
    13    33    32    1
    14     2     8    1
    15     2     3   ar
    16    17    13   ar
    17    17    16   ar
    18    26    32    1
    19    26    25   ar
    20     4    13    1
    21     4     3   ar
    22    24    16    1
    23    24    25   ar
    24    32    35    1
    25    13    14   ar
    26    16    15   ar
    27    11     9    1
    28     3     9    1
    29    22    20    1
    30    25    31    1
    31    14    15   ar
    32    14    19    1
    33    15    20    1
    34     9    10    1
    35     9    12    1
    36    20    23    1
    37    20    21    1
