@<TRIPOS>MOLECULE
mol_data/opt/m06hf/geoms/mol2/13ai13ai.out
 24 25 0 0 0
SMALL
GASTEIGER

@<TRIPOS>ATOM
      1 C           1.2041   -0.3361   -0.5310 C.ar    1  LIG1        0.0025
      2 C           0.8807    0.9439   -0.1543 C.ar    1  LIG1       -0.0409
      3 C          -0.5216    0.9786    0.1107 C.ar    1  LIG1       -0.0238
      4 C          -0.9976   -0.2940   -0.1203 C.ar    1  LIG1        0.0658
      5 N           0.0618   -1.0805   -0.5020 N.ar    1  LIG1       -0.3593
      6 H          -0.0300   -2.0316   -0.8198 H       1  LIG1        0.1654
      7 H           2.1471   -0.7701   -0.8154 H       1  LIG1        0.0807
      8 H           1.5677    1.7694   -0.0640 H       1  LIG1        0.0635
      9 C          -1.3325    2.1621    0.5766 C.3     1  LIG1       -0.0377
     10 H          -2.2984    1.8253    0.9536 H       1  LIG1        0.0278
     11 H          -1.5056    2.8624   -0.2428 H       1  LIG1        0.0278
     12 H          -0.8064    2.6913    1.3721 H       1  LIG1        0.0278
     13 C          -2.3503   -0.8481   -0.0006 C.ar    1  LIG1        0.0634
     14 C          -3.5561   -0.4167   -0.5049 C.ar    1  LIG1       -0.0321
     15 C          -4.5618   -1.3365   -0.0803 C.ar    1  LIG1       -0.0325
     16 C          -3.9233   -2.2983    0.6640 C.ar    1  LIG1        0.0051
     17 N          -2.5897   -2.0000    0.7031 N.ar    1  LIG1       -0.3593
     18 H          -1.8960   -2.4735    1.2588 H       1  LIG1        0.1654
     19 H          -4.3203   -3.1650    1.1652 H       1  LIG1        0.0809
     20 H          -3.6900    0.4505   -1.1316 H       1  LIG1        0.0642
     21 C          -6.0365   -1.2770   -0.3954 C.3     1  LIG1       -0.0383
     22 H          -6.5530   -2.1294    0.0467 H       1  LIG1        0.0278
     23 H          -6.2025   -1.2959   -1.4736 H       1  LIG1        0.0278
     24 H          -6.4788   -0.3625    0.0023 H       1  LIG1        0.0278
@<TRIPOS>BOND
     1    23    21    1
     2    20    14    1
     3     6     5    1
     4     7     1    1
     5     1     5   ar
     6     1     2   ar
     7    14    15   ar
     8    14    13   ar
     9     5     4   ar
    10    21    15    1
    11    21    24    1
    12    21    22    1
    13    11     9    1
    14     2     8    1
    15     2     3   ar
    16     4    13    1
    17     4     3   ar
    18    15    16   ar
    19    13    17   ar
    20     3     9    1
    21     9    10    1
    22     9    12    1
    23    16    17   ar
    24    16    19    1
    25    17    18    1
