@<TRIPOS>MOLECULE
mol_data/opt/m06hf/geoms/mol2/13ai13ai-13ai-13ai-.out
 46 49 0 0 0
SMALL
GASTEIGER

@<TRIPOS>ATOM
      1 C           1.2178   -0.5117   -1.1667 C.ar    1  LIG1        0.0025
      2 C           1.0070    0.8044   -0.8340 C.ar    1  LIG1       -0.0409
      3 C          -0.3227    0.9171   -0.3316 C.ar    1  LIG1       -0.0238
      4 C          -0.8713   -0.3491   -0.3851 C.ar    1  LIG1        0.0658
      5 N           0.0747   -1.1987   -0.8906 N.ar    1  LIG1       -0.3593
      6 H          -0.0936   -2.1749   -1.0729 H       1  LIG1        0.1654
      7 H           2.0820   -1.0053   -1.5756 H       1  LIG1        0.0807
      8 H           1.7251    1.6032   -0.9245 H       1  LIG1        0.0635
      9 C          -0.9907    2.1652    0.1941 C.3     1  LIG1       -0.0377
     10 H          -1.8176    1.9010    0.8552 H       1  LIG1        0.0278
     11 H          -1.3750    2.7854   -0.6194 H       1  LIG1        0.0278
     12 H          -0.2750    2.7612    0.7608 H       1  LIG1        0.0278
     13 C          -2.1923   -0.8495    0.0006 C.ar    1  LIG1        0.0639
     14 C          -2.5665   -2.0008    0.6609 C.ar    1  LIG1       -0.0314
     15 C          -3.9885   -2.0147    0.7474 C.ar    1  LIG1       -0.0231
     16 C          -4.4322   -0.8617    0.1333 C.ar    1  LIG1        0.0663
     17 N          -3.3340   -0.1662   -0.3080 N.ar    1  LIG1       -0.3517
     18 H          -3.3646    0.6378   -0.9162 H       1  LIG1        0.1660
     19 H          -1.8901   -2.7287    1.0804 H       1  LIG1        0.0642
     20 C          -4.8490   -3.0588    1.4139 C.3     1  LIG1       -0.0376
     21 H          -4.4099   -3.3579    2.3664 H       1  LIG1        0.0278
     22 H          -4.9403   -3.9471    0.7859 H       1  LIG1        0.0278
     23 H          -5.8470   -2.6585    1.5940 H       1  LIG1        0.0278
     24 C          -5.7892   -0.3433   -0.0568 C.ar    1  LIG1        0.0639
     25 C          -6.9364   -0.9496   -0.5215 C.ar    1  LIG1       -0.0314
     26 C          -7.9824    0.0176   -0.5057 C.ar    1  LIG1       -0.0231
     27 C          -7.4293    1.1913   -0.0359 C.ar    1  LIG1        0.0663
     28 N          -6.1041    0.9565    0.2326 N.ar    1  LIG1       -0.3517
     29 H          -5.4582    1.6421    0.5914 H       1  LIG1        0.1660
     30 H          -7.0050   -1.9739   -0.8519 H       1  LIG1        0.0642
     31 C          -9.4202   -0.1895   -0.9110 C.3     1  LIG1       -0.0376
     32 H          -9.8129   -1.0998   -0.4562 H       1  LIG1        0.0278
     33 H          -9.5093   -0.2835   -1.9951 H       1  LIG1        0.0278
     34 H         -10.0234    0.6577   -0.5848 H       1  LIG1        0.0278
     35 C          -8.0323    2.5061    0.2066 C.ar    1  LIG1        0.0634
     36 C          -8.7876    3.3230   -0.6038 C.ar    1  LIG1       -0.0321
     37 C          -9.1184    4.4941    0.1425 C.ar    1  LIG1       -0.0325
     38 C          -8.5441    4.3431    1.3816 C.ar    1  LIG1        0.0051
     39 N          -7.8862    3.1455    1.4107 N.ar    1  LIG1       -0.3593
     40 H          -7.4683    2.7247    2.2250 H       1  LIG1        0.1654
     41 H          -8.5594    4.9962    2.2379 H       1  LIG1        0.0809
     42 H          -9.0487    3.1090   -1.6279 H       1  LIG1        0.0642
     43 C          -9.9244    5.6769   -0.3363 C.3     1  LIG1       -0.0383
     44 H         -10.9266    5.3651   -0.6334 H       1  LIG1        0.0278
     45 H          -9.4443    6.1485   -1.1951 H       1  LIG1        0.0278
     46 H         -10.0156    6.4186    0.4575 H       1  LIG1        0.0278
@<TRIPOS>BOND
     1    33    31    1
     2    42    36    1
     3     7     1    1
     4    45    43    1
     5     1     5   ar
     6     1     2   ar
     7     6     5    1
     8     8     2    1
     9    18    17    1
    10    31    34    1
    11    31    26    1
    12    31    32    1
    13     5     4   ar
    14    30    25    1
    15     2     3   ar
    16    44    43    1
    17    11     9    1
    18    36    37   ar
    19    36    35   ar
    20    25    26   ar
    21    25    24   ar
    22    26    27   ar
    23     4     3   ar
    24     4    13    1
    25    43    37    1
    26    43    46    1
    27     3     9    1
    28    17    13   ar
    29    17    16   ar
    30    24    16    1
    31    24    28   ar
    32    27    35    1
    33    27    28   ar
    34    13    14   ar
    35    16    15   ar
    36    37    38   ar
    37     9    12    1
    38     9    10    1
    39    35    39   ar
    40    28    29    1
    41    14    15   ar
    42    14    19    1
    43    15    20    1
    44    22    20    1
    45    38    39   ar
    46    38    41    1
    47    39    40    1
    48    20    23    1
    49    20    21    1
