@<TRIPOS>MOLECULE
mol_data/opt/m06hf/geoms/mol2/13al13al-13al.out
 38 40 0 0 0
SMALL
GASTEIGER

@<TRIPOS>ATOM
      1 C           1.1041   -0.5478    0.1063 C.ar    1  LIG1        0.0058
      2 C           0.7908    0.7921    0.0478 C.ar    1  LIG1       -0.0019
      3 C          -0.6297    0.8642    0.0238 C.ar    1  LIG1        0.1467
      4 C          -1.1329   -0.4191    0.0679 C.ar    1  LIG1        0.1052
      5 N          -0.0538   -1.2601    0.1177 N.ar    1  LIG1       -0.3566
      6 H          -0.1184   -2.2638    0.1572 H       1  LIG1        0.1655
      7 H           2.0616   -1.0365    0.1401 H       1  LIG1        0.0808
      8 H           1.4948    1.6059    0.0255 H       1  LIG1        0.0669
      9 O          -1.4453    1.9609   -0.0323 O.3     1  LIG1       -0.4929
     10 C          -0.7783    3.2094   -0.0734 C.3     1  LIG1        0.0789
     11 H          -1.5529    3.9705   -0.1157 H       1  LIG1        0.0660
     12 H          -0.1724    3.3441    0.8258 H       1  LIG1        0.0660
     13 H          -0.1463    3.2712   -0.9626 H       1  LIG1        0.0660
     14 C          -2.5190   -0.8620    0.0653 C.ar    1  LIG1        0.0705
     15 C          -3.0854   -2.1260    0.1082 C.ar    1  LIG1        0.0076
     16 C          -4.4899   -1.9243    0.0793 C.ar    1  LIG1        0.1473
     17 C          -4.7402   -0.5674    0.0206 C.ar    1  LIG1        0.1057
     18 N          -3.5227    0.0529    0.0134 N.ar    1  LIG1       -0.3488
     19 H          -3.3481    1.0485   -0.0242 H       1  LIG1        0.1661
     20 H          -2.5587   -3.0644    0.1541 H       1  LIG1        0.0676
     21 O          -5.4998   -2.8480    0.1019 O.3     1  LIG1       -0.4929
     22 C          -5.0829   -4.1982    0.1627 C.3     1  LIG1        0.0789
     23 H          -5.9873   -4.8013    0.1738 H       1  LIG1        0.0660
     24 H          -4.4802   -4.4488   -0.7141 H       1  LIG1        0.0660
     25 H          -4.5066   -4.3764    1.0744 H       1  LIG1        0.0660
     26 C          -6.0167    0.1302   -0.0265 C.ar    1  LIG1        0.0701
     27 C          -6.3280    1.4783   -0.0861 C.ar    1  LIG1        0.0069
     28 C          -7.7496    1.5554   -0.1098 C.ar    1  LIG1        0.1379
     29 C          -8.2496    0.2756   -0.0646 C.ar    1  LIG1        0.0444
     30 N          -7.1785   -0.5730   -0.0144 N.ar    1  LIG1       -0.3564
     31 H          -7.1968   -1.5824    0.0267 H       1  LIG1        0.1655
     32 H          -9.2671   -0.0680   -0.0652 H       1  LIG1        0.0844
     33 H          -5.6254    2.2942   -0.1095 H       1  LIG1        0.0676
     34 O          -8.5426    2.6635   -0.1667 O.3     1  LIG1       -0.4936
     35 C          -7.8506    3.8924   -0.2064 C.3     1  LIG1        0.0789
     36 H          -8.6084    4.6711   -0.2490 H       1  LIG1        0.0660
     37 H          -7.2395    4.0208    0.6920 H       1  LIG1        0.0660
     38 H          -7.2134    3.9484   -1.0940 H       1  LIG1        0.0660
@<TRIPOS>BOND
     1    38    35    1
     2    13    10    1
     3    24    22    1
     4    36    35    1
     5    35    34    1
     6    35    37    1
     7    34    28    1
     8    11    10    1
     9    28    27   ar
    10    28    29   ar
    11    33    27    1
    12    27    26   ar
    13    10     9    1
    14    10    12    1
    15    32    29    1
    16    29    30   ar
    17     9     3    1
    18    26    30   ar
    19    26    17    1
    20    19    18    1
    21    30    31    1
    22    18    17   ar
    23    18    14   ar
    24    17    16   ar
    25     3     2   ar
    26     3     4   ar
    27     8     2    1
    28     2     1   ar
    29    14     4    1
    30    14    15   ar
    31     4     5   ar
    32    16    21    1
    33    16    15   ar
    34    21    22    1
    35     1     5   ar
    36     1     7    1
    37    15    20    1
    38     5     6    1
    39    22    23    1
    40    22    25    1
