@<TRIPOS>MOLECULE
mol_data/opt/m06hf/geoms/mol2/13al12ea-13el6li.out
 53 56 0 0 0
SMALL
GASTEIGER

@<TRIPOS>ATOM
      1 C           1.3282   -0.1279    0.6080 C.ar    1  LIG1        0.0058
      2 C           1.0561    1.0598   -0.0319 C.ar    1  LIG1       -0.0018
      3 C          -0.3392    1.0612   -0.3084 C.ar    1  LIG1        0.1483
      4 C          -0.8682   -0.1156    0.1837 C.ar    1  LIG1        0.1255
      5 N           0.1712   -0.8291    0.7254 N.ar    1  LIG1       -0.3553
      6 H           0.0616   -1.7307    1.1608 H       1  LIG1        0.1655
      7 H           2.2576   -0.5201    0.9826 H       1  LIG1        0.0808
      8 H           1.7674    1.8244   -0.2943 H       1  LIG1        0.0669
      9 O          -1.0524    1.9990   -0.9854 O.3     1  LIG1       -0.4929
     10 C          -1.0550    3.2829   -0.3739 C.3     1  LIG1        0.0789
     11 H          -1.6857    3.9144   -0.9955 H       1  LIG1        0.0660
     12 H          -1.4677    3.2151    0.6337 H       1  LIG1        0.0660
     13 H          -0.0427    3.6917   -0.3375 H       1  LIG1        0.0660
     14 C          -2.2134   -0.6556    0.1658 C.ar    1  LIG1        0.1707
     15 C          -3.4699   -0.1154    0.1485 C.ar    1  LIG1        0.0726
     16 C          -4.3890   -1.2278    0.1606 C.ar    1  LIG1        0.0018
     17 C          -3.6231   -2.3447    0.2001 C.ar    1  LIG1        0.1544
     18 O          -2.3051   -2.0074    0.2011 O.2     1  LIG1       -0.4505
     19 C          -3.8336    1.2682    0.1781 C.1     1  LIG1       -0.0658
     20 C          -4.2027    2.4111    0.2233 C.1     1  LIG1       -0.1138
     21 H          -4.5283    3.4245    0.2571 H       1  LIG1        0.1232
     22 H          -5.4640   -1.1845    0.1480 H       1  LIG1        0.0668
     23 C          -3.9165   -3.7656    0.2301 C.ar    1  LIG1        0.1018
     24 C          -5.1273   -4.4381    0.3392 C.ar    1  LIG1        0.0951
     25 C          -4.8136   -5.8243    0.3073 C.ar    1  LIG1        0.1614
     26 C          -3.4420   -5.9580    0.1747 C.ar    1  LIG1        0.0956
     27 N          -2.9318   -4.6871    0.1367 N.ar    1  LIG1       -0.3477
     28 H          -1.9488   -4.4924    0.0017 H       1  LIG1        0.1661
     29 C          -6.4283   -3.8610    0.4697 C.1     1  LIG1       -0.0637
     30 C          -7.5292   -3.3859    0.5715 C.1     1  LIG1       -0.1137
     31 H          -8.5044   -2.9704    0.6778 H       1  LIG1        0.1232
     32 O          -5.7172   -6.8409    0.3881 O.3     1  LIG1       -0.4917
     33 C          -6.4195   -7.0601   -0.8376 C.3     1  LIG1        0.0789
     34 H          -7.1045   -7.8842   -0.6536 H       1  LIG1        0.0660
     35 H          -6.9751   -6.1631   -1.1140 H       1  LIG1        0.0660
     36 H          -5.7118   -7.3217   -1.6270 H       1  LIG1        0.0660
     37 C          -1.2446   -7.1522   -0.2311 C.ar    1  LIG1        0.2239
     38 C          -2.6207   -7.1732    0.0966 C.ar    1  LIG1        0.0637
     39 C          -3.1698   -8.4266    0.3375 C.ar    1  LIG1       -0.0430
     40 C          -2.3912   -9.5859    0.2393 C.ar    1  LIG1       -0.0315
     41 C          -1.0593   -9.4211   -0.0997 C.ar    1  LIG1        0.0343
     42 N          -0.4996   -8.2260   -0.3261 N.ar    1  LIG1       -0.2205
     43 H          -4.2172   -8.4886    0.6088 H       1  LIG1        0.0629
     44 H          -0.4014  -10.2773   -0.1945 H       1  LIG1        0.0833
     45 O          -0.6625   -5.9474   -0.4579 O.3     1  LIG1       -0.4792
     46 C           0.7029   -5.9647   -0.8750 C.3     1  LIG1        0.0804
     47 H           0.9676   -4.9224   -1.0324 H       1  LIG1        0.0660
     48 H           1.3246   -6.4167   -0.1040 H       1  LIG1        0.0660
     49 H           0.8021   -6.5335   -1.7979 H       1  LIG1        0.0660
     50 C          -2.9881  -10.9548    0.4969 C.3     1  LIG1       -0.0383
     51 H          -2.2366  -11.7309    0.3536 H       1  LIG1        0.0278
     52 H          -3.8166  -11.1422   -0.1875 H       1  LIG1        0.0278
     53 H          -3.3648  -11.0190    1.5184 H       1  LIG1        0.0278
@<TRIPOS>BOND
     1    49    46    1
     2    36    33    1
     3    35    33    1
     4    47    46    1
     5    11    10    1
     6     9    10    1
     7     9     3    1
     8    46    45    1
     9    46    48    1
    10    33    34    1
    11    33    32    1
    12    45    37    1
    13    10    13    1
    14    10    12    1
    15    42    37   ar
    16    42    41   ar
    17     3     2   ar
    18     3     4   ar
    19     8     2    1
    20    37    38   ar
    21    44    41    1
    22    52    50    1
    23    41    40   ar
    24     2     1   ar
    25    28    27    1
    26    38    26    1
    27    38    39   ar
    28    27    26   ar
    29    27    23   ar
    30    22    16    1
    31    15    16   ar
    32    15    14   ar
    33    15    19    1
    34    16    17   ar
    35    14     4    1
    36    14    18   ar
    37    26    25   ar
    38    19    20    3
    39     4     5   ar
    40    17    18   ar
    41    17    23    1
    42    20    21    1
    43    23    24   ar
    44    40    39   ar
    45    40    50    1
    46    25    24   ar
    47    25    32    1
    48    39    43    1
    49    24    29    1
    50    51    50    1
    51    29    30    3
    52    50    53    1
    53    30    31    1
    54     1     5   ar
    55     1     7    1
    56     5     6    1
