@<TRIPOS>MOLECULE
mol_data/opt/m06hf/geoms/mol2/13al13de-12af-6af-.out
 43 46 0 0 0
SMALL
GASTEIGER

@<TRIPOS>ATOM
      1 C           1.3089    0.0150   -0.7692 C.ar    1  LIG1        0.0058
      2 C           0.9914    1.0705    0.0537 C.ar    1  LIG1       -0.0019
      3 C          -0.3875    0.9272    0.3805 C.ar    1  LIG1        0.1467
      4 C          -0.8573   -0.1994   -0.2583 C.ar    1  LIG1        0.1064
      5 N           0.1999   -0.7537   -0.9421 N.ar    1  LIG1       -0.3566
      6 H           0.1229   -1.5237   -1.5869 H       1  LIG1        0.1655
      7 H           2.2405   -0.2396   -1.2439 H       1  LIG1        0.0808
      8 H           1.6651    1.8386    0.3919 H       1  LIG1        0.0669
      9 O          -1.1546    1.6783    1.2068 O.3     1  LIG1       -0.4929
     10 C          -1.0542    3.0855    1.0097 C.3     1  LIG1        0.0789
     11 H          -1.8311    3.5313    1.6245 H       1  LIG1        0.0660
     12 H          -0.0732    3.4440    1.3290 H       1  LIG1        0.0660
     13 H          -1.2294    3.3295   -0.0384 H       1  LIG1        0.0660
     14 C          -2.1962   -0.7650   -0.2440 C.ar    1  LIG1        0.0858
     15 C          -3.4251   -0.1349   -0.3065 C.ar    1  LIG1        0.0946
     16 C          -4.4398   -1.1421   -0.2504 C.ar    1  LIG1        0.0709
     17 C          -3.7813   -2.3527   -0.1626 C.ar    1  LIG1        0.0995
     18 N          -2.4390   -2.1024   -0.1592 N.ar    1  LIG1       -0.3485
     19 H          -1.7378   -2.8124   -0.0025 H       1  LIG1        0.1661
     20 N          -3.8006    2.4024   -0.5791 N.1     1  LIG1       -0.1908
     21 C          -3.6287    1.2746   -0.4491 C.1     1  LIG1        0.1026
     22 C          -5.8544   -0.9460   -0.2953 C.1     1  LIG1       -0.0661
     23 C          -7.0431   -0.7730   -0.3324 C.1     1  LIG1       -0.1138
     24 H          -8.0944   -0.6015   -0.3677 H       1  LIG1        0.1232
     25 C          -4.2862   -3.7101   -0.0770 C.ar    1  LIG1        0.1566
     26 C          -5.5335   -4.2393    0.0355 C.ar    1  LIG1        0.0279
     27 C          -5.3317   -5.6565    0.0788 C.ar    1  LIG1        0.1633
     28 C          -3.9887   -5.8826    0.0051 C.ar    1  LIG1        0.1785
     29 O          -3.3494   -4.6857   -0.1082 O.2     1  LIG1       -0.4495
     30 H          -6.4662   -3.7052    0.0801 H       1  LIG1        0.0693
     31 O          -6.3337   -6.5695    0.1750 O.3     1  LIG1       -0.5032
     32 H          -6.1119   -7.3571   -0.3364 H       1  LIG1        0.2923
     33 C          -1.9327   -7.1446   -0.6110 C.ar    1  LIG1        0.0386
     34 C          -3.1971   -7.1115   -0.0066 C.ar    1  LIG1        0.0424
     35 C          -3.6849   -8.2773    0.5818 C.ar    1  LIG1       -0.0064
     36 C          -2.9011   -9.4236    0.5217 C.ar    1  LIG1        0.1355
     37 C          -1.6548   -9.3558   -0.1014 C.ar    1  LIG1        0.0690
     38 N          -1.1850   -8.2381   -0.6464 N.ar    1  LIG1       -0.2589
     39 H          -4.6292   -8.3032    1.1109 H       1  LIG1        0.0662
     40 H          -1.0189  -10.2342   -0.1546 H       1  LIG1        0.0867
     41 H          -1.5287   -6.2541   -1.0745 H       1  LIG1        0.0837
     42 O          -3.3832  -10.5583    1.0861 O.3     1  LIG1       -0.5052
     43 H          -2.7481  -11.2789    1.0097 H       1  LIG1        0.2922
@<TRIPOS>BOND
     1     6     5    1
     2     7     1    1
     3    41    33    1
     4     5     1   ar
     5     5     4   ar
     6     1     2   ar
     7    38    33   ar
     8    38    37   ar
     9    33    34   ar
    10    20    21    3
    11    21    15    1
    12    24    23    1
    13    32    31    1
    14    23    22    3
    15    15    16   ar
    16    15    14   ar
    17    22    16    1
    18     4    14    1
    19     4     3   ar
    20    16    17   ar
    21    14    18   ar
    22    17    18   ar
    23    17    25    1
    24    18    19    1
    25    40    37    1
    26    29    25   ar
    27    29    28   ar
    28    37    36   ar
    29    25    26   ar
    30    13    10    1
    31    34    28    1
    32    34    35   ar
    33    28    27   ar
    34    26    27   ar
    35    26    30    1
    36     2     3   ar
    37     2     8    1
    38    27    31    1
    39     3     9    1
    40    36    35   ar
    41    36    42    1
    42    35    39    1
    43    43    42    1
    44    10     9    1
    45    10    12    1
    46    10    11    1
