@<TRIPOS>MOLECULE
mol_data/opt/m06hf/geoms/mol2/13al13al-13al13al-.out
 50 53 0 0 0
SMALL
GASTEIGER

@<TRIPOS>ATOM
      1 C          -6.9340   -0.9262    0.1324 C.ar    1  LIG1        0.0058
      2 C          -6.7227    0.4297    0.0185 C.ar    1  LIG1       -0.0019
      3 C          -5.3123    0.6059   -0.0326 C.ar    1  LIG1        0.1467
      4 C          -4.7144   -0.6345    0.0469 C.ar    1  LIG1        0.1052
      5 N          -5.7268   -1.5507    0.1495 N.ar    1  LIG1       -0.3566
      6 H          -5.5836   -2.5421    0.2477 H       1  LIG1        0.1655
      7 H          -7.8532   -1.4801    0.2039 H       1  LIG1        0.0808
      8 H          -7.4868    1.1865   -0.0225 H       1  LIG1        0.0669
      9 O          -4.5813    1.7572   -0.1397 O.3     1  LIG1       -0.4929
     10 C          -5.3392    2.9416   -0.3090 C.3     1  LIG1        0.0789
     11 H          -4.6233    3.7537   -0.4048 H       1  LIG1        0.0660
     12 H          -5.9492    2.8730   -1.2126 H       1  LIG1        0.0660
     13 H          -5.9779    3.1104    0.5613 H       1  LIG1        0.0660
     14 C          -3.2993   -0.9719    0.0347 C.ar    1  LIG1        0.0705
     15 C          -2.6386   -2.1904    0.0201 C.ar    1  LIG1        0.0076
     16 C          -1.2534   -1.8819    0.0143 C.ar    1  LIG1        0.1473
     17 C          -1.1082   -0.5078    0.0230 C.ar    1  LIG1        0.1057
     18 N          -2.3693    0.0181    0.0375 N.ar    1  LIG1       -0.3488
     19 H          -2.6212    0.9976    0.0300 H       1  LIG1        0.1661
     20 H          -3.0927   -3.1665    0.0051 H       1  LIG1        0.0676
     21 O          -0.1760   -2.7232    0.0015 O.3     1  LIG1       -0.4929
     22 C          -0.4777   -4.1017   -0.1099 C.3     1  LIG1        0.0789
     23 H           0.4758   -4.6223   -0.1434 H       1  LIG1        0.0660
     24 H          -1.0521   -4.4357    0.7575 H       1  LIG1        0.0660
     25 H          -1.0399   -4.2927   -1.0271 H       1  LIG1        0.0660
     26 C           0.1113    0.2825    0.0205 C.ar    1  LIG1        0.0706
     27 C           0.3197    1.6530    0.0403 C.ar    1  LIG1        0.0076
     28 C           1.7272    1.8325    0.0285 C.ar    1  LIG1        0.1473
     29 C           2.3300    0.5902    0.0042 C.ar    1  LIG1        0.1057
     30 N           1.3226   -0.3323   -0.0024 N.ar    1  LIG1       -0.3488
     31 H           1.4257   -1.3382   -0.0202 H       1  LIG1        0.1661
     32 H          -0.4424    2.4132    0.0626 H       1  LIG1        0.0676
     33 O           2.4531    2.9937    0.0367 O.3     1  LIG1       -0.4929
     34 C           1.6952    4.1782    0.1888 C.3     1  LIG1        0.0789
     35 H           2.4077    4.9990    0.2127 H       1  LIG1        0.0660
     36 H           1.0141    4.3044   -0.6565 H       1  LIG1        0.0660
     37 H           1.1288    4.1478    1.1225 H       1  LIG1        0.0660
     38 C           3.7456    0.2522   -0.0092 C.ar    1  LIG1        0.0701
     39 C           4.4001   -0.9636   -0.0082 C.ar    1  LIG1        0.0069
     40 C           5.7893   -0.6685   -0.0220 C.ar    1  LIG1        0.1379
     41 C           5.9416    0.7017   -0.0308 C.ar    1  LIG1        0.0444
     42 N           4.6803    1.2396   -0.0233 N.ar    1  LIG1       -0.3564
     43 H           4.4310    2.2182   -0.0231 H       1  LIG1        0.1655
     44 H           6.8194    1.3219   -0.0418 H       1  LIG1        0.0844
     45 H           3.9664   -1.9486    0.0038 H       1  LIG1        0.0676
     46 O           6.7498   -1.6334   -0.0242 O.3     1  LIG1       -0.4936
     47 C           8.0723   -1.1437   -0.0303 C.3     1  LIG1        0.0789
     48 H           8.7272   -2.0114   -0.0284 H       1  LIG1        0.0660
     49 H           8.2531   -0.5432   -0.9275 H       1  LIG1        0.0660
     50 H           8.2582   -0.5351    0.8602 H       1  LIG1        0.0660
@<TRIPOS>BOND
     1    12    10    1
     2    25    22    1
     3    49    47    1
     4    36    34    1
     5    11    10    1
     6    10     9    1
     7    10    13    1
     8    23    22    1
     9     9     3    1
    10    22    21    1
    11    22    24    1
    12    44    41    1
    13     3     2   ar
    14     3     4   ar
    15    41    42   ar
    16    41    40   ar
    17    47    48    1
    18    47    46    1
    19    47    50    1
    20    46    40    1
    21    42    43    1
    22    42    38   ar
    23     8     2    1
    24    40    39   ar
    25    31    30    1
    26    38    39   ar
    27    38    29    1
    28    39    45    1
    29    30    29   ar
    30    30    26   ar
    31    21    16    1
    32    29    28   ar
    33    20    15    1
    34    16    15   ar
    35    16    17   ar
    36     2     1   ar
    37    15    14   ar
    38    26    17    1
    39    26    27   ar
    40    17    18   ar
    41    28    33    1
    42    28    27   ar
    43    19    18    1
    44    14    18   ar
    45    14     4    1
    46    33    34    1
    47    27    32    1
    48     4     5   ar
    49     1     5   ar
    50     1     7    1
    51     5     6    1
    52    34    35    1
    53    34    37    1
