@<TRIPOS>MOLECULE
mol_data/opt/m06hf/geoms/mol2/13al13al13al-13al-.out
 50 53 0 0 0
SMALL
GASTEIGER

@<TRIPOS>ATOM
      1 C           1.2870   -0.0840   -0.8009 C.ar    1  LIG1        0.0058
      2 C           0.9611    1.0394   -0.0747 C.ar    1  LIG1       -0.0019
      3 C          -0.4377    0.9594    0.1857 C.ar    1  LIG1        0.1467
      4 C          -0.9133   -0.2030   -0.3814 C.ar    1  LIG1        0.1052
      5 N           0.1610   -0.8234   -0.9759 N.ar    1  LIG1       -0.3566
      6 H           0.0816   -1.6353   -1.5669 H       1  LIG1        0.1655
      7 H           2.2328   -0.3988   -1.2050 H       1  LIG1        0.0808
      8 H           1.6453    1.8111    0.2329 H       1  LIG1        0.0669
      9 O          -1.2351    1.8243    0.8658 O.3     1  LIG1       -0.4929
     10 C          -0.5706    2.9284    1.4465 C.3     1  LIG1        0.0789
     11 H          -1.3347    3.5123    1.9528 H       1  LIG1        0.0660
     12 H           0.1773    2.5908    2.1690 H       1  LIG1        0.0660
     13 H          -0.0900    3.5375    0.6763 H       1  LIG1        0.0660
     14 C          -2.2565   -0.7691   -0.3874 C.ar    1  LIG1        0.0705
     15 C          -3.4836   -0.1476   -0.5007 C.ar    1  LIG1        0.0076
     16 C          -4.4574   -1.1804   -0.4403 C.ar    1  LIG1        0.1473
     17 C          -3.8089   -2.3905   -0.3029 C.ar    1  LIG1        0.1057
     18 N          -2.4670   -2.1145   -0.2743 N.ar    1  LIG1       -0.3488
     19 H          -1.7560   -2.7835   -0.0253 H       1  LIG1        0.1661
     20 H          -3.6253    0.9125   -0.6192 H       1  LIG1        0.0676
     21 O          -5.8214   -1.0936   -0.5038 O.3     1  LIG1       -0.4929
     22 C          -6.3299    0.1908   -0.8201 C.3     1  LIG1        0.0789
     23 H          -7.4110    0.0902   -0.8702 H       1  LIG1        0.0660
     24 H          -6.0585    0.9070   -0.0413 H       1  LIG1        0.0660
     25 H          -5.9399    0.5240   -1.7844 H       1  LIG1        0.0660
     26 C          -4.3668   -3.7302   -0.2140 C.ar    1  LIG1        0.0706
     27 C          -3.7777   -4.9804   -0.1743 C.ar    1  LIG1        0.0076
     28 C          -4.8384   -5.9219   -0.1348 C.ar    1  LIG1        0.1473
     29 C          -6.0331   -5.2313   -0.1417 C.ar    1  LIG1        0.1057
     30 N          -5.7204   -3.8984   -0.1858 N.ar    1  LIG1       -0.3488
     31 H          -6.3606   -3.1262   -0.3210 H       1  LIG1        0.1661
     32 H          -2.7266   -5.2169   -0.1925 H       1  LIG1        0.0676
     33 O          -4.7016   -7.2810   -0.0922 O.3     1  LIG1       -0.4929
     34 C          -4.8953   -7.8273    1.2094 C.3     1  LIG1        0.0789
     35 H          -4.7256   -8.8985    1.1215 H       1  LIG1        0.0660
     36 H          -4.1790   -7.3897    1.9088 H       1  LIG1        0.0660
     37 H          -5.9143   -7.6368    1.5510 H       1  LIG1        0.0660
     38 C          -7.4015   -5.7351   -0.0932 C.ar    1  LIG1        0.0701
     39 C          -7.9304   -6.9008   -0.5996 C.ar    1  LIG1        0.0069
     40 C          -9.3083   -6.9058   -0.2478 C.ar    1  LIG1        0.1379
     41 C          -9.5809   -5.7535    0.4555 C.ar    1  LIG1        0.0444
     42 N          -8.4022   -5.0493    0.5347 N.ar    1  LIG1       -0.3564
     43 H          -8.2577   -4.2257    1.0950 H       1  LIG1        0.1655
     44 H         -10.4887   -5.3813    0.8934 H       1  LIG1        0.0844
     45 H          -7.4012   -7.6459   -1.1679 H       1  LIG1        0.0676
     46 O         -10.1560   -7.9081   -0.5988 O.3     1  LIG1       -0.4936
     47 C         -11.4913   -7.7308   -0.1791 C.3     1  LIG1        0.0789
     48 H         -12.0449   -8.5993   -0.5260 H       1  LIG1        0.0660
     49 H         -11.5444   -7.6672    0.9123 H       1  LIG1        0.0660
     50 H         -11.9122   -6.8214   -0.6191 H       1  LIG1        0.0660
@<TRIPOS>BOND
     1    25    22    1
     2     6     5    1
     3     7     1    1
     4    45    39    1
     5     5     1   ar
     6     5     4   ar
     7    23    22    1
     8    22    21    1
     9    22    24    1
    10     1     2   ar
    11    20    15    1
    12    50    47    1
    13    39    40   ar
    14    39    38   ar
    15    46    40    1
    16    46    47    1
    17    48    47    1
    18    21    16    1
    19    15    16   ar
    20    15    14   ar
    21    16    17   ar
    22    14     4    1
    23    14    18   ar
    24     4     3   ar
    25    31    30    1
    26    17    18   ar
    27    17    26    1
    28    18    19    1
    29    40    41   ar
    30    26    30   ar
    31    26    27   ar
    32    32    27    1
    33    30    29   ar
    34    47    49    1
    35    27    28   ar
    36    29    28   ar
    37    29    38    1
    38    28    33    1
    39    38    42   ar
    40    33    34    1
    41     2     3   ar
    42     2     8    1
    43     3     9    1
    44    41    42   ar
    45    41    44    1
    46    42    43    1
    47    13    10    1
    48     9    10    1
    49    35    34    1
    50    34    37    1
    51    34    36    1
    52    10    11    1
    53    10    12    1
