@<TRIPOS>MOLECULE
mol_data/opt/m06hf/geoms/mol2/13al4ei6eh13al.out
 54 57 0 0 0
SMALL
GASTEIGER

@<TRIPOS>ATOM
      1 C           1.4762   -0.2916    0.2448 C.ar    1  LIG1        0.0057
      2 C           1.0929    1.0209    0.4008 C.ar    1  LIG1       -0.0019
      3 C          -0.3308    1.0328    0.3403 C.ar    1  LIG1        0.1452
      4 C          -0.7636   -0.2603    0.1431 C.ar    1  LIG1        0.0899
      5 N           0.3586   -1.0527    0.1124 N.ar    1  LIG1       -0.3577
      6 H           0.3403   -2.0382   -0.0946 H       1  LIG1        0.1654
      7 H           2.4584   -0.7299    0.2141 H       1  LIG1        0.0808
      8 H           1.7503    1.8597    0.5520 H       1  LIG1        0.0669
      9 O          -1.1810    2.0782    0.5165 O.3     1  LIG1       -0.4930
     10 C          -0.7516    3.2988   -0.0584 C.3     1  LIG1        0.0789
     11 H          -1.6056    3.9713   -0.0223 H       1  LIG1        0.0660
     12 H           0.0748    3.7268    0.5151 H       1  LIG1        0.0660
     13 H          -0.4409    3.1413   -1.0935 H       1  LIG1        0.0660
     14 C          -3.1019   -0.2487   -0.7732 C.ar    1  LIG1        0.0345
     15 C          -4.3805   -0.8126   -0.8060 C.ar    1  LIG1       -0.0376
     16 C          -2.1228   -0.8164    0.0563 C.ar    1  LIG1        0.0175
     17 C          -4.6923   -1.9391   -0.0522 C.ar    1  LIG1       -0.0111
     18 H          -5.1312   -0.3734   -1.4506 H       1  LIG1        0.0636
     19 C          -2.4563   -1.9447    0.8128 C.ar    1  LIG1       -0.0478
     20 C          -3.7202   -2.5258    0.7732 C.ar    1  LIG1       -0.0420
     21 H          -1.7090   -2.3539    1.4834 H       1  LIG1        0.0627
     22 C          -2.8235    0.8730   -1.6393 C.1     1  LIG1       -0.0690
     23 C          -2.6554    1.7822   -2.4076 C.1     1  LIG1       -0.1139
     24 H          -2.5006    2.5863   -3.0888 H       1  LIG1        0.1232
     25 C          -4.0401   -3.7379    1.6270 C.3     1  LIG1       -0.0391
     26 H          -3.2523   -3.8964    2.3625 H       1  LIG1        0.0278
     27 H          -4.1238   -4.6259    0.9976 H       1  LIG1        0.0278
     28 H          -4.9884   -3.5968    2.1473 H       1  LIG1        0.0278
     29 C          -6.3954   -3.6942   -0.7288 C.ar    1  LIG1        0.1217
     30 C          -6.0854   -2.4759   -0.1097 C.ar    1  LIG1        0.0180
     31 C          -7.1387   -1.7416    0.4260 C.ar    1  LIG1       -0.0285
     32 C          -8.4448   -2.2238    0.3670 C.ar    1  LIG1        0.0530
     33 C          -8.6350   -3.4970   -0.2147 C.ar    1  LIG1        0.1092
     34 N          -7.6362   -4.1772   -0.7646 N.ar    1  LIG1       -0.2345
     35 H          -6.9349   -0.7802    0.8841 H       1  LIG1        0.0643
     36 C          -5.3625   -4.4768   -1.3781 C.1     1  LIG1       -0.0492
     37 C          -4.4961   -5.1119   -1.9159 C.1     1  LIG1       -0.1124
     38 H          -3.7334   -5.6743   -2.4024 H       1  LIG1        0.1232
     39 N          -9.5187   -1.5063    0.8701 N.pl3   1  LIG1       -0.3563
     40 H          -9.3308   -0.5292    1.0464 H       1  LIG1        0.1424
     41 H         -10.3868   -1.6597    0.3709 H       1  LIG1        0.1424
     42 C          -9.9581   -4.1388   -0.2999 C.ar    1  LIG1        0.0704
     43 C         -11.1572   -3.9728    0.3848 C.ar    1  LIG1        0.0070
     44 C         -12.0505   -4.9463   -0.1399 C.ar    1  LIG1        0.1379
     45 C         -11.3806   -5.6630   -1.1081 C.ar    1  LIG1        0.0444
     46 N         -10.1198   -5.1551   -1.1828 N.ar    1  LIG1       -0.3563
     47 H          -9.3510   -5.4845   -1.7496 H       1  LIG1        0.1655
     48 H         -11.7234   -6.4727   -1.7260 H       1  LIG1        0.0844
     49 H         -11.3301   -3.2991    1.2069 H       1  LIG1        0.0676
     50 O         -13.3459   -5.1879    0.1996 O.3     1  LIG1       -0.4936
     51 C         -13.8746   -4.3411    1.1984 C.3     1  LIG1        0.0789
     52 H         -14.9081   -4.6452    1.3434 H       1  LIG1        0.0660
     53 H         -13.3218   -4.4561    2.1350 H       1  LIG1        0.0660
     54 H         -13.8381   -3.2964    0.8768 H       1  LIG1        0.0660
@<TRIPOS>BOND
     1    24    23    1
     2    23    22    3
     3    38    37    1
     4    37    36    3
     5    47    46    1
     6    48    45    1
     7    22    14    1
     8    18    15    1
     9    36    29    1
    10    46    45   ar
    11    46    42   ar
    12    45    44   ar
    13    13    10    1
    14    15    14   ar
    15    15    17   ar
    16    14    16   ar
    17    34    29   ar
    18    34    33   ar
    19    29    30   ar
    20    42    33    1
    21    42    43   ar
    22    33    32   ar
    23    44    50    1
    24    44    43   ar
    25    30    17    1
    26    30    31   ar
    27     6     5    1
    28    10    11    1
    29    10    12    1
    30    10     9    1
    31    17    20   ar
    32    16     4    1
    33    16    19   ar
    34     5     4   ar
    35     5     1   ar
    36     4     3   ar
    37    50    51    1
    38     7     1    1
    39     1     2   ar
    40     3     2   ar
    41     3     9    1
    42    32    31   ar
    43    32    39    1
    44    41    39    1
    45    43    49    1
    46     2     8    1
    47    31    35    1
    48    20    19   ar
    49    20    25    1
    50    19    21    1
    51    39    40    1
    52    54    51    1
    53    27    25    1
    54    51    52    1
    55    51    53    1
    56    25    28    1
    57    25    26    1
