@<TRIPOS>MOLECULE
mol_data/opt/m06hf/geoms/mol2/13al13al-.out
 26 27 0 0 0
SMALL
GASTEIGER

@<TRIPOS>ATOM
      1 C           1.2840   -0.3689   -0.0000 C.ar    1  LIG1        0.0058
      2 C           0.9032    0.9547   -0.0002 C.ar    1  LIG1       -0.0019
      3 C          -0.5203    0.9549    0.0004 C.ar    1  LIG1        0.1467
      4 C          -0.9564   -0.3531    0.0004 C.ar    1  LIG1        0.1052
      5 N           0.1640   -1.1384   -0.0001 N.ar    1  LIG1       -0.3566
      6 H           0.1474   -2.1451   -0.0004 H       1  LIG1        0.1655
      7 H           2.2652   -0.8091   -0.0002 H       1  LIG1        0.0808
      8 H           1.5652    1.8036   -0.0005 H       1  LIG1        0.0669
      9 O          -1.3904    2.0113    0.0008 O.3     1  LIG1       -0.4929
     10 C          -0.7833    3.2902    0.0006 C.3     1  LIG1        0.0789
     11 H          -1.5930    4.0156    0.0009 H       1  LIG1        0.0660
     12 H          -0.1692    3.4179    0.8949 H       1  LIG1        0.0660
     13 H          -0.1699    3.4179   -0.8942 H       1  LIG1        0.0660
     14 C          -2.3165   -0.8750    0.0007 C.ar    1  LIG1        0.0701
     15 C          -2.8079   -2.1651    0.0006 C.ar    1  LIG1        0.0069
     16 C          -4.2235   -2.0534    0.0013 C.ar    1  LIG1        0.1379
     17 C          -4.5522   -0.7147    0.0015 C.ar    1  LIG1        0.0444
     18 N          -3.3715   -0.0174    0.0013 N.ar    1  LIG1       -0.3564
     19 H          -3.2522    0.9858    0.0014 H       1  LIG1        0.1655
     20 H          -5.5026   -0.2138    0.0019 H       1  LIG1        0.0844
     21 H          -2.2546   -3.0890    0.0002 H       1  LIG1        0.0676
     22 O          -5.0469   -3.1359    0.0015 O.3     1  LIG1       -0.4936
     23 C          -6.4239   -2.8302    0.0021 C.3     1  LIG1        0.0789
     24 H          -6.9543   -3.7790    0.0022 H       1  LIG1        0.0660
     25 H          -6.6871   -2.2565    0.8963 H       1  LIG1        0.0660
     26 H          -6.6878   -2.2563   -0.8918 H       1  LIG1        0.0660
@<TRIPOS>BOND
     1    13    10    1
     2    26    23    1
     3     8     2    1
     4     6     5    1
     5     2     1   ar
     6     2     3   ar
     7     7     1    1
     8     5     1   ar
     9     5     4   ar
    10    21    15    1
    11     4     3   ar
    12     4    14    1
    13     3     9    1
    14    15    14   ar
    15    15    16   ar
    16    10     9    1
    17    10    11    1
    18    10    12    1
    19    14    18   ar
    20    16    17   ar
    21    16    22    1
    22    18    19    1
    23    18    17   ar
    24    17    20    1
    25    22    23    1
    26    23    24    1
    27    23    25    1
