@<TRIPOS>MOLECULE
mol_data/opt/m06hf/geoms/mol2/13al13al.out
 26 27 0 0 0
SMALL
GASTEIGER

@<TRIPOS>ATOM
      1 C           1.3198   -0.3662   -0.0025 C.ar    1  LIG1        0.0058
      2 C           0.9157    0.9481   -0.0007 C.ar    1  LIG1       -0.0019
      3 C          -0.5088    0.9292    0.0006 C.ar    1  LIG1        0.1467
      4 C          -0.9279   -0.3854   -0.0001 C.ar    1  LIG1        0.1052
      5 N           0.2113   -1.1553   -0.0018 N.ar    1  LIG1       -0.3566
      6 H           0.2359   -2.1603   -0.0032 H       1  LIG1        0.1655
      7 H           2.3080   -0.7909   -0.0041 H       1  LIG1        0.0808
      8 H           1.5651    1.8066   -0.0005 H       1  LIG1        0.0669
      9 O          -1.3777    1.9771    0.0024 O.3     1  LIG1       -0.4929
     10 C          -0.7768    3.2563    0.0029 C.3     1  LIG1        0.0789
     11 H          -1.5897    3.9777    0.0045 H       1  LIG1        0.0660
     12 H          -0.1616    3.3899    0.8968 H       1  LIG1        0.0660
     13 H          -0.1635    3.3916   -0.8919 H       1  LIG1        0.0660
     14 C          -2.2890   -0.9102    0.0009 C.ar    1  LIG1        0.0701
     15 C          -3.4809   -0.2112    0.0006 C.ar    1  LIG1        0.0069
     16 C          -4.5210   -1.1842    0.0020 C.ar    1  LIG1        0.1379
     17 C          -3.9448   -2.4296    0.0030 C.ar    1  LIG1        0.0444
     18 N          -2.5844   -2.2428    0.0023 N.ar    1  LIG1       -0.3564
     19 H          -1.9202   -2.9964    0.0032 H       1  LIG1        0.1655
     20 H          -4.3969   -3.4040    0.0042 H       1  LIG1        0.0844
     21 H          -3.5546    0.8623   -0.0005 H       1  LIG1        0.0676
     22 O          -5.8691   -0.9915    0.0023 O.3     1  LIG1       -0.4936
     23 C          -6.2823    0.3595    0.0008 C.3     1  LIG1        0.0789
     24 H          -7.3697    0.3469    0.0013 H       1  LIG1        0.0660
     25 H          -5.9173    0.8754    0.8931 H       1  LIG1        0.0660
     26 H          -5.9180    0.8732   -0.8931 H       1  LIG1        0.0660
@<TRIPOS>BOND
     1    26    23    1
     2    13    10    1
     3     7     1    1
     4     6     5    1
     5     1     5   ar
     6     1     2   ar
     7     5     4   ar
     8     2     8    1
     9     2     3   ar
    10    21    15    1
    11     4     3   ar
    12     4    14    1
    13     3     9    1
    14    15    14   ar
    15    15    16   ar
    16    23    24    1
    17    23    22    1
    18    23    25    1
    19    14    18   ar
    20    16    22    1
    21    16    17   ar
    22    18    17   ar
    23    18    19    1
    24     9    10    1
    25    10    11    1
    26    10    12    1
    27    17    20    1
