@<TRIPOS>MOLECULE
mol_data/opt/m06hf/geoms/mol2/13al13al-13al-13al.out
 50 53 0 0 0
SMALL
GASTEIGER

@<TRIPOS>ATOM
      1 C           1.1744   -0.6823   -0.7034 C.ar    1  LIG1        0.0058
      2 C           0.8556    0.6404   -0.9185 C.ar    1  LIG1       -0.0019
      3 C          -0.5588    0.7283   -0.8011 C.ar    1  LIG1        0.1467
      4 C          -1.0525   -0.5288   -0.5210 C.ar    1  LIG1        0.1052
      5 N           0.0261   -1.3693   -0.4661 N.ar    1  LIG1       -0.3566
      6 H          -0.0361   -2.3569   -0.2831 H       1  LIG1        0.1655
      7 H           2.1317   -1.1729   -0.7013 H       1  LIG1        0.0808
      8 H           1.5533    1.4316   -1.1327 H       1  LIG1        0.0669
      9 O          -1.3780    1.8177   -0.9275 O.3     1  LIG1       -0.4929
     10 C          -0.7283    3.0251   -1.2840 C.3     1  LIG1        0.0789
     11 H          -1.5049    3.7813   -1.3625 H       1  LIG1        0.0660
     12 H          -0.0089    3.3086   -0.5123 H       1  LIG1        0.0660
     13 H          -0.2202    2.9123   -2.2446 H       1  LIG1        0.0660
     14 C          -2.4307   -0.9508   -0.3207 C.ar    1  LIG1        0.0705
     15 C          -2.9976   -2.1853   -0.0633 C.ar    1  LIG1        0.0076
     16 C          -4.4000   -1.9771   -0.0085 C.ar    1  LIG1        0.1473
     17 C          -4.6493   -0.6361   -0.2197 C.ar    1  LIG1        0.1057
     18 N          -3.4351   -0.0318   -0.4068 N.ar    1  LIG1       -0.3488
     19 H          -3.2665    0.9241   -0.6919 H       1  LIG1        0.1661
     20 H          -2.4937   -3.1294    0.0621 H       1  LIG1        0.0676
     21 O          -5.3510   -2.9314    0.2260 O.3     1  LIG1       -0.4929
     22 C          -5.7713   -2.9776    1.5872 C.3     1  LIG1        0.0789
     23 H          -6.4817   -3.7980    1.6649 H       1  LIG1        0.0660
     24 H          -4.9134   -3.1615    2.2380 H       1  LIG1        0.0660
     25 H          -6.2524   -2.0375    1.8642 H       1  LIG1        0.0660
     26 C          -5.9170    0.0803   -0.2417 C.ar    1  LIG1        0.0706
     27 C          -7.1698   -0.3606   -0.6236 C.ar    1  LIG1        0.0076
     28 C          -8.0477    0.7410   -0.4423 C.ar    1  LIG1        0.1473
     29 C          -7.3205    1.8114    0.0381 C.ar    1  LIG1        0.1057
     30 N          -6.0239    1.3833    0.1508 N.ar    1  LIG1       -0.3488
     31 H          -5.2835    1.9161    0.5776 H       1  LIG1        0.1661
     32 H          -7.3815   -1.3471   -0.9987 H       1  LIG1        0.0676
     33 O          -9.3907    0.8298   -0.6851 O.3     1  LIG1       -0.4929
     34 C          -9.9996   -0.3646   -1.1430 C.3     1  LIG1        0.0789
     35 H         -11.0568   -0.1440   -1.2648 H       1  LIG1        0.0660
     36 H          -9.5692   -0.6666   -2.1006 H       1  LIG1        0.0660
     37 H          -9.8663   -1.1618   -0.4079 H       1  LIG1        0.0660
     38 C          -7.7694    3.1538    0.3754 C.ar    1  LIG1        0.0701
     39 C          -7.0920    4.2581    0.8659 C.ar    1  LIG1        0.0069
     40 C          -8.0624    5.2925    0.9950 C.ar    1  LIG1        0.1379
     41 C          -9.2770    4.7940    0.5863 C.ar    1  LIG1        0.0444
     42 N          -9.0742    3.4938    0.2157 N.ar    1  LIG1       -0.3564
     43 H          -9.7616    2.8427   -0.1366 H       1  LIG1        0.1655
     44 H         -10.2381    5.2712    0.5373 H       1  LIG1        0.0844
     45 H          -6.0415    4.3129    1.0982 H       1  LIG1        0.0676
     46 O          -7.8914    6.5717    1.4349 O.3     1  LIG1       -0.4936
     47 C          -6.5626    6.9241    1.7511 C.3     1  LIG1        0.0789
     48 H          -6.5849    7.9676    2.0560 H       1  LIG1        0.0660
     49 H          -6.1847    6.3089    2.5727 H       1  LIG1        0.0660
     50 H          -5.9136    6.8088    0.8780 H       1  LIG1        0.0660
@<TRIPOS>BOND
     1    13    10    1
     2    36    34    1
     3    11    10    1
     4    10     9    1
     5    10    12    1
     6    35    34    1
     7    34    33    1
     8    34    37    1
     9     8     2    1
    10    32    27    1
    11     9     3    1
    12     2     3   ar
    13     2     1   ar
    14     3     4   ar
    15     1     7    1
    16     1     5   ar
    17    19    18    1
    18    33    28    1
    19    27    28   ar
    20    27    26   ar
    21     4     5   ar
    22     4    14    1
    23     5     6    1
    24    28    29   ar
    25    18    14   ar
    26    18    17   ar
    27    14    15   ar
    28    26    17    1
    29    26    30   ar
    30    17    16   ar
    31    43    42    1
    32    15    16   ar
    33    15    20    1
    34    16    21    1
    35    29    30   ar
    36    29    38    1
    37    30    31    1
    38    42    38   ar
    39    42    41   ar
    40    21    22    1
    41    38    39   ar
    42    44    41    1
    43    41    40   ar
    44    39    40   ar
    45    39    45    1
    46    50    47    1
    47    40    46    1
    48    46    47    1
    49    22    23    1
    50    22    25    1
    51    22    24    1
    52    47    48    1
    53    47    49    1
