@<TRIPOS>MOLECULE
mol_data/opt/m06hf/geoms/mol2/13al12la-6fe-4ff4dh-6af-4ei-13fe-.out
 98 105 0 0 0
SMALL
GASTEIGER

@<TRIPOS>ATOM
      1 C           1.1456    0.8964    0.5290 C.ar    1  LIG1        0.0058
      2 C           0.8640    1.4804   -0.6886 C.ar    1  LIG1       -0.0018
      3 C          -0.4886    1.1534   -0.9828 C.ar    1  LIG1        0.1484
      4 C          -0.9875    0.4004    0.0603 C.ar    1  LIG1        0.1279
      5 N           0.0357    0.2608    0.9694 N.ar    1  LIG1       -0.3552
      6 H          -0.0485   -0.2565    1.8299 H       1  LIG1        0.1655
      7 H           2.0575    0.8949    1.1005 H       1  LIG1        0.0808
      8 H           1.5494    2.0564   -1.2857 H       1  LIG1        0.0669
      9 O          -1.2410    1.5051   -2.0567 O.3     1  LIG1       -0.4929
     10 C          -0.5359    2.1174   -3.1221 C.3     1  LIG1        0.0789
     11 H          -1.2600    2.2684   -3.9178 H       1  LIG1        0.0660
     12 H          -0.1251    3.0800   -2.8070 H       1  LIG1        0.0660
     13 H           0.2701    1.4667   -3.4687 H       1  LIG1        0.0660
     14 C          -2.2864   -0.2368    0.2497 C.ar    1  LIG1        0.1967
     15 C          -3.5767    0.1810    0.4076 C.ar    1  LIG1        0.1678
     16 C          -4.4001   -0.9954    0.5110 C.ar    1  LIG1        0.0269
     17 C          -3.5546   -2.0511    0.4337 C.ar    1  LIG1        0.1445
     18 O          -2.2827   -1.6157    0.2747 O.2     1  LIG1       -0.4493
     19 O          -4.1151    1.4076    0.4774 O.3     1  LIG1       -0.4912
     20 C          -3.2250    2.5161    0.3962 C.3     1  LIG1        0.0790
     21 H          -3.8499    3.3986    0.5026 H       1  LIG1        0.0660
     22 H          -2.4943    2.4714    1.2068 H       1  LIG1        0.0660
     23 H          -2.7153    2.5164   -0.5688 H       1  LIG1        0.0660
     24 H          -5.4722   -1.0089    0.6063 H       1  LIG1        0.0692
     25 C          -2.9097   -4.4258   -0.1537 C.ar    1  LIG1        0.2239
     26 C          -3.7721   -3.5028    0.4893 C.ar    1  LIG1        0.0799
     27 C          -4.8569   -4.0266    1.1711 C.ar    1  LIG1       -0.0285
     28 C          -5.0980   -5.4022    1.1686 C.ar    1  LIG1        0.0516
     29 C          -4.2205   -6.2226    0.4398 C.ar    1  LIG1        0.0938
     30 N          -3.1477   -5.7232   -0.1705 N.ar    1  LIG1       -0.2111
     31 H          -5.5127   -3.3723    1.7309 H       1  LIG1        0.0639
     32 O          -1.7989   -4.0457   -0.7907 O.3     1  LIG1       -0.4919
     33 H          -1.6440   -3.0956   -0.6891 H       1  LIG1        0.2938
     34 C          -6.1726   -5.9382    1.9625 C.1     1  LIG1       -0.0675
     35 C          -7.0709   -6.3840    2.6287 C.1     1  LIG1       -0.1138
     36 H          -7.8470   -6.7905    3.2366 H       1  LIG1        0.1232
     37 C          -5.5851   -8.3352    0.0459 C.ar    1  LIG1        0.1268
     38 C          -5.6261   -9.7249   -0.0327 C.ar    1  LIG1       -0.0083
     39 C          -4.3755   -7.7043    0.3520 C.ar    1  LIG1        0.0465
     40 C          -4.4932  -10.5046    0.1743 C.ar    1  LIG1        0.0283
     41 H          -6.5758  -10.1843   -0.2748 H       1  LIG1        0.0661
     42 C          -3.2268   -8.4795    0.5260 C.ar    1  LIG1       -0.0069
     43 C          -3.2753   -9.8624    0.4415 C.ar    1  LIG1        0.1254
     44 H          -2.2878   -7.9715    0.7144 H       1  LIG1        0.0662
     45 O          -6.7235   -7.6456   -0.2745 O.3     1  LIG1       -0.5061
     46 H          -7.0421   -7.1617    0.5016 H       1  LIG1        0.2922
     47 O          -2.1628  -10.6344    0.6122 O.3     1  LIG1       -0.5061
     48 H          -1.4179  -10.0851    0.8776 H       1  LIG1        0.2922
     49 C          -5.5546  -12.6959    0.8325 C.ar    1  LIG1        0.0603
     50 C          -5.6329  -14.0845    0.7329 C.ar    1  LIG1       -0.0342
     51 C          -4.5786  -11.9922    0.1076 C.ar    1  LIG1        0.0048
     52 C          -4.7603  -14.8019   -0.0749 C.ar    1  LIG1        0.0056
     53 H          -6.3760  -14.6164    1.3136 H       1  LIG1        0.0637
     54 C          -3.7050  -12.7082   -0.6977 C.ar    1  LIG1       -0.0314
     55 C          -3.7794  -14.1034   -0.8115 C.ar    1  LIG1        0.0331
     56 H          -2.9475  -12.1698   -1.2526 H       1  LIG1        0.0643
     57 N          -7.2268  -11.5073    2.4219 N.1     1  LIG1       -0.1908
     58 C          -6.4756  -12.0163    1.7177 C.1     1  LIG1        0.0998
     59 N          -2.8887  -14.7752   -1.6216 N.pl3   1  LIG1       -0.3575
     60 H          -3.1639  -15.6918   -1.9445 H       1  LIG1        0.1423
     61 H          -2.3894  -14.2200   -2.2994 H       1  LIG1        0.1423
     62 C          -3.7775  -17.1202    0.0668 C.ar    1  LIG1        0.0363
     63 C          -4.8795  -16.2853   -0.1602 C.ar    1  LIG1        0.0055
     64 C          -6.0980  -16.8961   -0.4292 C.ar    1  LIG1       -0.0088
     65 C          -6.1878  -18.2856   -0.4720 C.ar    1  LIG1        0.1433
     66 C          -5.0208  -19.0373   -0.2512 C.ar    1  LIG1        0.1134
     67 N          -3.8568  -18.4419    0.0224 N.ar    1  LIG1       -0.2507
     68 H          -6.9949  -16.3178   -0.6113 H       1  LIG1        0.0661
     69 H          -2.8093  -16.6947    0.3037 H       1  LIG1        0.0836
     70 O          -7.4199  -18.8131   -0.6621 O.3     1  LIG1       -0.5046
     71 H          -7.3781  -19.6407   -1.1584 H       1  LIG1        0.2922
     72 C          -5.5229  -21.3738   -1.1852 C.ar    1  LIG1        0.0346
     73 C          -5.4235  -22.7598   -1.0546 C.ar    1  LIG1       -0.0362
     74 C          -4.9924  -20.5327   -0.1961 C.ar    1  LIG1        0.0196
     75 C          -4.8012  -23.3340    0.0529 C.ar    1  LIG1        0.0060
     76 H          -5.8342  -23.3977   -1.8255 H       1  LIG1        0.0637
     77 C          -4.3656  -21.1230    0.9004 C.ar    1  LIG1       -0.0477
     78 C          -4.2702  -22.5028    1.0570 C.ar    1  LIG1       -0.0405
     79 H          -3.9505  -20.4676    1.6561 H       1  LIG1        0.0627
     80 C          -6.1493  -20.8362   -2.3719 C.1     1  LIG1       -0.0690
     81 C          -6.6998  -20.3796   -3.3399 C.1     1  LIG1       -0.1139
     82 H          -7.1741  -19.9747   -4.2042 H       1  LIG1        0.1232
     83 C          -3.6311  -23.0578    2.3188 C.3     1  LIG1       -0.0391
     84 H          -3.6888  -22.3148    3.1129 H       1  LIG1        0.0278
     85 H          -2.5722  -23.2845    2.1603 H       1  LIG1        0.0278
     86 H          -4.1435  -23.9636    2.6439 H       1  LIG1        0.0278
     87 C          -4.7514  -24.8058    0.1168 C.ar    1  LIG1        0.0900
     88 C          -5.6931  -25.7267   -0.2795 C.ar    1  LIG1        0.1574
     89 C          -5.1669  -27.0326   -0.0532 C.ar    1  LIG1        0.0839
     90 C          -3.9003  -26.8616    0.4723 C.ar    1  LIG1        0.0213
     91 N          -3.6685  -25.5349    0.5702 N.ar    1  LIG1       -0.3566
     92 H          -2.7988  -25.1217    0.8645 H       1  LIG1        0.1655
     93 H          -3.1736  -27.5967    0.7690 H       1  LIG1        0.0820
     94 O          -6.9121  -25.4335   -0.7965 O.3     1  LIG1       -0.5035
     95 H          -7.3997  -26.2573   -0.9234 H       1  LIG1        0.2923
     96 C          -5.8776  -28.2415   -0.3329 C.1     1  LIG1       -0.0645
     97 C          -6.5292  -29.2202   -0.5902 C.1     1  LIG1       -0.1137
     98 H          -7.0911  -30.0980   -0.8108 H       1  LIG1        0.1232
@<TRIPOS>BOND
     1    82    81    1
     2    11    10    1
     3    13    10    1
     4    81    80    3
     5    10    12    1
     6    10     9    1
     7    80    72    1
     8    61    59    1
     9     9     3    1
    10    60    59    1
    11    76    73    1
    12    59    55    1
    13     8     2    1
    14    56    54    1
    15    72    73   ar
    16    72    74   ar
    17    71    70    1
    18    73    75   ar
    19     3     2   ar
    20     3     4   ar
    21    95    94    1
    22    55    54   ar
    23    55    52   ar
    24    98    97    1
    25    94    88    1
    26    32    33    1
    27    32    25    1
    28    54    51   ar
    29     2     1   ar
    30    70    65    1
    31    68    64    1
    32    97    96    3
    33    23    20    1
    34    65    64   ar
    35    65    66   ar
    36    64    63   ar
    37    96    89    1
    38    88    89   ar
    39    88    87   ar
    40    41    38    1
    41    45    37    1
    42    45    46    1
    43    66    74    1
    44    66    67   ar
    45    74    77   ar
    46    30    25   ar
    47    30    29   ar
    48    63    52    1
    49    63    62   ar
    50    25    26   ar
    51    52    50   ar
    52    89    90   ar
    53    38    37   ar
    54    38    40   ar
    55    67    62   ar
    56    37    39   ar
    57    75    87    1
    58    75    78   ar
    59     4    14    1
    60     4     5   ar
    61    62    69    1
    62    51    40    1
    63    51    49   ar
    64    87    91   ar
    65    40    43   ar
    66    14    18   ar
    67    14    15   ar
    68    18    17   ar
    69    39    29    1
    70    39    42   ar
    71    20    19    1
    72    20    21    1
    73    20    22    1
    74    15    19    1
    75    15    16   ar
    76    17    26    1
    77    17    16   ar
    78    29    28   ar
    79    43    42   ar
    80    43    47    1
    81    90    91   ar
    82    90    93    1
    83    26    27   ar
    84    16    24    1
    85    42    44    1
    86     1     5   ar
    87     1     7    1
    88    91    92    1
    89    47    48    1
    90    50    49   ar
    91    50    53    1
    92    49    58    1
    93    77    78   ar
    94    77    79    1
    95     5     6    1
    96    78    83    1
    97    28    27   ar
    98    28    34    1
    99    27    31    1
   100    58    57    3
   101    34    35    3
   102    85    83    1
   103    83    86    1
   104    83    84    1
   105    35    36    1
