@<TRIPOS>MOLECULE
mol_data/opt/m06hf/geoms/mol2/13al13al13al13al-.out
 50 53 0 0 0
SMALL
GASTEIGER

@<TRIPOS>ATOM
      1 C           0.8578    0.4788   -1.8062 C.ar    1  LIG1        0.0058
      2 C           0.8166    1.3262   -0.7220 C.ar    1  LIG1       -0.0019
      3 C          -0.4128    1.0613   -0.0507 C.ar    1  LIG1        0.1467
      4 C          -1.0729    0.0676   -0.7396 C.ar    1  LIG1        0.1052
      5 N          -0.2734   -0.2737   -1.8066 N.ar    1  LIG1       -0.3566
      6 H          -0.5630   -0.8875   -2.5508 H       1  LIG1        0.1655
      7 H           1.6049    0.3677   -2.5722 H       1  LIG1        0.0808
      8 H           1.5771    2.0373   -0.4486 H       1  LIG1        0.0669
      9 O          -0.9186    1.6320    1.0737 O.3     1  LIG1       -0.4929
     10 C          -0.0863    2.5929    1.6922 C.3     1  LIG1        0.0789
     11 H          -0.6176    2.9316    2.5776 H       1  LIG1        0.0660
     12 H           0.8680    2.1456    1.9821 H       1  LIG1        0.0660
     13 H           0.0910    3.4382    1.0213 H       1  LIG1        0.0660
     14 C          -2.3565   -0.5711   -0.4683 C.ar    1  LIG1        0.0705
     15 C          -3.5507   -0.0175   -0.0524 C.ar    1  LIG1        0.0076
     16 C          -4.4810   -1.0883    0.0461 C.ar    1  LIG1        0.1473
     17 C          -3.8375   -2.2565   -0.3092 C.ar    1  LIG1        0.1057
     18 N          -2.5424   -1.9138   -0.6209 N.ar    1  LIG1       -0.3488
     19 H          -1.8291   -2.5655   -0.9053 H       1  LIG1        0.1661
     20 H          -3.7002    1.0285    0.1506 H       1  LIG1        0.0676
     21 O          -5.7891   -1.0567    0.4115 O.3     1  LIG1       -0.4929
     22 C          -6.2598    0.2013    0.8535 C.3     1  LIG1        0.0789
     23 H          -7.2977    0.0540    1.1408 H       1  LIG1        0.0660
     24 H          -5.6808    0.5462    1.7139 H       1  LIG1        0.0660
     25 H          -6.2000    0.9396    0.0494 H       1  LIG1        0.0660
     26 C          -4.3359   -3.6243   -0.3571 C.ar    1  LIG1        0.0706
     27 C          -5.5798   -4.0997   -0.7200 C.ar    1  LIG1        0.0076
     28 C          -5.5251   -5.5113   -0.5666 C.ar    1  LIG1        0.1473
     29 C          -4.2644   -5.8584   -0.1289 C.ar    1  LIG1        0.1057
     30 N          -3.5554   -4.6917   -0.0101 N.ar    1  LIG1       -0.3488
     31 H          -2.6640   -4.6219    0.4540 H       1  LIG1        0.1661
     32 H          -6.3970   -3.4847   -1.0539 H       1  LIG1        0.0676
     33 O          -6.4966   -6.4471   -0.7928 O.3     1  LIG1       -0.4929
     34 C          -7.7283   -5.9346   -1.2690 C.3     1  LIG1        0.0789
     35 H          -8.3879   -6.7887   -1.3978 H       1  LIG1        0.0660
     36 H          -8.1550   -5.2398   -0.5424 H       1  LIG1        0.0660
     37 H          -7.5827   -5.4284   -2.2260 H       1  LIG1        0.0660
     38 C          -3.7205   -7.1736    0.1755 C.ar    1  LIG1        0.0701
     39 C          -2.4522   -7.5838    0.5369 C.ar    1  LIG1        0.0069
     40 C          -2.5223   -8.9912    0.7122 C.ar    1  LIG1        0.1379
     41 C          -3.8142   -9.3961    0.4526 C.ar    1  LIG1        0.0444
     42 N          -4.5246   -8.2687    0.1291 N.ar    1  LIG1       -0.3564
     43 H          -5.4990   -8.2140   -0.1314 H       1  LIG1        0.1655
     44 H          -4.2751  -10.3666    0.4705 H       1  LIG1        0.0844
     45 H          -1.5683   -6.9812    0.6596 H       1  LIG1        0.0676
     46 O          -1.4484   -9.7432    1.0753 O.3     1  LIG1       -0.4936
     47 C          -1.7178  -11.1200    1.2229 C.3     1  LIG1        0.0789
     48 H          -0.7838  -11.5915    1.5179 H       1  LIG1        0.0660
     49 H          -2.4754  -11.2800    1.9962 H       1  LIG1        0.0660
     50 H          -2.0661  -11.5449    0.2765 H       1  LIG1        0.0660
@<TRIPOS>BOND
     1     7     1    1
     2     6     5    1
     3    37    34    1
     4     5     1   ar
     5     5     4   ar
     6     1     2   ar
     7    35    34    1
     8    34    33    1
     9    34    36    1
    10    32    27    1
    11    19    18    1
    12    33    28    1
    13     4    14    1
    14     4     3   ar
    15     2     8    1
    16     2     3   ar
    17    27    28   ar
    18    27    26   ar
    19    18    14   ar
    20    18    17   ar
    21    28    29   ar
    22    14    15   ar
    23    26    17    1
    24    26    30   ar
    25    17    16   ar
    26    43    42    1
    27    29    30   ar
    28    29    38    1
    29    15    16   ar
    30    15    20    1
    31     3     9    1
    32    30    31    1
    33    16    21    1
    34    25    22    1
    35    42    38   ar
    36    42    41   ar
    37    38    39   ar
    38    50    47    1
    39    21    22    1
    40    41    44    1
    41    41    40   ar
    42    39    45    1
    43    39    40   ar
    44    40    46    1
    45    22    23    1
    46    22    24    1
    47    13    10    1
    48     9    10    1
    49    46    47    1
    50    47    48    1
    51    47    49    1
    52    10    12    1
    53    10    11    1
