@<TRIPOS>MOLECULE
mol_data/opt/m06hf/geoms/mol2/13al6ee-13ha12ee.out
 48 51 0 0 0
SMALL
GASTEIGER

@<TRIPOS>ATOM
      1 C           1.3841   -0.2739    0.0951 C.ar    1  LIG1        0.0057
      2 C           0.9724    1.0430    0.0813 C.ar    1  LIG1       -0.0019
      3 C          -0.4444    1.0108    0.0450 C.ar    1  LIG1        0.1453
      4 C          -0.8565   -0.3169    0.0393 C.ar    1  LIG1        0.0914
      5 N           0.2936   -1.0688    0.0695 N.ar    1  LIG1       -0.3577
      6 H           0.2957   -2.0778    0.0871 H       1  LIG1        0.1654
      7 H           2.3767   -0.6878    0.1227 H       1  LIG1        0.0808
      8 H           1.6133    1.9071    0.0972 H       1  LIG1        0.0669
      9 O          -1.3063    2.0623    0.0226 O.3     1  LIG1       -0.4930
     10 C          -0.7096    3.3453    0.0721 C.3     1  LIG1        0.0789
     11 H          -1.5277    4.0603    0.0588 H       1  LIG1        0.0660
     12 H          -0.1300    3.4585    0.9910 H       1  LIG1        0.0660
     13 H          -0.0655    3.4990   -0.7969 H       1  LIG1        0.0660
     14 C          -2.5543   -2.2172    0.2063 C.ar    1  LIG1        0.1231
     15 C          -2.2144   -0.8660   -0.0045 C.ar    1  LIG1        0.0369
     16 C          -3.2882   -0.0236   -0.3172 C.ar    1  LIG1       -0.0323
     17 C          -4.5918   -0.5045   -0.3582 C.ar    1  LIG1        0.0528
     18 C          -4.8302   -1.8566   -0.0302 C.ar    1  LIG1        0.1056
     19 N          -3.8035   -2.6740    0.1984 N.ar    1  LIG1       -0.2350
     20 H          -3.0967    1.0123   -0.5567 H       1  LIG1        0.0638
     21 C          -1.5621   -3.2486    0.4679 C.1     1  LIG1       -0.0491
     22 C          -0.7787   -4.1357    0.6831 C.1     1  LIG1       -0.1124
     23 H          -0.1093   -4.9394    0.8906 H       1  LIG1        0.1232
     24 C          -5.6234    0.3693   -0.8558 C.1     1  LIG1       -0.0674
     25 C          -6.4415    1.1235   -1.3146 C.1     1  LIG1       -0.1138
     26 H          -7.1615    1.7830   -1.7427 H       1  LIG1        0.1232
     27 C          -6.1464   -2.4966    0.0373 C.ar    1  LIG1        0.0876
     28 C          -7.4242   -2.0931    0.4320 C.ar    1  LIG1        0.0524
     29 C          -8.2530   -3.2423    0.3823 C.ar    1  LIG1       -0.0120
     30 C          -7.4571   -4.3036   -0.0131 C.ar    1  LIG1        0.0856
     31 N          -6.2029   -3.8436   -0.2123 N.ar    1  LIG1       -0.3490
     32 H          -5.3847   -4.3917   -0.4380 H       1  LIG1        0.1661
     33 N          -7.8212   -0.8522    0.9345 N.pl3   1  LIG1       -0.3563
     34 H          -7.4186   -0.0567    0.4579 H       1  LIG1        0.1424
     35 H          -8.8263   -0.7713    1.0087 H       1  LIG1        0.1424
     36 H          -9.3005   -3.2972    0.6258 H       1  LIG1        0.0658
     37 C          -7.7809   -5.7021   -0.2214 C.ar    1  LIG1        0.1674
     38 C          -8.9358   -6.4221   -0.1121 C.ar    1  LIG1        0.0872
     39 C          -8.5810   -7.7874   -0.4531 C.ar    1  LIG1        0.0784
     40 C          -7.2551   -7.7651   -0.7354 C.ar    1  LIG1        0.1092
     41 O          -6.7694   -6.5149   -0.5983 O.2     1  LIG1       -0.4589
     42 H          -6.5642   -8.5322   -1.0361 H       1  LIG1        0.1042
     43 C         -10.2272   -5.9388    0.2573 C.1     1  LIG1       -0.0646
     44 C         -11.3176   -5.5395    0.5659 C.1     1  LIG1       -0.1138
     45 H         -12.2872   -5.1940    0.8397 H       1  LIG1        0.1232
     46 C          -9.4542   -8.9209   -0.4852 C.1     1  LIG1       -0.0653
     47 C         -10.1918   -9.8677   -0.5106 C.1     1  LIG1       -0.1138
     48 H         -10.8484  -10.7065   -0.5320 H       1  LIG1        0.1232
@<TRIPOS>BOND
     1    26    25    1
     2    25    24    3
     3    42    40    1
     4    24    17    1
     5    13    10    1
     6    40    41   ar
     7    40    39   ar
     8    41    37   ar
     9    20    16    1
    10    48    47    1
    11    47    46    3
    12    46    39    1
    13    39    38   ar
    14    32    31    1
    15    17    16   ar
    16    17    18   ar
    17    16    15   ar
    18    37    38   ar
    19    37    30    1
    20    31    30   ar
    21    31    27   ar
    22    38    43    1
    23    18    27    1
    24    18    19   ar
    25    30    29   ar
    26    15     4    1
    27    15    14   ar
    28     9     3    1
    29     9    10    1
    30    27    28   ar
    31     4     3   ar
    32     4     5   ar
    33     3     2   ar
    34    11    10    1
    35     5     6    1
    36     5     1   ar
    37    10    12    1
    38     2     1   ar
    39     2     8    1
    40     1     7    1
    41    19    14   ar
    42    14    21    1
    43    43    44    3
    44    29    28   ar
    45    29    36    1
    46    28    33    1
    47    34    33    1
    48    21    22    3
    49    44    45    1
    50    22    23    1
    51    33    35    1
