@<TRIPOS>MOLECULE
mol_data/opt/m06hf/geoms/mol2/13al13al13al-13al.out
 50 53 0 0 0
SMALL
GASTEIGER

@<TRIPOS>ATOM
      1 C           1.3244   -0.1815   -0.6787 C.ar    1  LIG1        0.0058
      2 C           1.0009    1.0039   -0.0579 C.ar    1  LIG1       -0.0019
      3 C          -0.4033    0.9634    0.1823 C.ar    1  LIG1        0.1467
      4 C          -0.8845   -0.2384   -0.2908 C.ar    1  LIG1        0.1052
      5 N           0.1913   -0.9196   -0.8111 N.ar    1  LIG1       -0.3566
      6 H           0.1125   -1.7792   -1.3304 H       1  LIG1        0.1655
      7 H           2.2727   -0.5415   -1.0365 H       1  LIG1        0.0808
      8 H           1.6902    1.7904    0.1955 H       1  LIG1        0.0669
      9 O          -1.2012    1.8948    0.7679 O.3     1  LIG1       -0.4929
     10 C          -0.5235    3.0008    1.3302 C.3     1  LIG1        0.0789
     11 H          -1.2869    3.6285    1.7823 H       1  LIG1        0.0660
     12 H           0.1852    2.6689    2.0937 H       1  LIG1        0.0660
     13 H           0.0053    3.5628    0.5558 H       1  LIG1        0.0660
     14 C          -2.2351   -0.7854   -0.2708 C.ar    1  LIG1        0.0705
     15 C          -3.4515   -0.1537   -0.4314 C.ar    1  LIG1        0.0076
     16 C          -4.4423   -1.1646   -0.3074 C.ar    1  LIG1        0.1473
     17 C          -3.8142   -2.3727   -0.0845 C.ar    1  LIG1        0.1057
     18 N          -2.4673   -2.1175   -0.0719 N.ar    1  LIG1       -0.3488
     19 H          -1.7687   -2.7767    0.2314 H       1  LIG1        0.1661
     20 H          -3.5772    0.8984   -0.6182 H       1  LIG1        0.0676
     21 O          -5.8030   -1.0605   -0.3877 O.3     1  LIG1       -0.4929
     22 C          -6.3019    0.2618   -0.4963 C.3     1  LIG1        0.0789
     23 H          -7.3857    0.1814   -0.5002 H       1  LIG1        0.0660
     24 H          -5.9727    0.8601    0.3560 H       1  LIG1        0.0660
     25 H          -5.9596    0.7192   -1.4273 H       1  LIG1        0.0660
     26 C          -4.3968   -3.6894    0.1142 C.ar    1  LIG1        0.0706
     27 C          -3.8271   -4.9294    0.3412 C.ar    1  LIG1        0.0076
     28 C          -4.9076   -5.8367    0.4814 C.ar    1  LIG1        0.1473
     29 C          -6.0900   -5.1412    0.3285 C.ar    1  LIG1        0.1057
     30 N          -5.7539   -3.8379    0.1118 N.ar    1  LIG1       -0.3488
     31 H          -6.3861   -3.0563   -0.0028 H       1  LIG1        0.1661
     32 H          -2.7791   -5.1700    0.4125 H       1  LIG1        0.0676
     33 O          -4.8331   -7.1903    0.7141 O.3     1  LIG1       -0.4929
     34 C          -4.6966   -7.9463   -0.4893 C.3     1  LIG1        0.0789
     35 H          -4.6366   -8.9921   -0.1951 H       1  LIG1        0.0660
     36 H          -5.5623   -7.7803   -1.1339 H       1  LIG1        0.0660
     37 H          -3.7854   -7.6513   -1.0127 H       1  LIG1        0.0660
     38 C          -7.4540   -5.6495    0.3853 C.ar    1  LIG1        0.0701
     39 C          -8.6634   -5.1134   -0.0200 C.ar    1  LIG1        0.0069
     40 C          -9.6517   -6.0923    0.2865 C.ar    1  LIG1        0.1379
     41 C          -9.0225   -7.1750    0.8550 C.ar    1  LIG1        0.0444
     42 N          -7.6878   -6.8834    0.9052 N.ar    1  LIG1       -0.3564
     43 H          -6.9443   -7.4570    1.2792 H       1  LIG1        0.1655
     44 H          -9.4326   -8.1009    1.2135 H       1  LIG1        0.0844
     45 H          -8.8066   -4.1567   -0.4933 H       1  LIG1        0.0676
     46 O         -10.9965   -6.0428    0.0725 O.3     1  LIG1       -0.4936
     47 C         -11.4653   -4.8690   -0.5551 C.3     1  LIG1        0.0789
     48 H         -12.5405   -4.9894   -0.6654 H       1  LIG1        0.0660
     49 H         -11.2532   -3.9899    0.0603 H       1  LIG1        0.0660
     50 H         -11.0045   -4.7469   -1.5394 H       1  LIG1        0.0660
@<TRIPOS>BOND
     1    50    47    1
     2    25    22    1
     3     6     5    1
     4    36    34    1
     5     7     1    1
     6    37    34    1
     7     5     1   ar
     8     5     4   ar
     9     1     2   ar
    10    48    47    1
    11    20    15    1
    12    47    49    1
    13    47    46    1
    14    23    22    1
    15    22    21    1
    16    22    24    1
    17    45    39    1
    18    34    35    1
    19    34    33    1
    20    15    16   ar
    21    15    14   ar
    22    21    16    1
    23    16    17   ar
    24     4    14    1
    25     4     3   ar
    26    14    18   ar
    27    17    18   ar
    28    17    26    1
    29    18    19    1
    30     2     3   ar
    31     2     8    1
    32    39    40   ar
    33    39    38   ar
    34    31    30    1
    35    46    40    1
    36    30    26   ar
    37    30    29   ar
    38    26    27   ar
    39     3     9    1
    40    40    41   ar
    41    29    38    1
    42    29    28   ar
    43    27    32    1
    44    27    28   ar
    45    38    42   ar
    46    28    33    1
    47    13    10    1
    48     9    10    1
    49    41    42   ar
    50    41    44    1
    51    42    43    1
    52    10    11    1
    53    10    12    1
