@<TRIPOS>MOLECULE
mol_data/opt/m06hf/geoms/mol2/13al13hi-12hh-13li-.out
 53 56 0 0 0
SMALL
GASTEIGER

@<TRIPOS>ATOM
      1 C           1.3865    0.3767   -0.1057 C.ar    1  LIG1        0.0058
      2 C           0.8334    1.5856   -0.4626 C.ar    1  LIG1       -0.0019
      3 C          -0.5792    1.4084   -0.4113 C.ar    1  LIG1        0.1467
      4 C          -0.8424    0.1113   -0.0285 C.ar    1  LIG1        0.1069
      5 N           0.3767   -0.4965    0.1524 N.ar    1  LIG1       -0.3565
      6 H           0.4842   -1.4208    0.5371 H       1  LIG1        0.1655
      7 H           2.4182    0.0856   -0.0140 H       1  LIG1        0.0808
      8 H           1.3794    2.4725   -0.7347 H       1  LIG1        0.0669
      9 O          -1.5718    2.3101   -0.6711 O.3     1  LIG1       -0.4929
     10 C          -1.1444    3.5324   -1.2427 C.3     1  LIG1        0.0789
     11 H          -2.0440    4.1098   -1.4398 H       1  LIG1        0.0660
     12 H          -0.5000    4.0766   -0.5476 H       1  LIG1        0.0660
     13 H          -0.6089    3.3462   -2.1765 H       1  LIG1        0.0660
     14 C          -2.1106   -0.5729    0.1822 C.ar    1  LIG1        0.0882
     15 C          -3.2744   -0.1195    0.7672 C.ar    1  LIG1        0.0554
     16 C          -4.2041   -1.2034    0.7789 C.ar    1  LIG1       -0.0008
     17 C          -3.5684   -2.2759    0.1810 C.ar    1  LIG1        0.0892
     18 N          -2.3045   -1.8930   -0.1637 N.ar    1  LIG1       -0.3488
     19 H          -1.6964   -2.4299   -0.7608 H       1  LIG1        0.1661
     20 N          -3.4818    1.1396    1.3509 N.pl3   1  LIG1       -0.3561
     21 H          -2.9272    1.8579    0.8941 H       1  LIG1        0.1424
     22 H          -4.4610    1.3990    1.3446 H       1  LIG1        0.1424
     23 C          -5.5598   -1.1854    1.4392 C.3     1  LIG1       -0.0358
     24 H          -5.9710   -2.1946    1.4874 H       1  LIG1        0.0279
     25 H          -6.2676   -0.5503    0.8977 H       1  LIG1        0.0279
     26 H          -5.4665   -0.7952    2.4548 H       1  LIG1        0.0279
     27 C          -4.0777   -3.6068   -0.1150 C.ar    1  LIG1        0.1745
     28 C          -5.2662   -4.0017   -0.6443 C.ar    1  LIG1        0.0941
     29 C          -5.2407   -5.4449   -0.6882 C.ar    1  LIG1        0.0942
     30 C          -4.0160   -5.8042   -0.2108 C.ar    1  LIG1        0.1778
     31 O          -3.3028   -4.6954    0.1474 O.2     1  LIG1       -0.4479
     32 N          -6.3523   -3.2133   -1.0749 N.pl3   1  LIG1       -0.3536
     33 H          -6.1451   -2.2262   -0.9532 H       1  LIG1        0.1425
     34 H          -6.5551   -3.3822   -2.0566 H       1  LIG1        0.1425
     35 N          -6.2927   -6.2573   -1.0987 N.pl3   1  LIG1       -0.3535
     36 H          -7.0434   -5.7642   -1.5579 H       1  LIG1        0.1425
     37 H          -6.0032   -7.1162   -1.5523 H       1  LIG1        0.1425
     38 C          -3.3546   -7.0816   -0.0164 C.ar    1  LIG1        0.1264
     39 C          -3.7297   -8.3816   -0.2942 C.ar    1  LIG1        0.1512
     40 C          -2.6707   -9.2522    0.0894 C.ar    1  LIG1        0.0092
     41 C          -1.6777   -8.4418    0.5875 C.ar    1  LIG1        0.0088
     42 N          -2.0992   -7.1449    0.5190 N.ar    1  LIG1       -0.3550
     43 H          -1.5907   -6.3301    0.8218 H       1  LIG1        0.1655
     44 H          -0.7072   -8.6949    0.9785 H       1  LIG1        0.0811
     45 O          -4.9174   -8.7816   -0.8568 O.3     1  LIG1       -0.4926
     46 C          -5.8919   -9.1616    0.1182 C.3     1  LIG1        0.0789
     47 H          -6.7456   -9.5501   -0.4346 H       1  LIG1        0.0660
     48 H          -5.4837   -9.9352    0.7706 H       1  LIG1        0.0660
     49 H          -6.1882   -8.2878    0.7001 H       1  LIG1        0.0660
     50 C          -2.6735  -10.7535   -0.0551 C.3     1  LIG1       -0.0348
     51 H          -1.6538  -11.1306   -0.1338 H       1  LIG1        0.0279
     52 H          -3.2212  -11.0303   -0.9563 H       1  LIG1        0.0279
     53 H          -3.1528  -11.2343    0.8000 H       1  LIG1        0.0279
@<TRIPOS>BOND
     1    13    10    1
     2    34    32    1
     3    36    35    1
     4    37    35    1
     5    11    10    1
     6    10     9    1
     7    10    12    1
     8    35    29    1
     9    32    33    1
    10    32    28    1
    11    52    50    1
    12    45    39    1
    13    45    46    1
    14    19    18    1
    15     8     2    1
    16    29    28   ar
    17    29    30   ar
    18     9     3    1
    19    28    27   ar
    20     2     3   ar
    21     2     1   ar
    22    47    46    1
    23     3     4   ar
    24    39    38   ar
    25    39    40   ar
    26    30    38    1
    27    30    31   ar
    28    18    17   ar
    29    18    14   ar
    30    51    50    1
    31    27    31   ar
    32    27    17    1
    33     1     7    1
    34     1     5   ar
    35    50    40    1
    36    50    53    1
    37     4     5   ar
    38     4    14    1
    39    38    42   ar
    40    40    41   ar
    41    46    49    1
    42    46    48    1
    43     5     6    1
    44    17    16   ar
    45    14    15   ar
    46    42    41   ar
    47    42    43    1
    48    41    44    1
    49    15    16   ar
    50    15    20    1
    51    16    23    1
    52    21    20    1
    53    25    23    1
    54    22    20    1
    55    23    24    1
    56    23    26    1
