@<TRIPOS>MOLECULE
mol_data/opt/m06hf/geoms/mol2/13al13al13al.out
 38 40 0 0 0
SMALL
GASTEIGER

@<TRIPOS>ATOM
      1 C           1.3552   -0.1777    0.2665 C.ar    1  LIG1        0.0058
      2 C           0.9484    1.0368   -0.2377 C.ar    1  LIG1       -0.0019
      3 C          -0.4759    0.9982   -0.2831 C.ar    1  LIG1        0.1467
      4 C          -0.8869   -0.2295    0.1896 C.ar    1  LIG1        0.1052
      5 N           0.2513   -0.9299    0.5158 N.ar    1  LIG1       -0.3566
      6 H           0.2446   -1.8190    0.9880 H       1  LIG1        0.1655
      7 H           2.3444   -0.5487    0.4684 H       1  LIG1        0.0808
      8 H           1.5951    1.8419   -0.5411 H       1  LIG1        0.0669
      9 O          -1.3472    1.9499   -0.7082 O.3     1  LIG1       -0.4929
     10 C          -0.7544    3.1100   -1.2565 C.3     1  LIG1        0.0789
     11 H          -1.5730    3.7411   -1.5922 H       1  LIG1        0.0660
     12 H          -0.1669    3.6371   -0.4994 H       1  LIG1        0.0660
     13 H          -0.1147    2.8506   -2.1044 H       1  LIG1        0.0660
     14 C          -2.2280   -0.7807    0.3359 C.ar    1  LIG1        0.0705
     15 C          -3.4096   -0.1580    0.6732 C.ar    1  LIG1        0.0076
     16 C          -4.4212   -1.1618    0.6401 C.ar    1  LIG1        0.1473
     17 C          -3.8329   -2.3584    0.2964 C.ar    1  LIG1        0.1057
     18 N          -2.4873   -2.1077    0.1241 N.ar    1  LIG1       -0.3488
     19 H          -1.8728   -2.7226   -0.3870 H       1  LIG1        0.1661
     20 H          -3.5023    0.8852    0.9214 H       1  LIG1        0.0676
     21 O          -5.7481   -1.0449    0.9047 O.3     1  LIG1       -0.4929
     22 C          -6.1634    0.2302    1.3526 C.3     1  LIG1        0.0789
     23 H          -7.2308    0.1538    1.5428 H       1  LIG1        0.0660
     24 H          -5.6408    0.5024    2.2734 H       1  LIG1        0.0660
     25 H          -5.9769    0.9871    0.5863 H       1  LIG1        0.0660
     26 C          -4.4129   -3.6866    0.1409 C.ar    1  LIG1        0.0701
     27 C          -5.6468   -4.0686   -0.3433 C.ar    1  LIG1        0.0069
     28 C          -5.6883   -5.4913   -0.2618 C.ar    1  LIG1        0.1379
     29 C          -4.4938   -5.9273    0.2577 C.ar    1  LIG1        0.0444
     30 N          -3.7273   -4.8137    0.4917 N.ar    1  LIG1       -0.3564
     31 H          -2.8525   -4.8080    0.9893 H       1  LIG1        0.1655
     32 H          -4.1532   -6.9239    0.4687 H       1  LIG1        0.0844
     33 H          -6.3976   -3.3896   -0.7078 H       1  LIG1        0.0676
     34 O          -6.6924   -6.3363   -0.6259 O.3     1  LIG1       -0.4936
     35 C          -7.8600   -5.7053   -1.1097 C.3     1  LIG1        0.0789
     36 H          -8.5658   -6.5008   -1.3358 H       1  LIG1        0.0660
     37 H          -8.2809   -5.0394   -0.3515 H       1  LIG1        0.0660
     38 H          -7.6431   -5.1353   -2.0173 H       1  LIG1        0.0660
@<TRIPOS>BOND
     1    13    10    1
     2    38    35    1
     3    11    10    1
     4    36    35    1
     5    10     9    1
     6    10    12    1
     7    35    34    1
     8    35    37    1
     9     9     3    1
    10    33    27    1
    11    34    28    1
    12     8     2    1
    13    19    18    1
    14    27    28   ar
    15    27    26   ar
    16     3     2   ar
    17     3     4   ar
    18    28    29   ar
    19     2     1   ar
    20    18    17   ar
    21    18    14   ar
    22    26    17    1
    23    26    30   ar
    24     4    14    1
    25     4     5   ar
    26    29    32    1
    27    29    30   ar
    28     1     7    1
    29     1     5   ar
    30    17    16   ar
    31    14    15   ar
    32    30    31    1
    33     5     6    1
    34    25    22    1
    35    16    15   ar
    36    16    21    1
    37    15    20    1
    38    21    22    1
    39    22    23    1
    40    22    24    1
