@<TRIPOS>MOLECULE
mol_data/opt/m06hf/geoms/mol2/13al13dl-6fa6ee.out
 50 53 0 0 0
SMALL
GASTEIGER

@<TRIPOS>ATOM
      1 C           1.3037    0.0531   -1.0960 C.ar    1  LIG1        0.0058
      2 C           0.7224    1.2224   -1.5280 C.ar    1  LIG1       -0.0019
      3 C          -0.6663    1.1152   -1.2332 C.ar    1  LIG1        0.1467
      4 C          -0.8770   -0.1041   -0.6258 C.ar    1  LIG1        0.1065
      5 N           0.3382   -0.7465   -0.5685 N.ar    1  LIG1       -0.3565
      6 H           0.5063   -1.6192   -0.0951 H       1  LIG1        0.1655
      7 H           2.3321   -0.2621   -1.1228 H       1  LIG1        0.0808
      8 H           1.2261    2.0419   -2.0103 H       1  LIG1        0.0669
      9 O          -1.6718    1.9763   -1.5208 O.3     1  LIG1       -0.4929
     10 C          -1.4225    3.3353   -1.1742 C.3     1  LIG1        0.0789
     11 H          -2.3617    3.8603   -1.3234 H       1  LIG1        0.0660
     12 H          -1.1241    3.4059   -0.1274 H       1  LIG1        0.0660
     13 H          -0.6503    3.7569   -1.8211 H       1  LIG1        0.0660
     14 C          -2.1233   -0.6841   -0.1559 C.ar    1  LIG1        0.0882
     15 C          -3.2206   -0.0770    0.4337 C.ar    1  LIG1        0.1207
     16 C          -4.1924   -1.0969    0.6706 C.ar    1  LIG1        0.1634
     17 C          -3.6604   -2.2915    0.2456 C.ar    1  LIG1        0.0956
     18 N          -2.3999   -2.0113   -0.2519 N.ar    1  LIG1       -0.3488
     19 H          -1.8559   -2.6720   -0.7901 H       1  LIG1        0.1661
     20 N          -3.4711    2.3961    1.1188 N.1     1  LIG1       -0.1907
     21 C          -3.3418    1.3037    0.7867 C.1     1  LIG1        0.1050
     22 O          -5.4300   -0.9392    1.2003 O.3     1  LIG1       -0.4917
     23 C          -5.4401   -0.5893    2.5888 C.3     1  LIG1        0.0789
     24 H          -6.4862   -0.5483    2.8793 H       1  LIG1        0.0660
     25 H          -4.9162   -1.3553    3.1634 H       1  LIG1        0.0660
     26 H          -4.9717    0.3840    2.7379 H       1  LIG1        0.0660
     27 C          -3.4619   -4.7895    0.3606 C.ar    1  LIG1        0.2223
     28 C          -4.2569   -3.6336    0.2275 C.ar    1  LIG1        0.0633
     29 C          -5.6268   -3.8220    0.0753 C.ar    1  LIG1       -0.0454
     30 C          -6.1339   -5.1166    0.0230 C.ar    1  LIG1       -0.0347
     31 C          -5.2410   -6.1822    0.1081 C.ar    1  LIG1        0.0775
     32 N          -3.9280   -6.0130    0.2822 N.ar    1  LIG1       -0.2124
     33 H          -6.2726   -2.9576   -0.0024 H       1  LIG1        0.0626
     34 O          -2.1152   -4.6767    0.5526 O.3     1  LIG1       -0.4919
     35 H          -1.9432   -3.9112    1.1165 H       1  LIG1        0.2937
     36 H          -7.1942   -5.2995   -0.0794 H       1  LIG1        0.0639
     37 C          -5.4129   -8.5702    0.9477 C.ar    1  LIG1        0.1223
     38 C          -5.7308   -7.5877   -0.0064 C.ar    1  LIG1        0.0354
     39 C          -6.5337   -7.9606   -1.0778 C.ar    1  LIG1       -0.0330
     40 C          -6.9754   -9.2792   -1.1787 C.ar    1  LIG1        0.0435
     41 C          -6.5858  -10.1795   -0.1808 C.ar    1  LIG1        0.0444
     42 N          -5.8338   -9.8335    0.8528 N.ar    1  LIG1       -0.2448
     43 H          -6.7998   -7.2402   -1.8406 H       1  LIG1        0.0638
     44 H          -6.9043  -11.2130   -0.2322 H       1  LIG1        0.0842
     45 C          -4.6367   -8.2447    2.1267 C.1     1  LIG1       -0.0491
     46 C          -4.0186   -7.9899    3.1234 C.1     1  LIG1       -0.1124
     47 H          -3.4614   -7.7687    4.0040 H       1  LIG1        0.1232
     48 C          -7.8013   -9.7119   -2.2768 C.1     1  LIG1       -0.0681
     49 C          -8.4915  -10.0703   -3.1922 C.1     1  LIG1       -0.1139
     50 H          -9.1028  -10.3871   -4.0054 H       1  LIG1        0.1232
@<TRIPOS>BOND
     1    50    49    1
     2    49    48    3
     3    48    40    1
     4     8     2    1
     5    43    39    1
     6    13    10    1
     7     2     3   ar
     8     2     1   ar
     9     9     3    1
    10     9    10    1
    11    11    10    1
    12     3     4   ar
    13    40    39   ar
    14    40    41   ar
    15    10    12    1
    16     7     1    1
    17     1     5   ar
    18    39    38   ar
    19    19    18    1
    20     4     5   ar
    21     4    14    1
    22     5     6    1
    23    18    14   ar
    24    18    17   ar
    25    44    41    1
    26    41    42   ar
    27    14    15   ar
    28    36    30    1
    29    38    31    1
    30    38    37   ar
    31    33    29    1
    32    30    29   ar
    33    30    31   ar
    34    29    28   ar
    35    31    32   ar
    36    28    17    1
    37    28    27   ar
    38    17    16   ar
    39    32    27   ar
    40    27    34    1
    41    15    16   ar
    42    15    21    1
    43    34    35    1
    44    16    22    1
    45    21    20    3
    46    42    37   ar
    47    37    45    1
    48    22    23    1
    49    45    46    3
    50    23    26    1
    51    23    24    1
    52    23    25    1
    53    46    47    1
