@<TRIPOS>MOLECULE
mol_data/opt/m06hf/geoms/mol2/13al13al-13al-13al-.out
 50 53 0 0 0
SMALL
GASTEIGER

@<TRIPOS>ATOM
      1 C           1.2118   -0.6369   -0.2916 C.ar    1  LIG1        0.0058
      2 C           0.8956    0.6652   -0.6106 C.ar    1  LIG1       -0.0019
      3 C          -0.5238    0.7455   -0.5743 C.ar    1  LIG1        0.1467
      4 C          -1.0228   -0.4960   -0.2393 C.ar    1  LIG1        0.1052
      5 N           0.0573   -1.3194   -0.0711 N.ar    1  LIG1       -0.3566
      6 H          -0.0078   -2.2923    0.1775 H       1  LIG1        0.1655
      7 H           2.1713   -1.1158   -0.2061 H       1  LIG1        0.0808
      8 H           1.5980    1.4478   -0.8397 H       1  LIG1        0.0669
      9 O          -1.3432    1.8159   -0.8124 O.3     1  LIG1       -0.4929
     10 C          -0.6882    2.9975   -1.2391 C.3     1  LIG1        0.0789
     11 H          -1.4662    3.7371   -1.4084 H       1  LIG1        0.0660
     12 H          -0.0022    3.3493   -0.4650 H       1  LIG1        0.0660
     13 H          -0.1412    2.8126   -2.1667 H       1  LIG1        0.0660
     14 C          -2.4069   -0.9195   -0.0875 C.ar    1  LIG1        0.0705
     15 C          -2.9789   -2.1446    0.2014 C.ar    1  LIG1        0.0076
     16 C          -4.3835   -1.9458    0.1747 C.ar    1  LIG1        0.1473
     17 C          -4.6300   -0.6189   -0.1148 C.ar    1  LIG1        0.1057
     18 N          -3.4110   -0.0141   -0.2688 N.ar    1  LIG1       -0.3488
     19 H          -3.2322    0.9263   -0.5958 H       1  LIG1        0.1661
     20 H          -2.4770   -3.0777    0.3961 H       1  LIG1        0.0676
     21 O          -5.3370   -2.8982    0.4062 O.3     1  LIG1       -0.4929
     22 C          -5.8654   -2.8529    1.7286 C.3     1  LIG1        0.0789
     23 H          -6.5688   -3.6790    1.8096 H       1  LIG1        0.0660
     24 H          -5.0602   -2.9725    2.4572 H       1  LIG1        0.0660
     25 H          -6.3807   -1.9051    1.8958 H       1  LIG1        0.0660
     26 C          -5.9024    0.0825   -0.2302 C.ar    1  LIG1        0.0706
     27 C          -7.1286   -0.3887   -0.6613 C.ar    1  LIG1        0.0076
     28 C          -8.0347    0.7044   -0.5728 C.ar    1  LIG1        0.1473
     29 C          -7.3472    1.8004   -0.0931 C.ar    1  LIG1        0.1057
     30 N          -6.0484    1.3936    0.1108 N.ar    1  LIG1       -0.3488
     31 H          -5.3121    1.9940    0.4460 H       1  LIG1        0.1661
     32 H          -7.3089   -1.3944   -1.0013 H       1  LIG1        0.0676
     33 O          -9.3548    0.7478   -0.8850 O.3     1  LIG1       -0.4929
     34 C          -9.9261   -0.4901   -1.2592 C.3     1  LIG1        0.0789
     35 H         -10.9815   -0.2979   -1.4342 H       1  LIG1        0.0660
     36 H          -9.4624   -0.8683   -2.1742 H       1  LIG1        0.0660
     37 H          -9.8092   -1.2247   -0.4578 H       1  LIG1        0.0660
     38 C          -7.8058    3.1543    0.2032 C.ar    1  LIG1        0.0701
     39 C          -8.6442    3.9867   -0.4991 C.ar    1  LIG1        0.0069
     40 C          -8.7534    5.1867    0.2569 C.ar    1  LIG1        0.1379
     41 C          -7.9805    5.0575    1.3890 C.ar    1  LIG1        0.0444
     42 N          -7.4011    3.8113    1.3340 N.ar    1  LIG1       -0.3564
     43 H          -6.9196    3.3688    2.0991 H       1  LIG1        0.1655
     44 H          -7.7971    5.7278    2.2089 H       1  LIG1        0.0844
     45 H          -9.1136    3.7709   -1.4425 H       1  LIG1        0.0676
     46 O          -9.5011    6.2480   -0.1444 O.3     1  LIG1       -0.4936
     47 C          -9.5284    7.3290    0.7610 C.3     1  LIG1        0.0789
     48 H         -10.1697    8.0884    0.3213 H       1  LIG1        0.0660
     49 H          -9.9358    7.0102    1.7252 H       1  LIG1        0.0660
     50 H          -8.5213    7.7331    0.9055 H       1  LIG1        0.0660
@<TRIPOS>BOND
     1    36    34    1
     2    13    10    1
     3    45    39    1
     4    35    34    1
     5    11    10    1
     6    34    33    1
     7    34    37    1
     8    10     9    1
     9    10    12    1
    10    32    27    1
    11    33    28    1
    12     8     2    1
    13     9     3    1
    14    27    28   ar
    15    27    26   ar
    16     2     3   ar
    17     2     1   ar
    18    19    18    1
    19     3     4   ar
    20    28    29   ar
    21    39    38   ar
    22    39    40   ar
    23     1     7    1
    24     1     5   ar
    25    18    17   ar
    26    18    14   ar
    27     4    14    1
    28     4     5   ar
    29    26    17    1
    30    26    30   ar
    31    46    40    1
    32    46    47    1
    33    17    16   ar
    34    29    30   ar
    35    29    38    1
    36    14    15   ar
    37     5     6    1
    38    30    31    1
    39    16    15   ar
    40    16    21    1
    41    15    20    1
    42    38    42   ar
    43    40    41   ar
    44    48    47    1
    45    21    22    1
    46    47    50    1
    47    47    49    1
    48    42    41   ar
    49    42    43    1
    50    41    44    1
    51    22    23    1
    52    22    25    1
    53    22    24    1
