@<TRIPOS>MOLECULE
mol_data/opt/m06hf/geoms/mol2/13al13al13al13al.out
 50 53 0 0 0
SMALL
GASTEIGER

@<TRIPOS>ATOM
      1 C           1.3872   -0.1399   -0.1967 C.ar    1  LIG1        0.0058
      2 C           0.9376    1.0815   -0.6456 C.ar    1  LIG1       -0.0019
      3 C          -0.4825    1.0556   -0.5300 C.ar    1  LIG1        0.1467
      4 C          -0.8496   -0.1729   -0.0235 C.ar    1  LIG1        0.1052
      5 N           0.3117   -0.8846    0.1703 N.ar    1  LIG1       -0.3566
      6 H           0.3503   -1.7804    0.6277 H       1  LIG1        0.1655
      7 H           2.3892   -0.5214   -0.1081 H       1  LIG1        0.0808
      8 H           1.5544    1.8825   -1.0145 H       1  LIG1        0.0669
      9 O          -1.3871    2.0191   -0.8450 O.3     1  LIG1       -0.4929
     10 C          -0.8583    3.1497   -1.5096 C.3     1  LIG1        0.0789
     11 H          -1.7024    3.7992   -1.7254 H       1  LIG1        0.0660
     12 H          -0.1442    3.6739   -0.8690 H       1  LIG1        0.0660
     13 H          -0.3695    2.8528   -2.4415 H       1  LIG1        0.0660
     14 C          -2.1709   -0.7209    0.2565 C.ar    1  LIG1        0.0705
     15 C          -3.3045   -0.1038    0.7381 C.ar    1  LIG1        0.0076
     16 C          -4.3212   -1.1018    0.7844 C.ar    1  LIG1        0.1473
     17 C          -3.7814   -2.2902    0.3453 C.ar    1  LIG1        0.1057
     18 N          -2.4602   -2.0402    0.0362 N.ar    1  LIG1       -0.3488
     19 H          -1.9081   -2.6384   -0.5594 H       1  LIG1        0.1661
     20 H          -3.3630    0.9322    1.0231 H       1  LIG1        0.0676
     21 O          -5.6099   -0.9893    1.1961 O.3     1  LIG1       -0.4929
     22 C          -5.9640    0.2720    1.7295 C.3     1  LIG1        0.0789
     23 H          -7.0035    0.1916    2.0367 H       1  LIG1        0.0660
     24 H          -5.3385    0.5124    2.5929 H       1  LIG1        0.0660
     25 H          -5.8606    1.0527    0.9714 H       1  LIG1        0.0660
     26 C          -4.3889   -3.6073    0.2047 C.ar    1  LIG1        0.0706
     27 C          -5.6586   -3.9627   -0.2068 C.ar    1  LIG1        0.0076
     28 C          -5.7094   -5.3844   -0.1822 C.ar    1  LIG1        0.1473
     29 C          -4.4831   -5.8557    0.2386 C.ar    1  LIG1        0.1057
     30 N          -3.6949   -4.7510    0.4678 N.ar    1  LIG1       -0.3488
     31 H          -2.7437   -4.7891    0.7956 H       1  LIG1        0.1661
     32 H          -6.4279   -3.2633   -0.4844 H       1  LIG1        0.0676
     33 O          -6.7387   -6.2085   -0.5076 O.3     1  LIG1       -0.4929
     34 C          -7.9639   -5.5604   -0.7862 C.3     1  LIG1        0.0789
     35 H          -8.6877   -6.3478   -0.9805 H       1  LIG1        0.0660
     36 H          -8.2852   -4.9621    0.0705 H       1  LIG1        0.0660
     37 H          -7.8702   -4.9197   -1.6672 H       1  LIG1        0.0660
     38 C          -4.0126   -7.2208    0.4566 C.ar    1  LIG1        0.0701
     39 C          -4.1422   -8.3453   -0.3305 C.ar    1  LIG1        0.0069
     40 C          -3.4976   -9.4062    0.3706 C.ar    1  LIG1        0.1379
     41 C          -2.9953   -8.9003    1.5449 C.ar    1  LIG1        0.0444
     42 N          -3.3140   -7.5672    1.5781 N.ar    1  LIG1       -0.3564
     43 H          -3.2017   -6.9659    2.3778 H       1  LIG1        0.1655
     44 H          -2.4542   -9.3910    2.3330 H       1  LIG1        0.0844
     45 H          -4.6361   -8.3698   -1.2863 H       1  LIG1        0.0676
     46 O          -3.3536  -10.7092    0.0009 O.3     1  LIG1       -0.4936
     47 C          -3.9382  -11.0456   -1.2402 C.3     1  LIG1        0.0789
     48 H          -3.7498  -12.1056   -1.3903 H       1  LIG1        0.0660
     49 H          -5.0157  -10.8602   -1.2230 H       1  LIG1        0.0660
     50 H          -3.4812  -10.4703   -2.0503 H       1  LIG1        0.0660
@<TRIPOS>BOND
     1    13    10    1
     2    50    47    1
     3    11    10    1
     4    37    34    1
     5    10    12    1
     6    10     9    1
     7    48    47    1
     8    45    39    1
     9    47    49    1
    10    47    46    1
    11     8     2    1
    12    35    34    1
    13     9     3    1
    14    34    33    1
    15    34    36    1
    16     2     3   ar
    17     2     1   ar
    18    19    18    1
    19     3     4   ar
    20    33    28    1
    21    32    27    1
    22    39    40   ar
    23    39    38   ar
    24    27    28   ar
    25    27    26   ar
    26     1     7    1
    27     1     5   ar
    28    28    29   ar
    29     4     5   ar
    30     4    14    1
    31    46    40    1
    32    18    14   ar
    33    18    17   ar
    34     5     6    1
    35    26    17    1
    36    26    30   ar
    37    29    38    1
    38    29    30   ar
    39    14    15   ar
    40    17    16   ar
    41    40    41   ar
    42    38    42   ar
    43    30    31    1
    44    15    16   ar
    45    15    20    1
    46    16    21    1
    47    25    22    1
    48    21    22    1
    49    41    42   ar
    50    41    44    1
    51    42    43    1
    52    22    23    1
    53    22    24    1
