@<TRIPOS>MOLECULE
mol_data/opt/m06hf/geoms/mol2/13al6ah-4af-13la.out
 48 51 0 0 0
SMALL
GASTEIGER

@<TRIPOS>ATOM
      1 C           1.5181   -0.1003    1.1718 C.ar    1  LIG1        0.0057
      2 C           1.2891    1.0600    0.4656 C.ar    1  LIG1       -0.0019
      3 C          -0.0692    1.0079    0.0459 C.ar    1  LIG1        0.1453
      4 C          -0.6213   -0.1762    0.4969 C.ar    1  LIG1        0.0902
      5 N           0.3764   -0.8312    1.1786 N.ar    1  LIG1       -0.3577
      6 H           0.2398   -1.6864    1.6920 H       1  LIG1        0.1654
      7 H           2.4068   -0.4443    1.6710 H       1  LIG1        0.0808
      8 H           2.0086    1.8380    0.2791 H       1  LIG1        0.0669
      9 O          -0.7691    1.9188   -0.6851 O.3     1  LIG1       -0.4930
     10 C          -0.0320    3.0473   -1.1144 C.3     1  LIG1        0.0789
     11 H          -0.7207    3.6609   -1.6895 H       1  LIG1        0.0660
     12 H           0.3384    3.6122   -0.2550 H       1  LIG1        0.0660
     13 H           0.8060    2.7390   -1.7442 H       1  LIG1        0.0660
     14 C          -2.2132   -2.1027    0.4102 C.ar    1  LIG1        0.0376
     15 C          -1.9682   -0.7279    0.3232 C.ar    1  LIG1        0.0217
     16 C          -3.0532    0.1009    0.0501 C.ar    1  LIG1       -0.0283
     17 C          -4.3289   -0.4426   -0.0962 C.ar    1  LIG1        0.0515
     18 C          -4.4781   -1.8351    0.0859 C.ar    1  LIG1        0.0917
     19 N          -3.4260   -2.6229    0.3030 N.ar    1  LIG1       -0.2525
     20 H          -2.8958    1.1670   -0.0600 H       1  LIG1        0.0644
     21 H          -1.4020   -2.8079    0.5512 H       1  LIG1        0.0836
     22 N          -5.4138    0.3834   -0.3848 N.pl3   1  LIG1       -0.3563
     23 H          -5.1568    1.2624   -0.8122 H       1  LIG1        0.1424
     24 H          -6.1746   -0.0769   -0.8690 H       1  LIG1        0.1424
     25 C          -6.9823   -1.9546    0.4938 C.ar    1  LIG1       -0.0517
     26 C          -8.1826   -2.6511    0.4076 C.ar    1  LIG1       -0.0484
     27 C          -5.8034   -2.5169   -0.0007 C.ar    1  LIG1        0.0056
     28 C          -8.2601   -3.9257   -0.1666 C.ar    1  LIG1        0.0433
     29 H          -9.0884   -2.2113    0.7984 H       1  LIG1        0.0625
     30 C          -5.8566   -3.7971   -0.5516 C.ar    1  LIG1       -0.0103
     31 C          -7.0564   -4.4849   -0.6336 C.ar    1  LIG1        0.1267
     32 H          -4.9354   -4.2517   -0.9000 H       1  LIG1        0.0661
     33 H          -6.9600   -0.9840    0.9721 H       1  LIG1        0.0624
     34 O          -7.0888   -5.7457   -1.1838 O.3     1  LIG1       -0.5061
     35 H          -6.1995   -6.0167   -1.4331 H       1  LIG1        0.2922
     36 C          -9.5500   -4.6247   -0.2555 C.ar    1  LIG1        0.0922
     37 C         -10.8269   -4.2017    0.0914 C.ar    1  LIG1        0.1453
     38 C         -11.7405   -5.2526   -0.1818 C.ar    1  LIG1       -0.0019
     39 C         -10.9882   -6.2917   -0.6902 C.ar    1  LIG1        0.0057
     40 N          -9.6953   -5.9069   -0.7282 N.ar    1  LIG1       -0.3576
     41 H          -8.9099   -6.4464   -1.0588 H       1  LIG1        0.1654
     42 H         -11.2924   -7.2682   -1.0241 H       1  LIG1        0.0808
     43 O         -11.1020   -2.9695    0.6057 O.3     1  LIG1       -0.4930
     44 C         -12.4677   -2.7095    0.8609 C.3     1  LIG1        0.0789
     45 H         -12.5180   -1.6942    1.2457 H       1  LIG1        0.0660
     46 H         -13.0497   -2.7874   -0.0611 H       1  LIG1        0.0660
     47 H         -12.8580   -3.4083    1.6053 H       1  LIG1        0.0660
     48 H         -12.8056   -5.2576   -0.0294 H       1  LIG1        0.0669
@<TRIPOS>BOND
     1    13    10    1
     2    11    10    1
     3    35    34    1
     4    34    31    1
     5    10     9    1
     6    10    12    1
     7    41    40    1
     8    42    39    1
     9    32    30    1
    10    24    22    1
    11    23    22    1
    12    40    39   ar
    13    40    36   ar
    14    39    38   ar
    15     9     3    1
    16    31    30   ar
    17    31    28   ar
    18    30    27   ar
    19    22    17    1
    20    36    28    1
    21    36    37   ar
    22    38    48    1
    23    38    37   ar
    24    28    26   ar
    25    17    16   ar
    26    17    18   ar
    27    46    44    1
    28    20    16    1
    29    27    18    1
    30    27    25   ar
    31     3     2   ar
    32     3     4   ar
    33    16    15   ar
    34    18    19   ar
    35    37    43    1
    36     8     2    1
    37    19    14   ar
    38    15    14   ar
    39    15     4    1
    40    26    25   ar
    41    26    29    1
    42    14    21    1
    43     2     1   ar
    44    25    33    1
    45     4     5   ar
    46    43    44    1
    47    44    45    1
    48    44    47    1
    49     1     5   ar
    50     1     7    1
    51     5     6    1
