@<TRIPOS>MOLECULE
mol_data/opt/m06hf/geoms/mol2/13da12ai4ah-4ll-.out
 52 55 0 0 0
SMALL
GASTEIGER

@<TRIPOS>ATOM
      1 C          -2.0068  -10.6942   10.0594 C.ar    1  LIG1        0.0035
      2 C          -2.5098  -10.1311   11.2041 C.ar    1  LIG1       -0.0283
      3 C          -3.7179   -9.4584   10.8492 C.ar    1  LIG1        0.0529
      4 C          -3.9045   -9.6559    9.4886 C.ar    1  LIG1        0.0980
      5 N          -2.8571  -10.3983    9.0350 N.ar    1  LIG1       -0.3573
      6 H          -2.7469  -10.6550    8.0645 H       1  LIG1        0.1655
      7 H          -1.1186  -11.2789    9.8964 H       1  LIG1        0.0807
      8 H          -2.0779  -10.1685   12.1888 H       1  LIG1        0.0645
      9 C          -4.5275   -8.6691   11.7293 C.1     1  LIG1       -0.0674
     10 C          -5.1753   -8.0048   12.4945 C.1     1  LIG1       -0.1138
     11 H          -5.7462   -7.4146   13.1730 H       1  LIG1        0.1232
     12 C          -4.9259   -9.2309    8.5423 C.ar    1  LIG1        0.1595
     13 C          -6.2449   -8.8944    8.6201 C.ar    1  LIG1        0.0391
     14 C          -6.6261   -8.6414    7.2577 C.ar    1  LIG1        0.1692
     15 C          -5.5353   -8.8550    6.4640 C.ar    1  LIG1        0.1801
     16 O          -4.5018   -9.2158    7.2541 O.2     1  LIG1       -0.4492
     17 C          -7.1829   -8.8723    9.7978 C.3     1  LIG1       -0.0325
     18 H          -8.1921   -9.0717    9.4365 H       1  LIG1        0.0280
     19 H          -7.1622   -7.9033   10.2972 H       1  LIG1        0.0280
     20 H          -6.8944   -9.6320   10.5224 H       1  LIG1        0.0280
     21 O          -7.8726   -8.2867    6.8407 O.3     1  LIG1       -0.4910
     22 C          -8.1305   -6.8844    6.9660 C.3     1  LIG1        0.0790
     23 H          -9.1494   -6.7304    6.6214 H       1  LIG1        0.0660
     24 H          -8.0329   -6.5770    8.0085 H       1  LIG1        0.0660
     25 H          -7.4290   -6.3220    6.3469 H       1  LIG1        0.0660
     26 C          -4.1075   -8.7579    4.3685 C.ar    1  LIG1        0.1247
     27 C          -5.3564   -8.7810    5.0160 C.ar    1  LIG1        0.0560
     28 C          -6.4826   -8.7022    4.1947 C.ar    1  LIG1       -0.0287
     29 C          -6.3479   -8.6242    2.8139 C.ar    1  LIG1        0.0800
     30 C          -5.0577   -8.6764    2.2473 C.ar    1  LIG1        0.1095
     31 N          -3.9886   -8.7229    3.0450 N.ar    1  LIG1       -0.2348
     32 H          -7.4681   -8.6894    4.6436 H       1  LIG1        0.0639
     33 C          -2.8490   -8.7512    5.0908 C.1     1  LIG1       -0.0491
     34 C          -1.7842   -8.7193    5.6459 C.1     1  LIG1       -0.1124
     35 H          -0.8399   -8.6720    6.1390 H       1  LIG1        0.1232
     36 N          -8.5959   -8.1807    1.6113 N.1     1  LIG1       -0.1908
     37 C          -7.5675   -8.4082    2.0673 C.1     1  LIG1        0.1014
     38 C          -4.7297   -8.6694    0.8212 C.ar    1  LIG1        0.1103
     39 C          -5.4221   -8.9151   -0.3570 C.ar    1  LIG1        0.1673
     40 C          -4.4901   -8.8660   -1.4268 C.ar    1  LIG1        0.0851
     41 C          -3.2591   -8.5911   -0.8665 C.ar    1  LIG1        0.0267
     42 N          -3.4213   -8.4766    0.4759 N.ar    1  LIG1       -0.3549
     43 H          -2.7101   -8.3371    1.1786 H       1  LIG1        0.1655
     44 H          -2.2968   -8.4706   -1.3337 H       1  LIG1        0.0827
     45 O          -6.7364   -9.2297   -0.4887 O.3     1  LIG1       -0.4911
     46 C          -7.4903   -8.2456   -1.2095 C.3     1  LIG1        0.0790
     47 H          -8.5142   -8.6091   -1.2308 H       1  LIG1        0.0660
     48 H          -7.4508   -7.2933   -0.6799 H       1  LIG1        0.0660
     49 H          -7.0865   -8.1361   -2.2169 H       1  LIG1        0.0660
     50 N          -4.8408   -9.0570   -2.7827 N.pl3   1  LIG1       -0.3540
     51 H          -4.0273   -9.1124   -3.3836 H       1  LIG1        0.1425
     52 H          -5.3982   -9.8989   -2.8914 H       1  LIG1        0.1425
@<TRIPOS>BOND
     1    51    50    1
     2    52    50    1
     3    50    40    1
     4    49    46    1
     5    40    41   ar
     6    40    39   ar
     7    44    41    1
     8    47    46    1
     9    46    48    1
    10    46    45    1
    11    41    42   ar
    12    45    39    1
    13    39    38   ar
    14    42    38   ar
    15    42    43    1
    16    38    30    1
    17    36    37    3
    18    37    29    1
    19    30    29   ar
    20    30    31   ar
    21    29    28   ar
    22    31    26   ar
    23    28    32    1
    24    28    27   ar
    25    26    27   ar
    26    26    33    1
    27    27    15    1
    28    33    34    3
    29    34    35    1
    30    25    22    1
    31    15    16   ar
    32    15    14   ar
    33    23    22    1
    34    21    22    1
    35    21    14    1
    36    22    24    1
    37    16    12   ar
    38    14    13   ar
    39     6     5    1
    40    12    13   ar
    41    12     4    1
    42    13    17    1
    43     5     4   ar
    44     5     1   ar
    45    18    17    1
    46     4     3   ar
    47    17    19    1
    48    17    20    1
    49     7     1    1
    50     1     2   ar
    51     3     2   ar
    52     3     9    1
    53     2     8    1
    54     9    10    3
    55    10    11    1
