@<TRIPOS>MOLECULE
mol_data/opt/m06hf/geoms/mol2/13da13da6he13dd.out
 43 46 0 0 0
SMALL
GASTEIGER

@<TRIPOS>ATOM
      1 C           0.7869    0.0367    1.6497 C.ar    1  LIG1        0.0197
      2 C           0.9131    0.9198    0.5980 C.ar    1  LIG1        0.0696
      3 C          -0.2357    0.7811   -0.2325 C.ar    1  LIG1       -0.0175
      4 C          -1.0186   -0.1865    0.3462 C.ar    1  LIG1        0.0654
      5 N          -0.3817   -0.6265    1.4836 N.ar    1  LIG1       -0.3583
      6 H          -0.7819   -1.2686    2.1511 H       1  LIG1        0.1654
      7 H           1.4410   -0.1441    2.4847 H       1  LIG1        0.0820
      8 N           2.9269    2.4951    0.2287 N.1     1  LIG1       -0.1908
      9 C           2.0297    1.7987    0.3934 C.1     1  LIG1        0.1007
     10 H          -0.4482    1.3192   -1.1406 H       1  LIG1        0.0652
     11 C          -2.3082   -0.7333   -0.0708 C.ar    1  LIG1        0.0809
     12 C          -3.4360   -0.0938   -0.5577 C.ar    1  LIG1        0.0790
     13 C          -4.4220   -1.0845   -0.8227 C.ar    1  LIG1       -0.0182
     14 C          -3.8681   -2.2966   -0.4829 C.ar    1  LIG1        0.0515
     15 N          -2.5899   -2.0612   -0.0360 N.ar    1  LIG1       -0.3519
     16 H          -1.9389   -2.8007    0.1988 H       1  LIG1        0.1660
     17 N          -3.6516    2.4550   -0.9066 N.1     1  LIG1       -0.1908
     18 C          -3.5559    1.3227   -0.7457 C.1     1  LIG1        0.1013
     19 H          -5.4087   -0.9158   -1.2198 H       1  LIG1        0.0652
     20 C          -3.6739   -4.7834   -0.8535 C.ar    1  LIG1        0.1261
     21 C          -4.4462   -3.6523   -0.4908 C.ar    1  LIG1        0.0390
     22 C          -5.7634   -3.8744   -0.1408 C.ar    1  LIG1       -0.0318
     23 C          -6.2890   -5.1757   -0.1031 C.ar    1  LIG1        0.0528
     24 C          -5.4085   -6.2235   -0.3797 C.ar    1  LIG1        0.1058
     25 N          -4.1482   -6.0140   -0.7828 N.ar    1  LIG1       -0.2290
     26 H          -6.4010   -3.0425    0.1276 H       1  LIG1        0.0638
     27 N          -2.3490   -4.6322   -1.2468 N.pl3   1  LIG1       -0.3426
     28 H          -1.9413   -5.5047   -1.5583 H       1  LIG1        0.1437
     29 H          -2.1782   -3.8600   -1.8819 H       1  LIG1        0.1437
     30 C          -7.6846   -5.3736    0.1714 C.1     1  LIG1       -0.0674
     31 C          -8.8574   -5.5053    0.3932 C.1     1  LIG1       -0.1138
     32 H          -9.8894   -5.6515    0.6171 H       1  LIG1        0.1232
     33 C          -5.7829   -7.6521   -0.3265 C.ar    1  LIG1        0.0851
     34 C          -6.6030   -8.4170    0.4837 C.ar    1  LIG1        0.0958
     35 C          -6.4772   -9.7704    0.0424 C.ar    1  LIG1        0.0870
     36 C          -5.5844   -9.7794   -1.0050 C.ar    1  LIG1        0.0210
     37 N          -5.1794   -8.5044   -1.2005 N.ar    1  LIG1       -0.3572
     38 H          -4.4842   -8.1788   -1.8585 H       1  LIG1        0.1655
     39 H          -5.2283  -10.6014   -1.6007 H       1  LIG1        0.0820
     40 N          -7.9230   -7.7218    2.5881 N.1     1  LIG1       -0.1908
     41 C          -7.3444   -8.0056    1.6389 C.1     1  LIG1        0.1026
     42 N          -7.6575  -11.8418    1.0311 N.1     1  LIG1       -0.1908
     43 C          -7.1365  -10.9176    0.5947 C.1     1  LIG1        0.1020
@<TRIPOS>BOND
     1    29    27    1
     2    38    37    1
     3    39    36    1
     4    28    27    1
     5    27    20    1
     6    19    13    1
     7    37    36   ar
     8    37    33   ar
     9    10     3    1
    10    36    35   ar
    11    17    18    3
    12    20    25   ar
    13    20    21   ar
    14    13    12   ar
    15    13    14   ar
    16    25    24   ar
    17    18    12    1
    18    12    11   ar
    19    21    14    1
    20    21    22   ar
    21    14    15   ar
    22    24    33    1
    23    24    23   ar
    24    33    34   ar
    25     3     4   ar
    26     3     2   ar
    27    22    23   ar
    28    22    26    1
    29    23    30    1
    30    11    15   ar
    31    11     4    1
    32    15    16    1
    33    35    34   ar
    34    35    43    1
    35    30    31    3
    36     8     9    3
    37     4     5   ar
    38    31    32    1
    39     9     2    1
    40    34    41    1
    41    43    42    3
    42     2     1   ar
    43     5     1   ar
    44     5     6    1
    45    41    40    3
    46     1     7    1
