@<TRIPOS>MOLECULE
mol_data/opt/m06hf/geoms/mol2/13da13da-13da-13da-.out
 38 41 0 0 0
SMALL
GASTEIGER

@<TRIPOS>ATOM
      1 C           1.2689   -0.5625   -0.5409 C.ar    1  LIG1        0.0197
      2 C           0.8848    0.7126   -0.9057 C.ar    1  LIG1        0.0696
      3 C          -0.5155    0.8203   -0.6895 C.ar    1  LIG1       -0.0175
      4 C          -0.9328   -0.3996   -0.2055 C.ar    1  LIG1        0.0654
      5 N           0.1647   -1.2180   -0.1242 N.ar    1  LIG1       -0.3583
      6 H           0.1490   -2.1701    0.2205 H       1  LIG1        0.1654
      7 H           2.2401   -1.0256   -0.5548 H       1  LIG1        0.0820
      8 N           2.4461    2.5674   -1.7956 N.1     1  LIG1       -0.1908
      9 C           1.7564    1.7392   -1.4009 C.1     1  LIG1        0.1007
     10 H          -1.1126    1.7005   -0.8600 H       1  LIG1        0.0652
     11 C          -2.2648   -0.8505    0.1829 C.ar    1  LIG1        0.0810
     12 C          -2.6810   -1.9858    0.8639 C.ar    1  LIG1        0.0790
     13 C          -4.0990   -1.9446    0.9782 C.ar    1  LIG1       -0.0169
     14 C          -4.5015   -0.7861    0.3660 C.ar    1  LIG1        0.0659
     15 N          -3.3815   -0.1388   -0.1071 N.ar    1  LIG1       -0.3508
     16 H          -3.4004    0.6618   -0.7215 H       1  LIG1        0.1660
     17 N          -0.9996   -3.7632    1.6819 N.1     1  LIG1       -0.1908
     18 C          -1.7813   -2.9916    1.3432 C.1     1  LIG1        0.1013
     19 H          -4.7348   -2.6710    1.4547 H       1  LIG1        0.0652
     20 C          -5.8427   -0.2358    0.1791 C.ar    1  LIG1        0.0810
     21 C          -7.0033   -0.8495   -0.2581 C.ar    1  LIG1        0.0790
     22 C          -8.0391    0.1252   -0.2740 C.ar    1  LIG1       -0.0169
     23 C          -7.4757    1.3034    0.1512 C.ar    1  LIG1        0.0659
     24 N          -6.1492    1.0670    0.4206 N.ar    1  LIG1       -0.3508
     25 H          -5.4953    1.7626    0.7479 H       1  LIG1        0.1660
     26 N          -7.1625   -3.3480   -0.8900 N.1     1  LIG1       -0.1908
     27 C          -7.0960   -2.2350   -0.6185 C.1     1  LIG1        0.1013
     28 H          -9.0655   -0.0223   -0.5639 H       1  LIG1        0.0652
     29 C          -8.0714    2.6297    0.3204 C.ar    1  LIG1        0.0805
     30 C          -8.8527    3.3708   -0.5451 C.ar    1  LIG1        0.0784
     31 C          -9.1818    4.5976    0.1014 C.ar    1  LIG1       -0.0263
     32 C          -8.5871    4.5616    1.3345 C.ar    1  LIG1        0.0035
     33 N          -7.9190    3.3728    1.4519 N.ar    1  LIG1       -0.3585
     34 H          -7.4780    3.0363    2.2944 H       1  LIG1        0.1654
     35 H          -8.5907    5.2795    2.1354 H       1  LIG1        0.0807
     36 N          -9.5369    2.6081   -2.9157 N.1     1  LIG1       -0.1908
     37 C          -9.2290    2.9487   -1.8637 C.1     1  LIG1        0.1013
     38 H          -9.7764    5.3944   -0.3099 H       1  LIG1        0.0645
@<TRIPOS>BOND
     1    36    37    3
     2    37    30    1
     3     8     9    3
     4     9     2    1
     5     2     3   ar
     6     2     1   ar
     7    26    27    3
     8    10     3    1
     9    16    15    1
    10     3     4   ar
    11    27    21    1
    12    28    22    1
    13     7     1    1
    14    30    31   ar
    15    30    29   ar
    16     1     5   ar
    17    38    31    1
    18    22    21   ar
    19    22    23   ar
    20    21    20   ar
    21     4     5   ar
    22     4    11    1
    23     5     6    1
    24    15    11   ar
    25    15    14   ar
    26    31    32   ar
    27    23    29    1
    28    23    24   ar
    29    20    14    1
    30    20    24   ar
    31    11    12   ar
    32    29    33   ar
    33    14    13   ar
    34    24    25    1
    35    12    13   ar
    36    12    18    1
    37    13    19    1
    38    32    33   ar
    39    32    35    1
    40    18    17    3
    41    33    34    1
