@<TRIPOS>MOLECULE
mol_data/opt/m06hf/geoms/mol2/13da13da13da-13da-.out
 38 41 0 0 0
SMALL
GASTEIGER

@<TRIPOS>ATOM
      1 C           1.2301   -0.2656    0.1789 C.ar    1  LIG1        0.0197
      2 C           0.8182    1.0314    0.4072 C.ar    1  LIG1        0.0696
      3 C          -0.6005    1.0680    0.2980 C.ar    1  LIG1       -0.0175
      4 C          -0.9986   -0.2137    0.0065 C.ar    1  LIG1        0.0654
      5 N           0.1242   -1.0071   -0.0606 N.ar    1  LIG1       -0.3583
      6 H           0.1328   -1.9816   -0.3299 H       1  LIG1        0.1654
      7 H           2.2201   -0.6864    0.1657 H       1  LIG1        0.0820
      8 N           2.3869    3.0083    0.9581 N.1     1  LIG1       -0.1908
      9 C           1.6902    2.1303    0.7120 C.1     1  LIG1        0.1007
     10 H          -1.2385    1.9259    0.4266 H       1  LIG1        0.0652
     11 C          -2.3283   -0.7717   -0.2094 C.ar    1  LIG1        0.0810
     12 C          -3.4755   -0.2200   -0.7597 C.ar    1  LIG1        0.0790
     13 C          -4.4798   -1.2261   -0.7777 C.ar    1  LIG1       -0.0169
     14 C          -3.9134   -2.3574   -0.2350 C.ar    1  LIG1        0.0659
     15 N          -2.6213   -2.0552    0.1087 N.ar    1  LIG1       -0.3508
     16 H          -1.9954   -2.6887    0.5892 H       1  LIG1        0.1660
     17 N          -3.6903    2.2027   -1.6228 N.1     1  LIG1       -0.1908
     18 C          -3.5914    1.1226   -1.2466 C.1     1  LIG1        0.1013
     19 H          -5.4703   -1.1192   -1.1868 H       1  LIG1        0.0652
     20 C          -4.4358   -3.7027   -0.0312 C.ar    1  LIG1        0.0810
     21 C          -3.7583   -4.9033    0.1382 C.ar    1  LIG1        0.0790
     22 C          -4.7193   -5.9426    0.2785 C.ar    1  LIG1       -0.0169
     23 C          -5.9507   -5.3439    0.1871 C.ar    1  LIG1        0.0659
     24 N          -5.7577   -3.9927    0.0049 N.ar    1  LIG1       -0.3508
     25 H          -6.4944   -3.3216   -0.1576 H       1  LIG1        0.1660
     26 N          -1.1797   -4.9171    0.1930 N.1     1  LIG1       -0.1908
     27 C          -2.3278   -4.9797    0.1637 C.1     1  LIG1        0.1013
     28 H          -4.5273   -6.9914    0.4288 H       1  LIG1        0.0652
     29 C          -7.2895   -5.9256    0.2530 C.ar    1  LIG1        0.0805
     30 C          -7.7846   -7.0821   -0.3187 C.ar    1  LIG1        0.0784
     31 C          -9.1556   -7.2034    0.0524 C.ar    1  LIG1       -0.0263
     32 C          -9.4469   -6.1165    0.8322 C.ar    1  LIG1        0.0035
     33 N          -8.3150   -5.3543    0.9437 N.ar    1  LIG1       -0.3585
     34 H          -8.2178   -4.5484    1.5427 H       1  LIG1        0.1654
     35 H         -10.3625   -5.8272    1.3172 H       1  LIG1        0.0807
     36 N          -6.3932   -8.6804   -1.7942 N.1     1  LIG1       -0.1908
     37 C          -7.0178   -7.9688   -1.1451 C.1     1  LIG1        0.1013
     38 H          -9.8250   -7.9949   -0.2361 H       1  LIG1        0.0645
@<TRIPOS>BOND
     1    36    37    3
     2    17    18    3
     3    18    12    1
     4    19    13    1
     5    37    30    1
     6    13    12   ar
     7    13    14   ar
     8    12    11   ar
     9     6     5    1
    10    30    31   ar
    11    30    29   ar
    12    38    31    1
    13    14    20    1
    14    14    15   ar
    15    11     4    1
    16    11    15   ar
    17    25    24    1
    18     5     4   ar
    19     5     1   ar
    20    20    24   ar
    21    20    21   ar
    22    24    23   ar
    23     4     3   ar
    24    31    32   ar
    25    15    16    1
    26    21    27    1
    27    21    22   ar
    28    27    26    3
    29     7     1    1
    30     1     2   ar
    31    23    29    1
    32    23    22   ar
    33    29    33   ar
    34    22    28    1
    35     3     2   ar
    36     3    10    1
    37     2     9    1
    38     9     8    3
    39    32    33   ar
    40    32    35    1
    41    33    34    1
