@<TRIPOS>MOLECULE
mol_data/opt/m06hf/geoms/mol2/13da13da-4da13da.out
 40 43 0 0 0
SMALL
GASTEIGER

@<TRIPOS>ATOM
      1 C           1.3470   -0.5341    0.3728 C.ar    1  LIG1        0.0197
      2 C           1.0015    0.7993    0.4729 C.ar    1  LIG1        0.0696
      3 C          -0.4061    0.8979    0.2974 C.ar    1  LIG1       -0.0175
      4 C          -0.8638   -0.3861    0.1048 C.ar    1  LIG1        0.0654
      5 N           0.2134   -1.2344    0.1529 N.ar    1  LIG1       -0.3583
      6 H           0.1654   -2.2358    0.0108 H       1  LIG1        0.1654
      7 H           2.3107   -1.0075    0.4428 H       1  LIG1        0.0820
      8 N           2.6503    2.7421    0.8942 N.1     1  LIG1       -0.1908
      9 C           1.9189    1.8779    0.7060 C.1     1  LIG1        0.1007
     10 H          -0.9842    1.8080    0.2890 H       1  LIG1        0.0652
     11 C          -2.2201   -0.8706   -0.1227 C.ar    1  LIG1        0.0809
     12 C          -2.6894   -2.0949   -0.5833 C.ar    1  LIG1        0.0790
     13 C          -4.1044   -2.0251   -0.6450 C.ar    1  LIG1       -0.0183
     14 C          -4.4614   -0.7641   -0.2180 C.ar    1  LIG1        0.0494
     15 N          -3.3024   -0.0936    0.0937 N.ar    1  LIG1       -0.3520
     16 H          -3.2545    0.8522    0.4478 H       1  LIG1        0.1660
     17 N          -1.1006   -4.0489   -1.1410 N.1     1  LIG1       -0.1908
     18 C          -1.8394   -3.1974   -0.9151 C.1     1  LIG1        0.1013
     19 H          -4.7595   -2.8029   -0.9973 H       1  LIG1        0.0652
     20 C          -6.0938    1.1873   -0.1147 C.ar    1  LIG1        0.0615
     21 C          -7.3955    1.6774   -0.0173 C.ar    1  LIG1       -0.0346
     22 C          -5.8135   -0.1903   -0.0935 C.ar    1  LIG1        0.0157
     23 C          -8.4648    0.7914    0.0880 C.ar    1  LIG1        0.0008
     24 H          -7.5629    2.7464   -0.0280 H       1  LIG1        0.0637
     25 C          -6.9025   -1.0602    0.0319 C.ar    1  LIG1       -0.0508
     26 C          -8.2015   -0.5832    0.1041 C.ar    1  LIG1       -0.0519
     27 H          -6.7215   -2.1251    0.0789 H       1  LIG1        0.0625
     28 N          -4.1475    2.9030   -0.2381 N.1     1  LIG1       -0.1908
     29 C          -5.0210    2.1580   -0.2080 C.1     1  LIG1        0.0998
     30 H          -9.0217   -1.2886    0.1565 H       1  LIG1        0.0624
     31 C          -9.8451    1.2992    0.1820 C.ar    1  LIG1        0.0641
     32 C         -10.4541    2.3801   -0.4333 C.ar    1  LIG1        0.0769
     33 C         -11.8157    2.4179   -0.0162 C.ar    1  LIG1       -0.0264
     34 C         -11.9895    1.3632    0.8398 C.ar    1  LIG1        0.0034
     35 N         -10.7983    0.6984    0.9436 N.ar    1  LIG1       -0.3596
     36 H         -10.6199   -0.0772    1.5633 H       1  LIG1        0.1654
     37 H         -12.8589    1.0388    1.3840 H       1  LIG1        0.0807
     38 N          -9.2581    3.9813   -2.0694 N.1     1  LIG1       -0.1908
     39 C          -9.8025    3.2695   -1.3510 C.1     1  LIG1        0.1013
     40 H         -12.5572    3.1341   -0.3243 H       1  LIG1        0.0645
@<TRIPOS>BOND
     1    38    39    3
     2    39    32    1
     3    17    18    3
     4    19    13    1
     5    18    12    1
     6    13    12   ar
     7    13    14   ar
     8    12    11   ar
     9    32    33   ar
    10    32    31   ar
    11    40    33    1
    12    28    29    3
    13    14    22    1
    14    14    15   ar
    15    29    20    1
    16    11    15   ar
    17    11     4    1
    18    20    22   ar
    19    20    21   ar
    20    22    25   ar
    21    24    21    1
    22    21    23   ar
    23    33    34   ar
    24     6     5    1
    25    25    27    1
    26    25    26   ar
    27    23    26   ar
    28    23    31    1
    29    15    16    1
    30    26    30    1
    31     4     5   ar
    32     4     3   ar
    33     5     1   ar
    34    31    35   ar
    35    10     3    1
    36     3     2   ar
    37     1     7    1
    38     1     2   ar
    39     2     9    1
    40     9     8    3
    41    34    35   ar
    42    34    37    1
    43    35    36    1
