@<TRIPOS>MOLECULE
mol_data/opt/m06hf/geoms/mol2/13da12ha12fa-13ie-.out
 41 44 0 0 0
SMALL
GASTEIGER

@<TRIPOS>ATOM
      1 C           1.0954    0.3026   -0.7621 C.ar    1  LIG1        0.0197
      2 C           0.6748    1.4513   -0.1263 C.ar    1  LIG1        0.0697
      3 C          -0.6745    1.2531    0.2931 C.ar    1  LIG1       -0.0159
      4 C          -1.0259   -0.0126   -0.1184 C.ar    1  LIG1        0.0852
      5 N           0.0565   -0.5664   -0.7521 N.ar    1  LIG1       -0.3570
      6 H           0.0537   -1.4949   -1.1467 H       1  LIG1        0.1655
      7 H           2.0460    0.0640   -1.2055 H       1  LIG1        0.0820
      8 N           2.1155    3.5660    0.2325 N.1     1  LIG1       -0.1908
      9 C           1.4781    2.6239    0.0741 C.1     1  LIG1        0.1007
     10 H          -1.2830    1.9361    0.8611 H       1  LIG1        0.0653
     11 C          -2.2775   -0.7370   -0.0088 C.ar    1  LIG1        0.1724
     12 C          -3.5680   -0.3116    0.0957 C.ar    1  LIG1        0.0731
     13 C          -4.3743   -1.5015    0.1528 C.ar    1  LIG1        0.0088
     14 C          -3.5034   -2.5429    0.0557 C.ar    1  LIG1        0.1761
     15 O          -2.2336   -2.1017   -0.0426 O.2     1  LIG1       -0.4482
     16 N          -4.0133    1.0094    0.1725 N.pl3   1  LIG1       -0.3550
     17 H          -3.4082    1.6560   -0.3217 H       1  LIG1        0.1424
     18 H          -4.9744    1.1181   -0.1242 H       1  LIG1        0.1424
     19 H          -5.4439   -1.5758    0.2507 H       1  LIG1        0.0675
     20 C          -3.7269   -3.9717    0.0247 C.ar    1  LIG1        0.2118
     21 C          -4.8743   -4.6958   -0.0786 C.ar    1  LIG1        0.1664
     22 C          -4.5034   -6.0804   -0.0457 C.ar    1  LIG1        0.0280
     23 C          -3.1445   -6.0853    0.0676 C.ar    1  LIG1        0.1558
     24 O          -2.6699   -4.8223    0.1133 O.2     1  LIG1       -0.4464
     25 O          -6.1101   -4.1453   -0.1736 O.3     1  LIG1       -0.5031
     26 H          -6.7719   -4.8309   -0.3053 H       1  LIG1        0.2923
     27 H          -5.1517   -6.9394   -0.0759 H       1  LIG1        0.0693
     28 C          -2.1535   -7.1427    0.1581 C.ar    1  LIG1        0.0864
     29 C          -2.2373   -8.4901   -0.1193 C.ar    1  LIG1       -0.0068
     30 C          -0.9433   -9.0301    0.1601 C.ar    1  LIG1        0.0455
     31 C          -0.1370   -7.9933    0.5890 C.ar    1  LIG1        0.0180
     32 N          -0.8800   -6.8627    0.5822 N.ar    1  LIG1       -0.3569
     33 H          -0.5704   -5.9412    0.8514 H       1  LIG1        0.1655
     34 H           0.8958   -8.0002    0.8892 H       1  LIG1        0.0819
     35 C          -3.4316   -9.2543   -0.6262 C.3     1  LIG1       -0.0364
     36 H          -3.1020  -10.2179   -1.0122 H       1  LIG1        0.0279
     37 H          -3.9269   -8.7019   -1.4271 H       1  LIG1        0.0279
     38 H          -4.1506   -9.4335    0.1763 H       1  LIG1        0.0279
     39 C          -0.5527  -10.4012    0.0073 C.1     1  LIG1       -0.0679
     40 C          -0.2464  -11.5563   -0.1294 C.1     1  LIG1       -0.1139
     41 H           0.0314  -12.5779   -0.2477 H       1  LIG1        0.1232
@<TRIPOS>BOND
     1    37    35    1
     2     7     1    1
     3     6     5    1
     4    36    35    1
     5     1     5   ar
     6     1     2   ar
     7     5     4   ar
     8    35    29    1
     9    35    38    1
    10    17    16    1
    11    26    25    1
    12    41    40    1
    13    25    21    1
    14    40    39    3
    15     2     9    1
    16     2     3   ar
    17    18    16    1
    18    29    28   ar
    19    29    30   ar
    20     4    11    1
    21     4     3   ar
    22    21    22   ar
    23    21    20   ar
    24    27    22    1
    25    22    23   ar
    26    15    11   ar
    27    15    14   ar
    28    11    12   ar
    29    39    30    1
    30    20    14    1
    31    20    24   ar
    32    14    13   ar
    33    23    24   ar
    34    23    28    1
    35     9     8    3
    36    12    13   ar
    37    12    16    1
    38    13    19    1
    39    28    32   ar
    40    30    31   ar
    41     3    10    1
    42    32    31   ar
    43    32    33    1
    44    31    34    1
