@<TRIPOS>MOLECULE
mol_data/opt/m06hf/geoms/mol2/13da13da13da13da-.out
 38 41 0 0 0
SMALL
GASTEIGER

@<TRIPOS>ATOM
      1 C           1.2404   -0.3301   -0.0000 C.ar    1  LIG1        0.0197
      2 C           0.8409    0.9888   -0.0008 C.ar    1  LIG1        0.0696
      3 C          -0.5810    1.0172   -0.0006 C.ar    1  LIG1       -0.0175
      4 C          -0.9999   -0.2938    0.0002 C.ar    1  LIG1        0.0654
      5 N           0.1225   -1.0936    0.0006 N.ar    1  LIG1       -0.3583
      6 H           0.1458   -2.1016    0.0013 H       1  LIG1        0.1654
      7 H           2.2280   -0.7572    0.0001 H       1  LIG1        0.0820
      8 N           2.4461    3.0136   -0.0021 N.1     1  LIG1       -0.1908
      9 C           1.7304    2.1161   -0.0015 C.1     1  LIG1        0.1007
     10 H          -1.2080    1.8927   -0.0011 H       1  LIG1        0.0652
     11 C          -2.3564   -0.8336    0.0007 C.ar    1  LIG1        0.0810
     12 C          -3.5815   -0.1813    0.0011 C.ar    1  LIG1        0.0790
     13 C          -4.6116   -1.1606    0.0015 C.ar    1  LIG1       -0.0169
     14 C          -3.9886   -2.3844    0.0015 C.ar    1  LIG1        0.0659
     15 N          -2.6277   -2.1644    0.0010 N.ar    1  LIG1       -0.3508
     16 H          -1.9245   -2.8864    0.0004 H       1  LIG1        0.1660
     17 N          -3.8833    2.3816    0.0009 N.1     1  LIG1       -0.1908
     18 C          -3.7573    1.2403    0.0010 C.1     1  LIG1        0.1013
     19 H          -5.6736   -0.9785    0.0019 H       1  LIG1        0.0652
     20 C          -4.5263   -3.7377    0.0019 C.ar    1  LIG1        0.0810
     21 C          -5.8270   -4.2236    0.0013 C.ar    1  LIG1        0.0790
     22 C          -5.7659   -5.6448    0.0020 C.ar    1  LIG1       -0.0169
     23 C          -4.4307   -5.9820    0.0031 C.ar    1  LIG1        0.0659
     24 N          -3.7121   -4.8167    0.0031 N.ar    1  LIG1       -0.3508
     25 H          -2.7035   -4.7947    0.0042 H       1  LIG1        0.1660
     26 N          -7.9351   -2.7362   -0.0009 N.1     1  LIG1       -0.1908
     27 C          -7.0044   -3.4090    0.0000 C.1     1  LIG1        0.1013
     28 H          -6.6151   -6.3068    0.0016 H       1  LIG1        0.0652
     29 C          -3.7257   -7.2597    0.0041 C.ar    1  LIG1        0.0805
     30 C          -2.3601   -7.5285    0.0045 C.ar    1  LIG1        0.0784
     31 C          -2.1857   -8.9441    0.0055 C.ar    1  LIG1       -0.0263
     32 C          -3.4414   -9.4846    0.0057 C.ar    1  LIG1        0.0035
     33 N          -4.3520   -8.4593    0.0049 N.ar    1  LIG1       -0.3585
     34 H          -5.3539   -8.5743    0.0049 H       1  LIG1        0.1654
     35 H          -3.7598  -10.5119    0.0064 H       1  LIG1        0.0807
     36 N          -0.6663   -5.5831    0.0034 N.1     1  LIG1       -0.1908
     37 C          -1.3637   -6.5000    0.0038 C.1     1  LIG1        0.1013
     38 H          -1.2499   -9.4749    0.0059 H       1  LIG1        0.0645
@<TRIPOS>BOND
     1     8     9    3
     2     9     2    1
     3    10     3    1
     4    26    27    3
     5     2     3   ar
     6     2     1   ar
     7     3     4   ar
     8     1     7    1
     9     1     5   ar
    10    27    21    1
    11     4     5   ar
    12     4    11    1
    13    16    15    1
    14     5     6    1
    15    11    15   ar
    16    11    12   ar
    17    17    18    3
    18    18    12    1
    19    15    14   ar
    20    12    13   ar
    21    21    20   ar
    22    21    22   ar
    23    13    14   ar
    24    13    19    1
    25    14    20    1
    26    28    22    1
    27    20    24   ar
    28    22    23   ar
    29    24    23   ar
    30    24    25    1
    31    23    29    1
    32    36    37    3
    33    37    30    1
    34    29    30   ar
    35    29    33   ar
    36    30    31   ar
    37    33    34    1
    38    33    32   ar
    39    31    32   ar
    40    31    38    1
    41    32    35    1
