@<TRIPOS>MOLECULE
mol_data/opt/m06hf/geoms/mol2/13da13da13da-13da.out
 38 41 0 0 0
SMALL
GASTEIGER

@<TRIPOS>ATOM
      1 C           1.2588   -0.2601   -0.0013 C.ar    1  LIG1        0.0197
      2 C           0.8538    1.0577   -0.0007 C.ar    1  LIG1        0.0696
      3 C          -0.5684    1.0797   -0.0004 C.ar    1  LIG1       -0.0175
      4 C          -0.9805   -0.2331   -0.0001 C.ar    1  LIG1        0.0654
      5 N           0.1447   -1.0280   -0.0007 N.ar    1  LIG1       -0.3583
      6 H           0.1675   -2.0370   -0.0009 H       1  LIG1        0.1654
      7 H           2.2480   -0.6830   -0.0019 H       1  LIG1        0.0820
      8 N           2.4447    3.0929   -0.0009 N.1     1  LIG1       -0.1908
      9 C           1.7366    2.1898   -0.0008 C.1     1  LIG1        0.1007
     10 H          -1.1977    1.9538   -0.0000 H       1  LIG1        0.0652
     11 C          -2.3281   -0.7926    0.0005 C.ar    1  LIG1        0.0810
     12 C          -3.5692   -0.1670    0.0005 C.ar    1  LIG1        0.0790
     13 C          -4.5725   -1.1726    0.0012 C.ar    1  LIG1       -0.0169
     14 C          -3.9138   -2.3806    0.0017 C.ar    1  LIG1        0.0659
     15 N          -2.5656   -2.1251    0.0012 N.ar    1  LIG1       -0.3508
     16 H          -1.8637   -2.8523    0.0016 H       1  LIG1        0.1660
     17 N          -3.9196    2.3898   -0.0006 N.1     1  LIG1       -0.1908
     18 C          -3.7749    1.2504   -0.0001 C.1     1  LIG1        0.1013
     19 H          -5.6373   -1.0033    0.0013 H       1  LIG1        0.0652
     20 C          -4.4150   -3.7483    0.0024 C.ar    1  LIG1        0.0810
     21 C          -3.7342   -4.9620    0.0027 C.ar    1  LIG1        0.0790
     22 C          -4.6958   -6.0080    0.0034 C.ar    1  LIG1       -0.0169
     23 C          -5.9304   -5.4006    0.0036 C.ar    1  LIG1        0.0659
     24 N          -5.7325   -4.0420    0.0031 N.ar    1  LIG1       -0.3508
     25 H          -6.4777   -3.3543    0.0031 H       1  LIG1        0.1660
     26 N          -1.1572   -5.0082    0.0020 N.1     1  LIG1       -0.1908
     27 C          -2.3070   -5.0563    0.0023 C.1     1  LIG1        0.1013
     28 H          -4.4773   -7.0620    0.0038 H       1  LIG1        0.0652
     29 C          -7.2735   -5.9725    0.0043 C.ar    1  LIG1        0.0805
     30 C          -8.5174   -5.3586    0.0051 C.ar    1  LIG1        0.0784
     31 C          -9.5156   -6.3758    0.0051 C.ar    1  LIG1       -0.0263
     32 C          -8.8477   -7.5693    0.0051 C.ar    1  LIG1        0.0035
     33 N          -7.5027   -7.3090    0.0044 N.ar    1  LIG1       -0.3585
     34 H          -6.7793   -8.0115    0.0039 H       1  LIG1        0.1654
     35 H          -9.2188   -8.5786    0.0053 H       1  LIG1        0.0807
     36 N          -8.7378   -2.7880    0.0052 N.1     1  LIG1       -0.1908
     37 C          -8.6928   -3.9374    0.0053 C.1     1  LIG1        0.1013
     38 H         -10.5807   -6.2256    0.0055 H       1  LIG1        0.0645
@<TRIPOS>BOND
     1     7     1    1
     2     1     5   ar
     3     1     2   ar
     4     6     5    1
     5     8     9    3
     6     9     2    1
     7     5     4   ar
     8     2     3   ar
     9    17    18    3
    10     3     4   ar
    11     3    10    1
    12     4    11    1
    13    18    12    1
    14    11    12   ar
    15    11    15   ar
    16    12    13   ar
    17    13    19    1
    18    13    14   ar
    19    15    16    1
    20    15    14   ar
    21    14    20    1
    22    26    27    3
    23    27    21    1
    24    20    21   ar
    25    20    24   ar
    26    21    22   ar
    27    24    25    1
    28    24    23   ar
    29    22    23   ar
    30    22    28    1
    31    23    29    1
    32    34    33    1
    33    29    33   ar
    34    29    30   ar
    35    33    32   ar
    36    30    31   ar
    37    30    37    1
    38    31    32   ar
    39    31    38    1
    40    32    35    1
    41    36    37    3
