@<TRIPOS>MOLECULE
mol_data/opt/m06hf/geoms/mol2/13da13da-13da.out
 29 31 0 0 0
SMALL
GASTEIGER

@<TRIPOS>ATOM
      1 C           1.2084   -0.3023   -0.0008 C.ar    1  LIG1        0.0197
      2 C           0.7828    1.0111   -0.0003 C.ar    1  LIG1        0.0696
      3 C          -0.6387    1.0075    0.0000 C.ar    1  LIG1       -0.0175
      4 C          -1.0242   -0.3147    0.0001 C.ar    1  LIG1        0.0654
      5 N           0.1097   -1.0874   -0.0003 N.ar    1  LIG1       -0.3583
      6 H           0.1171   -2.1000   -0.0004 H       1  LIG1        0.1654
      7 H           2.2045   -0.7085   -0.0012 H       1  LIG1        0.0820
      8 N           2.3223    3.0848   -0.0004 N.1     1  LIG1       -0.1908
      9 C           1.6400    2.1620   -0.0003 C.1     1  LIG1        0.1007
     10 H          -1.2730    1.8796    0.0003 H       1  LIG1        0.0652
     11 C          -2.3604   -0.8988    0.0005 C.ar    1  LIG1        0.0810
     12 C          -2.7853   -2.2217    0.0005 C.ar    1  LIG1        0.0790
     13 C          -4.2064   -2.2292    0.0009 C.ar    1  LIG1       -0.0169
     14 C          -4.6029   -0.9121    0.0014 C.ar    1  LIG1        0.0659
     15 N          -3.4735   -0.1327    0.0011 N.ar    1  LIG1       -0.3508
     16 H          -3.4743    0.8808    0.0013 H       1  LIG1        0.1660
     17 N          -1.1353   -4.2047   -0.0004 N.1     1  LIG1       -0.1908
     18 C          -1.9001   -3.3460    0.0001 C.1     1  LIG1        0.1013
     19 H          -4.8292   -3.1075    0.0010 H       1  LIG1        0.0652
     20 C          -5.9366   -0.3184    0.0020 C.ar    1  LIG1        0.0805
     21 C          -6.3358    1.0102    0.0027 C.ar    1  LIG1        0.0784
     22 C          -7.7609    1.0467    0.0028 C.ar    1  LIG1       -0.0263
     23 C          -8.1788   -0.2556    0.0028 C.ar    1  LIG1        0.0035
     24 N          -7.0707   -1.0616    0.0021 N.ar    1  LIG1       -0.3585
     25 H          -7.0920   -2.0697    0.0017 H       1  LIG1        0.1654
     26 H          -9.1693   -0.6746    0.0030 H       1  LIG1        0.0807
     27 N          -4.6083    2.9256    0.0029 N.1     1  LIG1       -0.1908
     28 C          -5.4178    2.1084    0.0029 C.1     1  LIG1        0.1013
     29 H          -8.3756    1.9295    0.0031 H       1  LIG1        0.0645
@<TRIPOS>BOND
     1     7     1    1
     2     1     5   ar
     3     1     2   ar
     4     8     9    3
     5     6     5    1
     6    17    18    3
     7     5     4   ar
     8     9     2    1
     9     2     3   ar
    10     3     4   ar
    11     3    10    1
    12    18    12    1
    13     4    11    1
    14    11    12   ar
    15    11    15   ar
    16    12    13   ar
    17    13    19    1
    18    13    14   ar
    19    15    16    1
    20    15    14   ar
    21    14    20    1
    22    25    24    1
    23    20    24   ar
    24    20    21   ar
    25    24    23   ar
    26    21    22   ar
    27    21    28    1
    28    23    22   ar
    29    23    26    1
    30    22    29    1
    31    28    27    3
