@<TRIPOS>MOLECULE
mol_data/opt/m06hf/geoms/mol2/13da13da13da13da.out
 38 41 0 0 0
SMALL
GASTEIGER

@<TRIPOS>ATOM
      1 C           0.4609    0.5912   -1.7679 C.ar    1  LIG1        0.0197
      2 C           0.7959    1.0851   -0.5246 C.ar    1  LIG1        0.0696
      3 C          -0.2029    0.6621    0.3991 C.ar    1  LIG1       -0.0175
      4 C          -1.1079   -0.0776   -0.3190 C.ar    1  LIG1        0.0654
      5 N          -0.6875   -0.1122   -1.6289 N.ar    1  LIG1       -0.3583
      6 H          -1.2249   -0.4975   -2.3913 H       1  LIG1        0.1654
      7 H           0.9565    0.7061   -2.7158 H       1  LIG1        0.0820
      8 N           2.9074    2.4793   -0.0028 N.1     1  LIG1       -0.1908
      9 C           1.9665    1.8650   -0.2362 C.1     1  LIG1        0.1007
     10 H          -0.2429    0.8717    1.4544 H       1  LIG1        0.0652
     11 C          -2.3262   -0.7627    0.1144 C.ar    1  LIG1        0.0810
     12 C          -3.4011   -0.3019    0.8549 C.ar    1  LIG1        0.0790
     13 C          -4.3333   -1.3676    0.9903 C.ar    1  LIG1       -0.0169
     14 C          -3.7969   -2.4443    0.3285 C.ar    1  LIG1        0.0659
     15 N          -2.5850   -2.0611   -0.1933 N.ar    1  LIG1       -0.3508
     16 H          -1.9723   -2.6559   -0.7318 H       1  LIG1        0.1660
     17 N          -3.6015    2.0883    1.8108 N.1     1  LIG1       -0.1908
     18 C          -3.5160    1.0288    1.3787 C.1     1  LIG1        0.1013
     19 H          -5.2786   -1.3423    1.5050 H       1  LIG1        0.0652
     20 C          -4.3214   -3.7985    0.1369 C.ar    1  LIG1        0.0810
     21 C          -5.5206   -4.2216   -0.4079 C.ar    1  LIG1        0.0790
     22 C          -5.5393   -5.6435   -0.3839 C.ar    1  LIG1       -0.0169
     23 C          -4.3485   -6.0418    0.1732 C.ar    1  LIG1        0.0659
     24 N          -3.6260   -4.9154    0.4811 N.ar    1  LIG1       -0.3508
     25 H          -2.7074   -4.9154    0.8994 H       1  LIG1        0.1660
     26 N          -7.3501   -2.6287   -1.2940 N.1     1  LIG1       -0.1908
     27 C          -6.5374   -3.3391   -0.9045 C.1     1  LIG1        0.1013
     28 H          -6.3263   -6.2897   -0.7334 H       1  LIG1        0.0652
     29 C          -3.8267   -7.3856    0.4311 C.ar    1  LIG1        0.0805
     30 C          -3.7165   -8.4737   -0.4130 C.ar    1  LIG1        0.0784
     31 C          -3.1444   -9.5484    0.3279 C.ar    1  LIG1       -0.0263
     32 C          -2.9231   -9.0755    1.5941 C.ar    1  LIG1        0.0035
     33 N          -3.3351   -7.7714    1.6413 N.ar    1  LIG1       -0.3585
     34 H          -3.3801   -7.2066    2.4758 H       1  LIG1        0.1654
     35 H          -2.5140   -9.5617    2.4619 H       1  LIG1        0.0807
     36 N          -4.4157   -8.4676   -2.8992 N.1     1  LIG1       -0.1908
     37 C          -4.1027   -8.4701   -1.7949 C.1     1  LIG1        0.1013
     38 H          -2.9260  -10.5338   -0.0446 H       1  LIG1        0.0645
@<TRIPOS>BOND
     1    36    37    3
     2     7     1    1
     3     6     5    1
     4    37    30    1
     5     1     5   ar
     6     1     2   ar
     7     5     4   ar
     8    26    27    3
     9    27    21    1
    10    28    22    1
    11    16    15    1
    12     2     9    1
    13     2     3   ar
    14    30    31   ar
    15    30    29   ar
    16    21    22   ar
    17    21    20   ar
    18    22    23   ar
    19     4    11    1
    20     4     3   ar
    21     9     8    3
    22    15    11   ar
    23    15    14   ar
    24    38    31    1
    25    11    12   ar
    26    20    14    1
    27    20    24   ar
    28    23    29    1
    29    23    24   ar
    30    31    32   ar
    31    14    13   ar
    32     3    10    1
    33    29    33   ar
    34    24    25    1
    35    12    13   ar
    36    12    18    1
    37    13    19    1
    38    18    17    3
    39    32    33   ar
    40    32    35    1
    41    33    34    1
