@<TRIPOS>MOLECULE
mol_data/opt/m06hf/geoms/mol2/13da4ei12ad13lf-.out
 47 50 0 0 0
SMALL
GASTEIGER

@<TRIPOS>ATOM
      1 C           1.4732   -0.0116   -0.4674 C.ar    1  LIG1        0.0196
      2 C           1.1219    1.2585   -0.0595 C.ar    1  LIG1        0.0696
      3 C          -0.2821    1.2688    0.1794 C.ar    1  LIG1       -0.0190
      4 C          -0.7382   -0.0004   -0.0855 C.ar    1  LIG1        0.0489
      5 N           0.3449   -0.7571   -0.4701 N.ar    1  LIG1       -0.3594
      6 H           0.2800   -1.7095   -0.7950 H       1  LIG1        0.1654
      7 H           2.4302   -0.4090   -0.7563 H       1  LIG1        0.0820
      8 N           2.7633    3.2348    0.2123 N.1     1  LIG1       -0.1908
      9 C           2.0339    2.3566    0.0914 C.1     1  LIG1        0.1007
     10 H          -0.8713    2.1023    0.5198 H       1  LIG1        0.0652
     11 C          -3.2417    0.0821   -0.3535 C.ar    1  LIG1        0.0345
     12 C          -4.4764   -0.5609   -0.2634 C.ar    1  LIG1       -0.0348
     13 C          -2.0775   -0.6094    0.0182 C.ar    1  LIG1        0.0140
     14 C          -4.5812   -1.8720    0.1978 C.ar    1  LIG1        0.0214
     15 H          -5.3625   -0.0334   -0.5901 H       1  LIG1        0.0637
     16 C          -2.2023   -1.9191    0.4905 C.ar    1  LIG1       -0.0479
     17 C          -3.4271   -2.5721    0.5891 C.ar    1  LIG1       -0.0391
     18 H          -1.3125   -2.4339    0.8354 H       1  LIG1        0.0627
     19 C          -3.2043    1.4324   -0.8624 C.1     1  LIG1       -0.0690
     20 C          -3.2176    2.5552   -1.2899 C.1     1  LIG1       -0.1139
     21 H          -3.2197    3.5501   -1.6721 H       1  LIG1        0.1232
     22 C          -3.4792   -3.9881    1.1341 C.3     1  LIG1       -0.0390
     23 H          -2.5436   -4.2226    1.6398 H       1  LIG1        0.0278
     24 H          -3.6280   -4.6978    0.3182 H       1  LIG1        0.0278
     25 H          -4.3018   -4.0969    1.8417 H       1  LIG1        0.0278
     26 C          -5.9280   -2.4633    0.2775 C.ar    1  LIG1        0.1373
     27 C          -7.1404   -1.9238    0.5596 C.ar    1  LIG1        0.0023
     28 C          -8.0916   -2.9969    0.4458 C.ar    1  LIG1        0.0996
     29 C          -7.3791   -4.1114    0.0958 C.ar    1  LIG1        0.1727
     30 O          -6.0761   -3.7880   -0.0051 O.2     1  LIG1       -0.4519
     31 H          -7.3519   -0.9075    0.8441 H       1  LIG1        0.0668
     32 N         -10.6001   -2.8192    1.0201 N.1     1  LIG1       -0.1907
     33 C          -9.4913   -2.9237    0.7418 C.1     1  LIG1        0.1030
     34 C          -7.7304   -5.4921   -0.1510 C.ar    1  LIG1        0.1293
     35 C          -8.9318   -6.0450   -0.5474 C.ar    1  LIG1        0.1897
     36 C          -8.7213   -7.4464   -0.6640 C.ar    1  LIG1        0.1769
     37 C          -7.4045   -7.6951   -0.3479 C.ar    1  LIG1        0.0480
     38 N          -6.8127   -6.5011   -0.0526 N.ar    1  LIG1       -0.3522
     39 H          -5.8520   -6.3656    0.2148 H       1  LIG1        0.1656
     40 H          -6.8600   -8.6230   -0.3173 H       1  LIG1        0.0845
     41 O         -10.0512   -5.3419   -0.8289 O.3     1  LIG1       -0.4894
     42 C         -11.2040   -5.7287   -0.0727 C.3     1  LIG1        0.0791
     43 H         -11.9959   -5.0483   -0.3719 H       1  LIG1        0.0660
     44 H         -11.4673   -6.7608   -0.3042 H       1  LIG1        0.0660
     45 H         -11.0008   -5.6093    0.9925 H       1  LIG1        0.0660
     46 O          -9.7058   -8.3156   -1.0348 O.3     1  LIG1       -0.5023
     47 H          -9.3424   -9.1952   -1.1778 H       1  LIG1        0.2923
@<TRIPOS>BOND
     1    21    20    1
     2    20    19    3
     3    47    46    1
     4    46    36    1
     5    19    11    1
     6    41    35    1
     7    41    42    1
     8     6     5    1
     9     7     1    1
    10    36    35   ar
    11    36    37   ar
    12    15    12    1
    13    35    34   ar
    14     5     1   ar
    15     5     4   ar
    16     1     2   ar
    17    43    42    1
    18    11    12   ar
    19    11    13   ar
    20    37    40    1
    21    37    38   ar
    22    44    42    1
    23    12    14   ar
    24    34    38   ar
    25    34    29    1
    26     4    13    1
    27     4     3   ar
    28    42    45    1
    29     2     9    1
    30     2     3   ar
    31    38    39    1
    32    30    29   ar
    33    30    26   ar
    34    13    16   ar
    35     9     8    3
    36    29    28   ar
    37     3    10    1
    38    14    26    1
    39    14    17   ar
    40    26    27   ar
    41    24    22    1
    42    28    27   ar
    43    28    33    1
    44    16    17   ar
    45    16    18    1
    46    27    31    1
    47    17    22    1
    48    33    32    3
    49    22    23    1
    50    22    25    1
