@<TRIPOS>MOLECULE
mol_data/opt/m06hf/geoms/mol2/13da13da-13da13da-.out
 38 41 0 0 0
SMALL
GASTEIGER

@<TRIPOS>ATOM
      1 C           1.2740   -0.3152   -0.0014 C.ar    1  LIG1        0.0197
      2 C           0.8608    1.0029   -0.0009 C.ar    1  LIG1        0.0696
      3 C          -0.5602    1.0121   -0.0002 C.ar    1  LIG1       -0.0175
      4 C          -0.9580   -0.3067   -0.0001 C.ar    1  LIG1        0.0654
      5 N           0.1690   -1.0897   -0.0008 N.ar    1  LIG1       -0.3583
      6 H           0.1666   -2.1024   -0.0009 H       1  LIG1        0.1654
      7 H           2.2672   -0.7286   -0.0020 H       1  LIG1        0.0820
      8 N           2.4299    3.0543   -0.0014 N.1     1  LIG1       -0.1908
      9 C           1.7321    2.1430   -0.0012 C.1     1  LIG1        0.1007
     10 H          -1.1863    1.8897    0.0002 H       1  LIG1        0.0652
     11 C          -2.2997   -0.8781    0.0006 C.ar    1  LIG1        0.0810
     12 C          -2.7360   -2.1982    0.0007 C.ar    1  LIG1        0.0790
     13 C          -4.1560   -2.1967    0.0015 C.ar    1  LIG1       -0.0169
     14 C          -4.5397   -0.8748    0.0019 C.ar    1  LIG1        0.0659
     15 N          -3.4052   -0.1023    0.0013 N.ar    1  LIG1       -0.3508
     16 H          -3.3951    0.9103    0.0014 H       1  LIG1        0.1660
     17 N          -1.0795   -4.1747   -0.0003 N.1     1  LIG1       -0.1908
     18 C          -1.8538   -3.3245    0.0002 C.1     1  LIG1        0.1013
     19 H          -4.7909   -3.0681    0.0018 H       1  LIG1        0.0652
     20 C          -5.8708   -0.2822    0.0027 C.ar    1  LIG1        0.0810
     21 C          -6.2793    1.0463    0.0032 C.ar    1  LIG1        0.0790
     22 C          -7.6996    1.0706    0.0039 C.ar    1  LIG1       -0.0169
     23 C          -8.1118   -0.2426    0.0039 C.ar    1  LIG1        0.0659
     24 N          -6.9921   -1.0353    0.0031 N.ar    1  LIG1       -0.3508
     25 H          -7.0074   -2.0484    0.0030 H       1  LIG1        0.1660
     26 N          -4.5694    2.9763    0.0026 N.1     1  LIG1       -0.1908
     27 C          -5.3713    2.1518    0.0029 C.1     1  LIG1        0.1013
     28 H          -8.3122    1.9558    0.0045 H       1  LIG1        0.0652
     29 C          -9.4517   -0.8220    0.0045 C.ar    1  LIG1        0.0805
     30 C          -9.8636   -2.1469    0.0049 C.ar    1  LIG1        0.0784
     31 C         -11.2884   -2.1700    0.0054 C.ar    1  LIG1       -0.0263
     32 C         -11.6937   -0.8635    0.0054 C.ar    1  LIG1        0.0035
     33 N         -10.5784   -0.0679    0.0048 N.ar    1  LIG1       -0.3585
     34 H         -10.5882    0.9403    0.0046 H       1  LIG1        0.1654
     35 H         -12.6814   -0.4377    0.0057 H       1  LIG1        0.0807
     36 N          -8.1525   -4.0773    0.0044 N.1     1  LIG1       -0.1908
     37 C          -8.9553   -3.2532    0.0047 C.1     1  LIG1        0.1013
     38 H         -11.9130   -3.0458    0.0057 H       1  LIG1        0.0645
@<TRIPOS>BOND
     1     7     1    1
     2     8     9    3
     3     1     2   ar
     4     1     5   ar
     5     9     2    1
     6     2     3   ar
     7     6     5    1
     8     5     4   ar
     9    17    18    3
    10     3     4   ar
    11     3    10    1
    12     4    11    1
    13    18    12    1
    14    11    12   ar
    15    11    15   ar
    16    12    13   ar
    17    15    16    1
    18    15    14   ar
    19    13    19    1
    20    13    14   ar
    21    14    20    1
    22    26    27    3
    23    20    24   ar
    24    20    21   ar
    25    27    21    1
    26    25    24    1
    27    24    23   ar
    28    21    22   ar
    29    23    22   ar
    30    23    29    1
    31    22    28    1
    32    36    37    3
    33    29    33   ar
    34    29    30   ar
    35    34    33    1
    36    37    30    1
    37    33    32   ar
    38    30    31   ar
    39    31    32   ar
    40    31    38    1
    41    32    35    1
