@<TRIPOS>MOLECULE
mol_data/opt/m06hf/geoms/mol2/13da13da13da.out
 29 31 0 0 0
SMALL
GASTEIGER

@<TRIPOS>ATOM
      1 C           1.2092   -0.0954    0.1223 C.ar    1  LIG1        0.0197
      2 C           0.7284    1.0456   -0.4839 C.ar    1  LIG1        0.0696
      3 C          -0.6924    0.9518   -0.5333 C.ar    1  LIG1       -0.0175
      4 C          -1.0232   -0.2475    0.0459 C.ar    1  LIG1        0.0654
      5 N           0.1422   -0.8691    0.4330 N.ar    1  LIG1       -0.3583
      6 H           0.1823   -1.7181    0.9756 H       1  LIG1        0.1654
      7 H           2.2198   -0.3872    0.3488 H       1  LIG1        0.0820
      8 N           2.1995    2.9635   -1.3959 N.1     1  LIG1       -0.1908
      9 C           1.5447    2.1141   -0.9875 C.1     1  LIG1        0.1007
     10 H          -1.3767    1.6703   -0.9511 H       1  LIG1        0.0652
     11 C          -2.3292   -0.8679    0.2608 C.ar    1  LIG1        0.0810
     12 C          -3.5141   -0.3262    0.7226 C.ar    1  LIG1        0.0790
     13 C          -4.5005   -1.3533    0.7221 C.ar    1  LIG1       -0.0169
     14 C          -3.8832   -2.4894    0.2642 C.ar    1  LIG1        0.0659
     15 N          -2.5681   -2.1829   -0.0042 N.ar    1  LIG1       -0.3508
     16 H          -1.9457   -2.7699   -0.5407 H       1  LIG1        0.1660
     17 N          -3.8033    2.1182    1.5049 N.1     1  LIG1       -0.1908
     18 C          -3.6732    1.0319    1.1578 C.1     1  LIG1        0.1013
     19 H          -5.5272   -1.2661    1.0350 H       1  LIG1        0.0652
     20 C          -4.4182   -3.8311    0.0427 C.ar    1  LIG1        0.0805
     21 C          -5.6156   -4.2313   -0.5192 C.ar    1  LIG1        0.0784
     22 C          -5.6549   -5.6567   -0.4998 C.ar    1  LIG1       -0.0263
     23 C          -4.4814   -6.0733    0.0680 C.ar    1  LIG1        0.0035
     24 N          -3.7446   -4.9637    0.3873 N.ar    1  LIG1       -0.3585
     25 H          -2.8799   -4.9705    0.9059 H       1  LIG1        0.1654
     26 H          -4.1154   -7.0638    0.2729 H       1  LIG1        0.0807
     27 N          -7.4232   -2.6260   -1.4275 N.1     1  LIG1       -0.1908
     28 C          -6.6154   -3.3388   -1.0308 C.1     1  LIG1        0.1013
     29 H          -6.4533   -6.2756   -0.8701 H       1  LIG1        0.0645
@<TRIPOS>BOND
     1    27    28    3
     2     8     9    3
     3    28    21    1
     4     9     2    1
     5    10     3    1
     6    29    22    1
     7    16    15    1
     8     3     2   ar
     9     3     4   ar
    10    21    22   ar
    11    21    20   ar
    12    22    23   ar
    13     2     1   ar
    14    15    11   ar
    15    15    14   ar
    16    20    14    1
    17    20    24   ar
    18     4    11    1
    19     4     5   ar
    20    23    26    1
    21    23    24   ar
    22     1     7    1
    23     1     5   ar
    24    11    12   ar
    25    14    13   ar
    26    24    25    1
    27     5     6    1
    28    13    12   ar
    29    13    19    1
    30    12    18    1
    31    18    17    3
