@<TRIPOS>MOLECULE
mol_data/opt/m06hf/geoms/mol2/13da13da-13da-13da.out
 38 41 0 0 0
SMALL
GASTEIGER

@<TRIPOS>ATOM
      1 C           1.2412   -0.2877   -0.0010 C.ar    1  LIG1        0.0197
      2 C           0.8140    1.0255   -0.0004 C.ar    1  LIG1        0.0696
      3 C          -0.6074    1.0189    0.0002 C.ar    1  LIG1       -0.0175
      4 C          -0.9919   -0.3041    0.0001 C.ar    1  LIG1        0.0654
      5 N           0.1438   -1.0740   -0.0006 N.ar    1  LIG1       -0.3583
      6 H           0.1542   -2.0867   -0.0009 H       1  LIG1        0.1654
      7 H           2.2378   -0.6936   -0.0016 H       1  LIG1        0.0820
      8 N           2.3473    3.1040   -0.0005 N.1     1  LIG1       -0.1908
      9 C           1.6682    2.1787   -0.0004 C.1     1  LIG1        0.1007
     10 H          -1.2392    1.8926    0.0008 H       1  LIG1        0.0652
     11 C          -2.3258   -0.8947    0.0007 C.ar    1  LIG1        0.0810
     12 C          -2.7439   -2.2188    0.0009 C.ar    1  LIG1        0.0790
     13 C          -4.1649   -2.2411    0.0015 C.ar    1  LIG1       -0.0169
     14 C          -4.5721   -0.9286    0.0015 C.ar    1  LIG1        0.0659
     15 N          -3.4464   -0.1342    0.0010 N.ar    1  LIG1       -0.3508
     16 H          -3.4264    0.8758    0.0005 H       1  LIG1        0.1660
     17 N          -1.0591   -4.1723    0.0005 N.1     1  LIG1       -0.1908
     18 C          -1.8443   -3.3326    0.0007 C.1     1  LIG1        0.1013
     19 H          -4.7981   -3.1125    0.0018 H       1  LIG1        0.0652
     20 C          -5.9132   -0.3587    0.0020 C.ar    1  LIG1        0.0810
     21 C          -7.1625   -0.9645    0.0014 C.ar    1  LIG1        0.0790
     22 C          -8.1479    0.0597    0.0024 C.ar    1  LIG1       -0.0169
     23 C          -7.4708    1.2581    0.0036 C.ar    1  LIG1        0.0659
     24 N          -6.1296    0.9766    0.0035 N.ar    1  LIG1       -0.3508
     25 H          -5.4168    1.6928    0.0046 H       1  LIG1        0.1660
     26 N          -7.5536   -3.5145   -0.0012 N.1     1  LIG1       -0.1908
     27 C          -7.3909   -2.3777   -0.0001 C.1     1  LIG1        0.1013
     28 H          -9.2129   -0.0977    0.0021 H       1  LIG1        0.0652
     29 C          -7.9314    2.6429    0.0050 C.ar    1  LIG1        0.0805
     30 C          -7.2087    3.8300    0.0056 C.ar    1  LIG1        0.0784
     31 C          -8.1342    4.9146    0.0069 C.ar    1  LIG1       -0.0263
     32 C          -9.3814    4.3535    0.0072 C.ar    1  LIG1        0.0035
     33 N          -9.2406    2.9900    0.0060 N.ar    1  LIG1       -0.3585
     34 H         -10.0021    2.3291    0.0060 H       1  LIG1        0.1654
     35 H         -10.3539    4.8127    0.0082 H       1  LIG1        0.0807
     36 N          -4.6307    3.7629    0.0038 N.1     1  LIG1       -0.1908
     37 C          -5.7774    3.8663    0.0047 C.1     1  LIG1        0.1013
     38 H          -7.8928    5.9630    0.0075 H       1  LIG1        0.0645
@<TRIPOS>BOND
     1     7     1    1
     2    26    27    3
     3     1     5   ar
     4     1     2   ar
     5     6     5    1
     6     5     4   ar
     7     8     9    3
     8     9     2    1
     9     2     3   ar
    10    27    21    1
    11     4     3   ar
    12     4    11    1
    13     3    10    1
    14    17    18    3
    15    16    15    1
    16    11    12   ar
    17    11    15   ar
    18    18    12    1
    19    12    13   ar
    20    15    14   ar
    21    21    20   ar
    22    21    22   ar
    23    13    14   ar
    24    13    19    1
    25    14    20    1
    26    20    24   ar
    27    28    22    1
    28    22    23   ar
    29    24    23   ar
    30    24    25    1
    31    23    29    1
    32    36    37    3
    33    37    30    1
    34    29    30   ar
    35    29    33   ar
    36    30    31   ar
    37    34    33    1
    38    33    32   ar
    39    31    32   ar
    40    31    38    1
    41    32    35    1
