@<TRIPOS>MOLECULE
mol_data/opt/m06hf/geoms/mol2/13da13da-.out
 20 21 0 0 0
SMALL
GASTEIGER

@<TRIPOS>ATOM
      1 C           1.1530   -0.3232   -0.0004 C.ar    1  LIG1        0.0197
      2 C           0.7552    0.9985   -0.0000 C.ar    1  LIG1        0.0696
      3 C          -0.6666    1.0220    0.0001 C.ar    1  LIG1       -0.0175
      4 C          -1.0820   -0.2905    0.0001 C.ar    1  LIG1        0.0654
      5 N           0.0372   -1.0841   -0.0001 N.ar    1  LIG1       -0.3583
      6 H           0.0236   -2.0970   -0.0001 H       1  LIG1        0.1654
      7 H           2.1400   -0.7508   -0.0006 H       1  LIG1        0.0820
      8 N           2.3244    3.0505    0.0000 N.1     1  LIG1       -0.1908
      9 C           1.6311    2.1352   -0.0000 C.1     1  LIG1        0.1007
     10 H          -1.2777    1.9089    0.0002 H       1  LIG1        0.0652
     11 C          -2.4285   -0.8561    0.0004 C.ar    1  LIG1        0.0805
     12 C          -2.8663   -2.1722    0.0004 C.ar    1  LIG1        0.0784
     13 C          -4.2927   -2.1679    0.0005 C.ar    1  LIG1       -0.0263
     14 C          -4.6728   -0.8543    0.0009 C.ar    1  LIG1        0.0035
     15 N          -3.5415   -0.0810    0.0007 N.ar    1  LIG1       -0.3585
     16 H          -3.5310    0.9269    0.0008 H       1  LIG1        0.1654
     17 H          -5.6510   -0.4078    0.0012 H       1  LIG1        0.0807
     18 N          -1.2151   -4.1543   -0.0000 N.1     1  LIG1       -0.1908
     19 C          -1.9852   -3.2999    0.0002 C.1     1  LIG1        0.1013
     20 H          -4.9334   -3.0324    0.0005 H       1  LIG1        0.0645
@<TRIPOS>BOND
     1     7     1    1
     2     1     5   ar
     3     1     2   ar
     4     6     5    1
     5     5     4   ar
     6     2     9    1
     7     2     3   ar
     8    18    19    3
     9     9     8    3
    10     3     4   ar
    11     3    10    1
    12     4    11    1
    13    19    12    1
    14    11    12   ar
    15    11    15   ar
    16    12    13   ar
    17    20    13    1
    18    13    14   ar
    19    15    16    1
    20    15    14   ar
    21    14    17    1
