@<TRIPOS>MOLECULE
mol_data/opt/m06hf/geoms/mol2/13da13da.out
 20 21 0 0 0
SMALL
GASTEIGER

@<TRIPOS>ATOM
      1 C           1.1136   -0.2059   -0.4770 C.ar    1  LIG1        0.0197
      2 C           0.7788    0.9572    0.1835 C.ar    1  LIG1        0.0696
      3 C          -0.6101    0.8990    0.4987 C.ar    1  LIG1       -0.0175
      4 C          -1.0684   -0.3010    0.0169 C.ar    1  LIG1        0.0654
      5 N          -0.0094   -0.9571   -0.5673 N.ar    1  LIG1       -0.3583
      6 H          -0.0898   -1.8189   -1.0848 H       1  LIG1        0.1654
      7 H           2.0583   -0.5259   -0.8805 H       1  LIG1        0.0820
      8 N           2.4385    2.8518    0.7571 N.1     1  LIG1       -0.1908
      9 C           1.6982    2.0133    0.5004 C.1     1  LIG1        0.1007
     10 H          -1.1909    1.6414    1.0189 H       1  LIG1        0.0652
     11 C          -2.4064   -0.8921    0.0562 C.ar    1  LIG1        0.0805
     12 C          -3.6380   -0.3500   -0.2581 C.ar    1  LIG1        0.0784
     13 C          -4.6282   -1.3535   -0.0414 C.ar    1  LIG1       -0.0263
     14 C          -3.9653   -2.4699    0.3927 C.ar    1  LIG1        0.0035
     15 N          -2.6286   -2.1784    0.4448 N.ar    1  LIG1       -0.3585
     16 H          -1.9153   -2.7830    0.8222 H       1  LIG1        0.1654
     17 H          -4.3359   -3.4406    0.6718 H       1  LIG1        0.0807
     18 N          -4.0195    2.0572   -1.1132 N.1     1  LIG1       -0.1908
     19 C          -3.8446    0.9869   -0.7363 C.1     1  LIG1        0.1013
     20 H          -5.6873   -1.2484   -0.1994 H       1  LIG1        0.0645
@<TRIPOS>BOND
     1    18    19    3
     2     6     5    1
     3     7     1    1
     4    19    12    1
     5     5     1   ar
     6     5     4   ar
     7     1     2   ar
     8    12    13   ar
     9    12    11   ar
    10    20    13    1
    11    13    14   ar
    12     4    11    1
    13     4     3   ar
    14    11    15   ar
    15     2     3   ar
    16     2     9    1
    17    14    15   ar
    18    14    17    1
    19    15    16    1
    20     3    10    1
    21     9     8    3
