@<TRIPOS>MOLECULE
mol_data/opt/m06hf/geoms/mol2/13dd13dd-13dd-13dd.out
 42 45 0 0 0
SMALL
GASTEIGER

@<TRIPOS>ATOM
      1 C           1.3617   -0.4874   -0.1223 C.ar    1  LIG1        0.0210
      2 C           1.0018    0.7185   -0.6783 C.ar    1  LIG1        0.0870
      3 C          -0.4217    0.7655   -0.6720 C.ar    1  LIG1        0.0957
      4 C          -0.8724   -0.4167   -0.1116 C.ar    1  LIG1        0.0831
      5 N           0.2279   -1.1522    0.2103 N.ar    1  LIG1       -0.3573
      6 H           0.2004   -2.0714    0.6379 H       1  LIG1        0.1655
      7 H           2.3399   -0.9005    0.0527 H       1  LIG1        0.0820
      8 N           2.6102    2.5307   -1.5646 N.1     1  LIG1       -0.1908
      9 C           1.8932    1.7274   -1.1701 C.1     1  LIG1        0.1020
     10 N          -2.0683    2.5683   -1.4958 N.1     1  LIG1       -0.1908
     11 C          -1.2847    1.8040   -1.1451 C.1     1  LIG1        0.1026
     12 C          -2.2377   -0.8745    0.1260 C.ar    1  LIG1        0.0835
     13 C          -2.6980   -2.0568    0.6828 C.ar    1  LIG1        0.0964
     14 C          -4.1196   -2.0071    0.6831 C.ar    1  LIG1        0.0964
     15 C          -4.4749   -0.7987    0.1208 C.ar    1  LIG1        0.0835
     16 N          -3.3295   -0.1352   -0.2042 N.ar    1  LIG1       -0.3497
     17 H          -3.2945    0.7630   -0.6783 H       1  LIG1        0.1661
     18 N          -1.0859   -3.8769    1.5360 N.1     1  LIG1       -0.1908
     19 C          -1.8490   -3.0994    1.1709 C.1     1  LIG1        0.1026
     20 N          -5.7485   -3.7586    1.6484 N.1     1  LIG1       -0.1908
     21 C          -5.0205   -2.9856    1.2148 C.1     1  LIG1        0.1026
     22 C          -5.7997   -0.2317   -0.1164 C.ar    1  LIG1        0.0835
     23 C          -6.9190   -0.8088   -0.6794 C.ar    1  LIG1        0.0964
     24 C          -7.9366    0.1852   -0.6788 C.ar    1  LIG1        0.0964
     25 C          -7.3994    1.3341   -0.1212 C.ar    1  LIG1        0.0835
     26 N          -6.1109    1.0547    0.2093 N.ar    1  LIG1       -0.3497
     27 H          -5.4855    1.6999    0.6839 H       1  LIG1        0.1661
     28 N          -7.0609   -3.1959   -1.6461 N.1     1  LIG1       -0.1908
     29 C          -7.0045   -2.1358   -1.2119 C.1     1  LIG1        0.1026
     30 N         -10.3661    0.0950   -1.5327 N.1     1  LIG1       -0.1908
     31 C          -9.2768    0.0796   -1.1673 C.1     1  LIG1        0.1026
     32 C          -8.0111    2.6377    0.1171 C.ar    1  LIG1        0.0831
     33 C          -7.4673    3.7797    0.6781 C.ar    1  LIG1        0.0957
     34 C          -8.4842    4.7769    0.6848 C.ar    1  LIG1        0.0870
     35 C          -9.6049    4.2048    0.1284 C.ar    1  LIG1        0.0210
     36 N          -9.3028    2.9258   -0.2048 N.ar    1  LIG1       -0.3573
     37 H          -9.9486    2.2714   -0.6329 H       1  LIG1        0.1655
     38 H         -10.5791    4.6271   -0.0466 H       1  LIG1        0.0820
     39 N          -5.0264    3.8331    1.5022 N.1     1  LIG1       -0.1908
     40 C          -6.1202    3.8723    1.1513 C.1     1  LIG1        0.1026
     41 N          -8.2841    7.1912    1.5723 N.1     1  LIG1       -0.1908
     42 C          -8.3700    6.1180    1.1772 C.1     1  LIG1        0.1020
@<TRIPOS>BOND
     1    28    29    3
     2     8     9    3
     3    30    31    3
     4    10    11    3
     5    29    23    1
     6     9     2    1
     7    31    24    1
     8    11     3    1
     9    23    24   ar
    10    23    22   ar
    11    24    25   ar
    12    17    16    1
    13     2     3   ar
    14     2     1   ar
    15     3     4   ar
    16    37    36    1
    17    36    32   ar
    18    36    35   ar
    19    16    15   ar
    20    16    12   ar
    21     1     7    1
    22     1     5   ar
    23    25    32    1
    24    25    26   ar
    25    22    15    1
    26    22    26   ar
    27     4    12    1
    28     4     5   ar
    29    38    35    1
    30    32    33   ar
    31    15    14   ar
    32    12    13   ar
    33    35    34   ar
    34    26    27    1
    35     5     6    1
    36    33    34   ar
    37    33    40    1
    38    13    14   ar
    39    13    19    1
    40    14    21    1
    41    34    42    1
    42    40    39    3
    43    19    18    3
    44    42    41    3
    45    21    20    3
