@<TRIPOS>MOLECULE
mol_data/opt/m06hf/geoms/mol2/13dd13dd13dd13dd-.out
 42 45 0 0 0
SMALL
GASTEIGER

@<TRIPOS>ATOM
      1 C           1.2322   -0.1731    0.1217 C.ar    1  LIG1        0.0210
      2 C           0.8165    0.9843   -0.4948 C.ar    1  LIG1        0.0870
      3 C          -0.6084    0.9408   -0.5598 C.ar    1  LIG1        0.0957
      4 C          -1.0021   -0.2429    0.0252 C.ar    1  LIG1        0.0831
      5 N           0.1280   -0.9010    0.4253 N.ar    1  LIG1       -0.3573
      6 H           0.1348   -1.7717    0.9381 H       1  LIG1        0.1655
      7 H           2.2265   -0.5078    0.3614 H       1  LIG1        0.0820
      8 N           2.3630    2.8459   -1.3922 N.1     1  LIG1       -0.1908
      9 C           1.6708    2.0234   -0.9926 C.1     1  LIG1        0.1020
     10 N          -2.1973    2.6515   -1.6565 N.1     1  LIG1       -0.1908
     11 C          -1.4851    1.8995   -1.1645 C.1     1  LIG1        0.1026
     12 C          -2.3413   -0.7957    0.2124 C.ar    1  LIG1        0.0835
     13 C          -3.4851   -0.2183    0.7240 C.ar    1  LIG1        0.0964
     14 C          -4.5131   -1.2069    0.6845 C.ar    1  LIG1        0.0964
     15 C          -3.9570   -2.3483    0.1475 C.ar    1  LIG1        0.0835
     16 N          -2.6460   -2.0812   -0.1260 N.ar    1  LIG1       -0.3497
     17 H          -2.0332   -2.6886   -0.6555 H       1  LIG1        0.1661
     18 N          -3.6507    2.1632    1.7009 N.1     1  LIG1       -0.1908
     19 C          -3.5833    1.1068    1.2604 C.1     1  LIG1        0.1026
     20 N          -6.9150   -1.0182    1.6052 N.1     1  LIG1       -0.1908
     21 C          -5.8490   -1.0903    1.1890 C.1     1  LIG1        0.1026
     22 C          -4.5034   -3.6827   -0.0717 C.ar    1  LIG1        0.0835
     23 C          -5.7021   -4.1302   -0.5904 C.ar    1  LIG1        0.0964
     24 C          -5.6339   -5.5542   -0.6050 C.ar    1  LIG1        0.0964
     25 C          -4.3965   -5.9199   -0.1046 C.ar    1  LIG1        0.0835
     26 N          -3.7426   -4.7743    0.2167 N.ar    1  LIG1       -0.3497
     27 H          -2.8402   -4.7370    0.6769 H       1  LIG1        0.1661
     28 N          -7.6186   -2.6684   -1.5062 N.1     1  LIG1       -0.1908
     29 C          -6.7697   -3.3166   -1.0891 C.1     1  LIG1        0.1026
     30 N          -7.3188   -7.3428   -1.3789 N.1     1  LIG1       -0.1908
     31 C          -6.6094   -6.4991   -1.0559 C.1     1  LIG1        0.1026
     32 C          -3.7752   -7.2281    0.0597 C.ar    1  LIG1        0.0831
     33 C          -2.4556   -7.5338    0.3493 C.ar    1  LIG1        0.0957
     34 C          -2.3461   -8.9540    0.3813 C.ar    1  LIG1        0.0870
     35 C          -3.5975   -9.4546    0.1058 C.ar    1  LIG1        0.0210
     36 N          -4.4384   -8.4060   -0.0827 N.ar    1  LIG1       -0.3573
     37 H          -5.4220   -8.4828   -0.3199 H       1  LIG1        0.1655
     38 H          -3.9299  -10.4756    0.0320 H       1  LIG1        0.0820
     39 N          -0.7293   -5.6491    0.6782 N.1     1  LIG1       -0.1908
     40 C          -1.4411   -6.5421    0.5425 C.1     1  LIG1        0.1026
     41 N          -0.2003  -10.3045    0.8567 N.1     1  LIG1       -0.1908
     42 C          -1.1577   -9.7103    0.6445 C.1     1  LIG1        0.1020
@<TRIPOS>BOND
     1    10    11    3
     2    28    29    3
     3     8     9    3
     4    30    31    3
     5    11     3    1
     6    29    23    1
     7    31    24    1
     8     9     2    1
     9    17    16    1
    10    24    23   ar
    11    24    25   ar
    12    23    22   ar
    13     3     2   ar
    14     3     4   ar
    15     2     1   ar
    16    37    36    1
    17    16    15   ar
    18    16    12   ar
    19    25    32    1
    20    25    26   ar
    21    36    32   ar
    22    36    35   ar
    23    22    15    1
    24    22    26   ar
    25     4    12    1
    26     4     5   ar
    27    38    35    1
    28    32    33   ar
    29    35    34   ar
    30     1     7    1
    31     1     5   ar
    32    15    14   ar
    33    12    13   ar
    34    26    27    1
    35    33    34   ar
    36    33    40    1
    37    34    42    1
    38     5     6    1
    39    40    39    3
    40    42    41    3
    41    14    13   ar
    42    14    21    1
    43    13    19    1
    44    21    20    3
    45    19    18    3
