@<TRIPOS>MOLECULE
mol_data/opt/m06hf/geoms/mol2/13dd13dd13dd-13dd-.out
 42 45 0 0 0
SMALL
GASTEIGER

@<TRIPOS>ATOM
      1 C           1.2496   -0.0333   -0.7376 C.ar    1  LIG1        0.0210
      2 C           0.8965    1.0580    0.0220 C.ar    1  LIG1        0.0870
      3 C          -0.4987    0.9463    0.2979 C.ar    1  LIG1        0.0957
      4 C          -0.9387   -0.2092   -0.3112 C.ar    1  LIG1        0.0831
      5 N           0.1366   -0.7850   -0.9267 N.ar    1  LIG1       -0.3573
      6 H           0.0928   -1.6166   -1.4990 H       1  LIG1        0.1655
      7 H           2.2063   -0.3082   -1.1462 H       1  LIG1        0.0820
      8 N           2.4931    2.9257    0.8118 N.1     1  LIG1       -0.1908
      9 C           1.7800    2.0985    0.4621 C.1     1  LIG1        0.1020
     10 N          -1.9599    2.4963    1.7532 N.1     1  LIG1       -0.1908
     11 C          -1.3040    1.8174    1.1020 C.1     1  LIG1        0.1026
     12 C          -2.2776   -0.7934   -0.3366 C.ar    1  LIG1        0.0835
     13 C          -3.4919   -0.2070   -0.6306 C.ar    1  LIG1        0.0964
     14 C          -4.4812   -1.2200   -0.4921 C.ar    1  LIG1        0.0964
     15 C          -3.8350   -2.3898   -0.1295 C.ar    1  LIG1        0.0835
     16 N          -2.5085   -2.1037   -0.0401 N.ar    1  LIG1       -0.3497
     17 H          -1.7997   -2.7525    0.2892 H       1  LIG1        0.1661
     18 N          -3.8797    2.2233   -1.4009 N.1     1  LIG1       -0.1908
     19 C          -3.7027    1.1463   -1.0495 C.1     1  LIG1        0.1026
     20 N          -7.0393   -1.1468   -0.7897 N.1     1  LIG1       -0.1908
     21 C          -5.8964   -1.1161   -0.6765 C.1     1  LIG1        0.1026
     22 C          -4.3814   -3.7164    0.1342 C.ar    1  LIG1        0.0835
     23 C          -3.7351   -4.8862    0.4968 C.ar    1  LIG1        0.0964
     24 C          -4.7244   -5.8993    0.6353 C.ar    1  LIG1        0.0964
     25 C          -5.9388   -5.3128    0.3412 C.ar    1  LIG1        0.0835
     26 N          -5.7079   -4.0025    0.0448 N.ar    1  LIG1       -0.3497
     27 H          -6.4166   -3.3537   -0.2845 H       1  LIG1        0.1661
     28 N          -1.1771   -4.9594    0.7945 N.1     1  LIG1       -0.1908
     29 C          -2.3200   -4.9901    0.6813 C.1     1  LIG1        0.1026
     30 N          -4.3367   -8.3295    1.4057 N.1     1  LIG1       -0.1908
     31 C          -4.5136   -7.2525    1.0542 C.1     1  LIG1        0.1026
     32 C          -7.2776   -5.8970    0.3158 C.ar    1  LIG1        0.0831
     33 C          -7.7176   -7.0525   -0.2933 C.ar    1  LIG1        0.0957
     34 C          -9.1129   -7.1642   -0.0175 C.ar    1  LIG1        0.0870
     35 C          -9.4660   -6.0730    0.7421 C.ar    1  LIG1        0.0210
     36 N          -8.3530   -5.3212    0.9313 N.ar    1  LIG1       -0.3573
     37 H          -8.3092   -4.4896    1.5036 H       1  LIG1        0.1655
     38 H         -10.4227   -5.7980    1.1507 H       1  LIG1        0.0820
     39 N          -6.2564   -8.6023   -1.7488 N.1     1  LIG1       -0.1908
     40 C          -6.9123   -7.9235   -1.0976 C.1     1  LIG1        0.1026
     41 N         -10.7095   -9.0318   -0.8075 N.1     1  LIG1       -0.1908
     42 C          -9.9963   -8.2046   -0.4577 C.1     1  LIG1        0.1020
@<TRIPOS>BOND
     1    39    40    3
     2     6     5    1
     3    18    19    3
     4     7     1    1
     5    40    33    1
     6    19    13    1
     7     5     1   ar
     8     5     4   ar
     9    41    42    3
    10    20    21    3
    11     1     2   ar
    12    21    14    1
    13    13    14   ar
    14    13    12   ar
    15    14    15   ar
    16    42    34    1
    17    12     4    1
    18    12    16   ar
    19     4     3   ar
    20    33    34   ar
    21    33    32   ar
    22    27    26    1
    23    15    16   ar
    24    15    22    1
    25    16    17    1
    26    34    35   ar
    27     2     3   ar
    28     2     9    1
    29    26    22   ar
    30    26    25   ar
    31    22    23   ar
    32     3    11    1
    33    32    25    1
    34    32    36   ar
    35    25    24   ar
    36     9     8    3
    37    23    24   ar
    38    23    29    1
    39    24    31    1
    40    29    28    3
    41    35    36   ar
    42    35    38    1
    43    36    37    1
    44    31    30    3
    45    11    10    3
