@<TRIPOS>MOLECULE
mol_data/opt/m06hf/geoms/mol2/13dd13dd-13dd.out
 32 34 0 0 0
SMALL
GASTEIGER

@<TRIPOS>ATOM
      1 C           1.2486   -0.2965    0.2963 C.ar    1  LIG1        0.0210
      2 C           0.8810    0.9739   -0.0849 C.ar    1  LIG1        0.0870
      3 C          -0.5349    0.9657   -0.2430 C.ar    1  LIG1        0.0957
      4 C          -0.9730   -0.3113    0.0541 C.ar    1  LIG1        0.0831
      5 N           0.1260   -1.0517    0.3747 N.ar    1  LIG1       -0.3573
      6 H           0.1056   -2.0340    0.6238 H       1  LIG1        0.1655
      7 H           2.2241   -0.6962    0.5108 H       1  LIG1        0.0820
      8 N           2.4757    2.9675   -0.4556 N.1     1  LIG1       -0.1908
      9 C           1.7636    2.0841   -0.2907 C.1     1  LIG1        0.1020
     10 N          -2.1326    2.8389   -1.0087 N.1     1  LIG1       -0.1908
     11 C          -1.3874    2.0348   -0.6663 C.1     1  LIG1        0.1026
     12 C          -2.3224   -0.8640    0.0325 C.ar    1  LIG1        0.0835
     13 C          -2.7331   -2.1853    0.0211 C.ar    1  LIG1        0.0964
     14 C          -4.1540   -2.1831   -0.0192 C.ar    1  LIG1        0.0964
     15 C          -4.5605   -0.8605   -0.0302 C.ar    1  LIG1        0.0835
     16 N          -3.4402   -0.0892    0.0012 N.ar    1  LIG1       -0.3497
     17 H          -3.4386    0.9307    0.0013 H       1  LIG1        0.1661
     18 N          -1.0767   -4.1563    0.1295 N.1     1  LIG1       -0.1908
     19 C          -1.8512   -3.3103    0.0645 C.1     1  LIG1        0.1026
     20 N          -5.8167   -4.1487   -0.1279 N.1     1  LIG1       -0.1908
     21 C          -5.0396   -3.3052   -0.0629 C.1     1  LIG1        0.1026
     22 C          -5.9081   -0.3034   -0.0516 C.ar    1  LIG1        0.0831
     23 C          -6.3421    0.9749    0.2458 C.ar    1  LIG1        0.0957
     24 C          -7.7581    0.9876    0.0879 C.ar    1  LIG1        0.0870
     25 C          -8.1297   -0.2814   -0.2937 C.ar    1  LIG1        0.0210
     26 N          -7.0095   -1.0401   -0.3725 N.ar    1  LIG1       -0.3573
     27 H          -6.9923   -2.0225   -0.6220 H       1  LIG1        0.1655
     28 H          -9.1065   -0.6780   -0.5083 H       1  LIG1        0.0820
     29 N          -4.7384    2.8428    1.0119 N.1     1  LIG1       -0.1908
     30 C          -5.4862    2.0412    0.6694 C.1     1  LIG1        0.1026
     31 N          -9.3464    2.9860    0.4597 N.1     1  LIG1       -0.1908
     32 C          -8.6371    2.1004    0.2944 C.1     1  LIG1        0.1020
@<TRIPOS>BOND
     1    10    11    3
     2    11     3    1
     3    27    26    1
     4    28    25    1
     5     8     9    3
     6    26    25   ar
     7    26    22   ar
     8    25    24   ar
     9     9     2    1
    10     3     2   ar
    11     3     4   ar
    12    20    21    3
    13     2     1   ar
    14    21    14    1
    15    22    15    1
    16    22    23   ar
    17    15    14   ar
    18    15    16   ar
    19    14    13   ar
    20    16    17    1
    21    16    12   ar
    22    13    12   ar
    23    13    19    1
    24    12     4    1
    25     4     5   ar
    26    19    18    3
    27    24    23   ar
    28    24    32    1
    29    23    30    1
    30    32    31    3
    31     1     5   ar
    32     1     7    1
    33     5     6    1
    34    30    29    3
