@<TRIPOS>MOLECULE
mol_data/opt/m06hf/geoms/mol2/13dd6eh13el6ii-.out
 54 57 0 0 0
SMALL
GASTEIGER

@<TRIPOS>ATOM
      1 C           1.4671   -0.4116   -0.2648 C.ar    1  LIG1        0.0209
      2 C           1.1380    0.9232   -0.2564 C.ar    1  LIG1        0.0870
      3 C          -0.2866    1.0005   -0.2324 C.ar    1  LIG1        0.0944
      4 C          -0.7742   -0.2974   -0.2323 C.ar    1  LIG1        0.0681
      5 N           0.3127   -1.1189   -0.2516 N.ar    1  LIG1       -0.3584
      6 H           0.2393   -2.1283   -0.2115 H       1  LIG1        0.1654
      7 H           2.4335   -0.8840   -0.2779 H       1  LIG1        0.0820
      8 N           2.8045    2.8939   -0.2794 N.1     1  LIG1       -0.1908
      9 C           2.0605    2.0205   -0.2672 C.1     1  LIG1        0.1020
     10 N          -1.6896    3.1662   -0.1884 N.1     1  LIG1       -0.1908
     11 C          -1.0573    2.2077   -0.1981 C.1     1  LIG1        0.1026
     12 C          -2.5466   -2.0563    0.2343 C.ar    1  LIG1        0.1231
     13 C          -2.1667   -0.7867   -0.2407 C.ar    1  LIG1        0.0352
     14 C          -3.1671    0.0260   -0.7553 C.ar    1  LIG1       -0.0271
     15 C          -4.5095   -0.3773   -0.7633 C.ar    1  LIG1        0.0531
     16 C          -4.7869   -1.6548   -0.2112 C.ar    1  LIG1        0.1104
     17 N          -3.8161   -2.4445    0.2311 N.ar    1  LIG1       -0.2344
     18 H          -2.9160    0.9891   -1.1802 H       1  LIG1        0.0644
     19 C          -1.6043   -3.0233    0.7642 C.1     1  LIG1       -0.0491
     20 C          -0.8396   -3.8443    1.1988 C.1     1  LIG1       -0.1124
     21 H          -0.1871   -4.5778    1.6151 H       1  LIG1        0.1232
     22 N          -5.4529    0.4024   -1.3502 N.pl3   1  LIG1       -0.3563
     23 H          -5.1945    1.3448   -1.5969 H       1  LIG1        0.1424
     24 H          -6.4328    0.2482   -1.1665 H       1  LIG1        0.1424
     25 C          -6.1246   -2.2834   -0.1576 C.ar    1  LIG1        0.0865
     26 C          -7.4438   -1.8468   -0.0427 C.ar    1  LIG1        0.0937
     27 C          -8.2540   -3.0181   -0.0092 C.ar    1  LIG1        0.1613
     28 C          -7.4271   -4.1226   -0.0751 C.ar    1  LIG1        0.0922
     29 N          -6.1548   -3.6379   -0.1686 N.ar    1  LIG1       -0.3489
     30 H          -5.3001   -4.1755   -0.2135 H       1  LIG1        0.1661
     31 C          -7.9653   -0.5241    0.1153 C.1     1  LIG1       -0.0638
     32 C          -8.4256    0.5804    0.2512 C.1     1  LIG1       -0.1137
     33 H          -8.8381    1.5536    0.3893 H       1  LIG1        0.1232
     34 O          -9.6112   -3.0328    0.0876 O.3     1  LIG1       -0.4917
     35 C         -10.0793   -3.0250    1.4384 C.3     1  LIG1        0.0789
     36 H         -11.1650   -3.0068    1.3857 H       1  LIG1        0.0660
     37 H          -9.7391   -3.9253    1.9534 H       1  LIG1        0.0660
     38 H          -9.7119   -2.1359    1.9533 H       1  LIG1        0.0660
     39 C          -6.9853   -6.5543    0.4923 C.ar    1  LIG1        0.0474
     40 C          -7.7886   -5.5517   -0.0833 C.ar    1  LIG1        0.0232
     41 C          -8.9971   -5.9260   -0.6726 C.ar    1  LIG1       -0.0464
     42 C          -9.3773   -7.2638   -0.6999 C.ar    1  LIG1       -0.0317
     43 C          -8.4970   -8.1753   -0.1215 C.ar    1  LIG1        0.0308
     44 N          -7.3487   -7.8343    0.4576 N.ar    1  LIG1       -0.2592
     45 H          -9.6315   -5.1590   -1.1028 H       1  LIG1        0.0628
     46 H          -8.7344   -9.2339   -0.1172 H       1  LIG1        0.0832
     47 C          -5.6723   -6.2699    1.1993 C.3     1  LIG1       -0.0217
     48 H          -5.7189   -5.3487    1.7814 H       1  LIG1        0.0293
     49 H          -4.8499   -6.1965    0.4809 H       1  LIG1        0.0293
     50 H          -5.4664   -7.1136    1.8535 H       1  LIG1        0.0293
     51 C         -10.6785   -7.7060   -1.3383 C.3     1  LIG1       -0.0383
     52 H         -10.7999   -8.7852   -1.2500 H       1  LIG1        0.0278
     53 H         -10.6903   -7.4390   -2.3959 H       1  LIG1        0.0278
     54 H         -11.5244   -7.2184   -0.8520 H       1  LIG1        0.0278
@<TRIPOS>BOND
     1    53    51    1
     2    23    22    1
     3    22    24    1
     4    22    15    1
     5    51    52    1
     6    51    54    1
     7    51    42    1
     8    18    14    1
     9    45    41    1
    10    15    14   ar
    11    15    16   ar
    12    14    13   ar
    13    42    41   ar
    14    42    43   ar
    15    41    40   ar
    16     8     9    3
    17     7     1    1
    18     9     2    1
    19     1     2   ar
    20     1     5   ar
    21     2     3   ar
    22     5     4   ar
    23     5     6    1
    24    13     4    1
    25    13    12   ar
    26     3     4   ar
    27     3    11    1
    28    30    29    1
    29    16    25    1
    30    16    17   ar
    31    11    10    3
    32    29    25   ar
    33    29    28   ar
    34    25    26   ar
    35    43    46    1
    36    43    44   ar
    37    40    28    1
    38    40    39   ar
    39    28    27   ar
    40    26    27   ar
    41    26    31    1
    42    27    34    1
    43    34    35    1
    44    31    32    3
    45    17    12   ar
    46    12    19    1
    47    32    33    1
    48    44    39   ar
    49    49    47    1
    50    39    47    1
    51    19    20    3
    52    20    21    1
    53    47    48    1
    54    47    50    1
    55    36    35    1
    56    35    38    1
    57    35    37    1
