@<TRIPOS>MOLECULE
mol_data/opt/m06hf/geoms/mol2/13dd13dd-13dd-13dd-.out
 42 45 0 0 0
SMALL
GASTEIGER

@<TRIPOS>ATOM
      1 C           1.2569   -0.3144    0.0683 C.ar    1  LIG1        0.0210
      2 C           0.8086    0.9588    0.3343 C.ar    1  LIG1        0.0870
      3 C          -0.6150    0.9056    0.3142 C.ar    1  LIG1        0.0957
      4 C          -0.9753   -0.4036    0.0408 C.ar    1  LIG1        0.0831
      5 N           0.1742   -1.1146   -0.1035 N.ar    1  LIG1       -0.3573
      6 H           0.2099   -2.1030   -0.3309 H       1  LIG1        0.1655
      7 H           2.2632   -0.6880   -0.0097 H       1  LIG1        0.0820
      8 N           2.2472    3.0537    0.7770 N.1     1  LIG1       -0.1908
      9 C           1.6137    2.1187    0.5793 C.1     1  LIG1        0.1020
     10 N          -2.4269    2.7089    0.6391 N.1     1  LIG1       -0.1908
     11 C          -1.5639    1.9608    0.5042 C.1     1  LIG1        0.1026
     12 C          -2.3084   -0.9740   -0.1072 C.ar    1  LIG1        0.0835
     13 C          -2.7269   -2.2008   -0.5917 C.ar    1  LIG1        0.0964
     14 C          -4.1524   -2.2121   -0.5656 C.ar    1  LIG1        0.0964
     15 C          -4.5477   -0.9912   -0.0564 C.ar    1  LIG1        0.0835
     16 N          -3.4245   -0.2716    0.2157 N.ar    1  LIG1       -0.3497
     17 H          -3.4222    0.6362    0.6666 H       1  LIG1        0.1661
     18 N          -1.0130   -3.9636   -1.3609 N.1     1  LIG1       -0.1908
     19 C          -1.8253   -3.2178   -1.0392 C.1     1  LIG1        0.1026
     20 N          -5.6964   -4.0782   -1.4502 N.1     1  LIG1       -0.1908
     21 C          -5.0117   -3.2515   -1.0469 C.1     1  LIG1        0.1026
     22 C          -5.8576   -0.3900    0.1670 C.ar    1  LIG1        0.0835
     23 C          -7.0159   -0.8947    0.7183 C.ar    1  LIG1        0.0964
     24 C          -7.9626    0.1721    0.7544 C.ar    1  LIG1        0.0964
     25 C          -7.3443    1.2868    0.2264 C.ar    1  LIG1        0.0835
     26 N          -6.0746    0.9278   -0.1182 N.ar    1  LIG1       -0.3497
     27 H          -5.4476    1.5105   -0.6587 H       1  LIG1        0.1661
     28 N          -7.2925   -3.2776    1.6657 N.1     1  LIG1       -0.1908
     29 C          -7.1815   -2.2197    1.2377 C.1     1  LIG1        0.1026
     30 N         -10.3411    0.1113    1.7505 N.1     1  LIG1       -0.1908
     31 C          -9.2863    0.1322    1.3016 C.1     1  LIG1        0.1026
     32 C          -7.8450    2.6449    0.0294 C.ar    1  LIG1        0.0831
     33 C          -9.0168    3.0793   -0.5510 C.ar    1  LIG1        0.0957
     34 C          -9.0033    4.5054   -0.5006 C.ar    1  LIG1        0.0870
     35 C          -7.8255    4.8811    0.1029 C.ar    1  LIG1        0.0210
     36 N          -7.1396    3.7520    0.4127 N.ar    1  LIG1       -0.3573
     37 H          -6.2653    3.7294    0.9189 H       1  LIG1        0.1655
     38 H          -7.4499    5.8637    0.3297 H       1  LIG1        0.0820
     39 N         -10.7976    1.5486   -1.6183 N.1     1  LIG1       -0.1908
     40 C         -10.0142    2.2353   -1.1394 C.1     1  LIG1        0.1026
     41 N         -10.8091    6.1154   -1.4002 N.1     1  LIG1       -0.1908
     42 C         -10.0115    5.3952   -0.9995 C.1     1  LIG1        0.1020
@<TRIPOS>BOND
     1    39    40    3
     2    20    21    3
     3    41    42    3
     4    18    19    3
     5    40    33    1
     6    21    14    1
     7    19    13    1
     8    42    34    1
     9    27    26    1
    10    13    14   ar
    11    13    12   ar
    12    14    15   ar
    13    33    34   ar
    14    33    32   ar
    15    34    35   ar
    16     6     5    1
    17    26    22   ar
    18    26    25   ar
    19    12     4    1
    20    12    16   ar
    21     5     4   ar
    22     5     1   ar
    23    15    22    1
    24    15    16   ar
    25     7     1    1
    26    32    25    1
    27    32    36   ar
    28     4     3   ar
    29     1     2   ar
    30    35    38    1
    31    35    36   ar
    32    22    23   ar
    33    16    17    1
    34    25    24   ar
    35     3     2   ar
    36     3    11    1
    37     2     9    1
    38    36    37    1
    39    11    10    3
    40     9     8    3
    41    23    24   ar
    42    23    29    1
    43    24    31    1
    44    29    28    3
    45    31    30    3
