@<TRIPOS>MOLECULE
mol_data/opt/m06hf/geoms/mol2/13dd13dd-13dd13dd-.out
 42 45 0 0 0
SMALL
GASTEIGER

@<TRIPOS>ATOM
      1 C           1.3162   -0.2928   -0.1105 C.ar    1  LIG1        0.0210
      2 C           0.8942    0.9388   -0.5568 C.ar    1  LIG1        0.0870
      3 C          -0.5297    0.9249   -0.5228 C.ar    1  LIG1        0.0957
      4 C          -0.9178   -0.3164   -0.0524 C.ar    1  LIG1        0.0831
      5 N           0.2189   -1.0298    0.1870 N.ar    1  LIG1       -0.3573
      6 H           0.2368   -1.9839    0.5294 H       1  LIG1        0.1655
      7 H           2.3146   -0.6754    0.0098 H       1  LIG1        0.0820
      8 N           2.4025    2.8858   -1.3249 N.1     1  LIG1       -0.1908
      9 C           1.7313    2.0215   -0.9824 C.1     1  LIG1        0.1020
     10 N          -2.2338    2.7353   -1.2057 N.1     1  LIG1       -0.1908
     11 C          -1.4371    1.9611   -0.9120 C.1     1  LIG1        0.1026
     12 C          -2.2561   -0.8545    0.1646 C.ar    1  LIG1        0.0835
     13 C          -2.6534   -2.1494    0.4569 C.ar    1  LIG1        0.0964
     14 C          -4.0708   -2.1453    0.5550 C.ar    1  LIG1        0.0964
     15 C          -4.4870   -0.8492    0.3153 C.ar    1  LIG1        0.0835
     16 N          -3.3792   -0.0934    0.0854 N.ar    1  LIG1       -0.3497
     17 H          -3.3882    0.9039   -0.1219 H       1  LIG1        0.1661
     18 N          -0.9711   -4.0746    0.7768 N.1     1  LIG1       -0.1908
     19 C          -1.7595   -3.2513    0.6352 C.1     1  LIG1        0.1026
     20 N          -5.6928   -4.0704    1.1105 N.1     1  LIG1       -0.1908
     21 C          -4.9410   -3.2374    0.8675 C.1     1  LIG1        0.1026
     22 C          -5.8339   -0.2943    0.3196 C.ar    1  LIG1        0.0835
     23 C          -6.2493    1.0002    0.5696 C.ar    1  LIG1        0.0964
     24 C          -7.6670    1.0049    0.4768 C.ar    1  LIG1        0.0964
     25 C          -8.0654   -0.2880    0.1772 C.ar    1  LIG1        0.0835
     26 N          -6.9426   -1.0485    0.0887 N.ar    1  LIG1       -0.3497
     27 H          -6.9343   -2.0444   -0.1253 H       1  LIG1        0.1661
     28 N          -4.6251    2.9215    1.1321 N.1     1  LIG1       -0.1908
     29 C          -5.3778    2.0901    0.8864 C.1     1  LIG1        0.1026
     30 N          -9.3480    2.9279    0.8159 N.1     1  LIG1       -0.1908
     31 C          -8.5602    2.1056    0.6659 C.1     1  LIG1        0.1026
     32 C          -9.4045   -0.8246   -0.0384 C.ar    1  LIG1        0.0831
     33 C          -9.7944   -2.0627   -0.5158 C.ar    1  LIG1        0.0957
     34 C         -11.2184   -2.0764   -0.5446 C.ar    1  LIG1        0.0870
     35 C         -11.6387   -0.8478   -0.0884 C.ar    1  LIG1        0.0210
     36 N         -10.5402   -0.1128    0.2100 N.ar    1  LIG1       -0.3573
     37 H         -10.5569    0.8389    0.5589 H       1  LIG1        0.1655
     38 H         -12.6367   -0.4661    0.0383 H       1  LIG1        0.0820
     39 N          -8.0928   -3.8684   -1.2174 N.1     1  LIG1       -0.1908
     40 C          -8.8884   -3.0962   -0.9154 C.1     1  LIG1        0.1026
     41 N         -12.7296   -4.0181   -1.3203 N.1     1  LIG1       -0.1908
     42 C         -12.0571   -3.1561   -0.9744 C.1     1  LIG1        0.1020
@<TRIPOS>BOND
     1     8     9    3
     2    41    42    3
     3    39    40    3
     4    10    11    3
     5     9     2    1
     6    42    34    1
     7    40    33    1
     8    11     3    1
     9     2     3   ar
    10     2     1   ar
    11    34    33   ar
    12    34    35   ar
    13     3     4   ar
    14    33    32   ar
    15    27    26    1
    16    17    16    1
    17     1     7    1
    18     1     5   ar
    19    35    38    1
    20    35    36   ar
    21     4    12    1
    22     4     5   ar
    23    32    25    1
    24    32    36   ar
    25    16    12   ar
    26    16    15   ar
    27    26    25   ar
    28    26    22   ar
    29    12    13   ar
    30    25    24   ar
    31     5     6    1
    32    36    37    1
    33    15    22    1
    34    15    14   ar
    35    22    23   ar
    36    13    14   ar
    37    13    19    1
    38    24    23   ar
    39    24    31    1
    40    14    21    1
    41    23    29    1
    42    19    18    3
    43    31    30    3
    44    21    20    3
    45    29    28    3
