@<TRIPOS>MOLECULE
mol_data/opt/m06hf/geoms/mol2/13dd13dd13dd13dd.out
 42 45 0 0 0
SMALL
GASTEIGER

@<TRIPOS>ATOM
      1 C          -0.7411    2.5334   -0.9117 C.ar    1  LIG1        0.0210
      2 C          -0.4614    1.8576   -2.0776 C.ar    1  LIG1        0.0870
      3 C          -0.9757    0.5383   -1.9239 C.ar    1  LIG1        0.0957
      4 C          -1.5525    0.4652   -0.6691 C.ar    1  LIG1        0.0831
      5 N          -1.3943    1.6850   -0.0814 N.ar    1  LIG1       -0.3573
      6 H          -1.7125    1.9182    0.8525 H       1  LIG1        0.1655
      7 H          -0.5170    3.5487   -0.6348 H       1  LIG1        0.0820
      8 N           0.7765    2.8038   -4.1338 N.1     1  LIG1       -0.1908
      9 C           0.2249    2.3828   -3.2209 C.1     1  LIG1        0.1020
     10 N          -0.9063   -1.4782   -3.5292 N.1     1  LIG1       -0.1908
     11 C          -0.9145   -0.5517   -2.8495 C.1     1  LIG1        0.1026
     12 C          -2.2111   -0.6569   -0.0096 C.ar    1  LIG1        0.0835
     13 C          -2.6235   -0.7929    1.3063 C.ar    1  LIG1        0.0964
     14 C          -3.1958   -2.0864    1.4390 C.ar    1  LIG1        0.0964
     15 C          -3.1084   -2.6941    0.2005 C.ar    1  LIG1        0.0835
     16 N          -2.5153   -1.8152   -0.6520 N.ar    1  LIG1       -0.3497
     17 H          -2.3212   -1.9992   -1.6350 H       1  LIG1        0.1661
     18 N          -2.3589    1.0931    3.0417 N.1     1  LIG1       -0.1908
     19 C          -2.4910    0.2205    2.3066 C.1     1  LIG1        0.1026
     20 N          -4.2721   -3.2129    3.4928 N.1     1  LIG1       -0.1908
     21 C          -3.7871   -2.6796    2.5992 C.1     1  LIG1        0.1026
     22 C          -3.5675   -4.0118   -0.2180 C.ar    1  LIG1        0.0835
     23 C          -3.9405   -4.4537   -1.4735 C.ar    1  LIG1        0.0964
     24 C          -4.3333   -5.8119   -1.3342 C.ar    1  LIG1        0.0964
     25 C          -4.1893   -6.1483    0.0024 C.ar    1  LIG1        0.0835
     26 N          -3.7274   -5.0468    0.6506 N.ar    1  LIG1       -0.3497
     27 H          -3.5255   -5.0054    1.6482 H       1  LIG1        0.1661
     28 N          -3.9154   -2.9486   -3.5663 N.1     1  LIG1       -0.1908
     29 C          -3.9410   -3.6473   -2.6556 C.1     1  LIG1        0.1026
     30 N          -5.2175   -7.4747   -3.0925 N.1     1  LIG1       -0.1908
     31 C          -4.8113   -6.7008   -2.3472 C.1     1  LIG1        0.1026
     32 C          -4.4411   -7.4169    0.6769 C.ar    1  LIG1        0.0831
     33 C          -4.1267   -7.8110    1.9647 C.ar    1  LIG1        0.0957
     34 C          -4.5819   -9.1516    2.1205 C.ar    1  LIG1        0.0870
     35 C          -5.1509   -9.5217    0.9232 C.ar    1  LIG1        0.0210
     36 N          -5.0579   -8.4715    0.0722 N.ar    1  LIG1       -0.3573
     37 H          -5.3898   -8.4706   -0.8858 H       1  LIG1        0.1655
     38 H          -5.6072  -10.4533    0.6377 H       1  LIG1        0.0820
     39 N          -2.8943   -6.2634    3.6182 N.1     1  LIG1       -0.1908
     40 C          -3.4461   -6.9881    2.9178 C.1     1  LIG1        0.1026
     41 N          -4.3682  -10.6206    4.2305 N.1     1  LIG1       -0.1908
     42 C          -4.4640   -9.9664    3.2936 C.1     1  LIG1        0.1020
@<TRIPOS>BOND
     1     8     9    3
     2    28    29    3
     3    10    11    3
     4     9     2    1
     5    30    31    3
     6    11     3    1
     7    29    23    1
     8    31    24    1
     9     2     3   ar
    10     2     1   ar
    11     3     4   ar
    12    17    16    1
    13    23    24   ar
    14    23    22   ar
    15    24    25   ar
    16     1     7    1
    17     1     5   ar
    18    37    36    1
    19     4     5   ar
    20     4    12    1
    21    16    12   ar
    22    16    15   ar
    23    22    15    1
    24    22    26   ar
    25     5     6    1
    26    12    13   ar
    27    25    26   ar
    28    25    32    1
    29    36    32   ar
    30    36    35   ar
    31    15    14   ar
    32    38    35    1
    33    26    27    1
    34    32    33   ar
    35    35    34   ar
    36    13    14   ar
    37    13    19    1
    38    14    21    1
    39    33    34   ar
    40    33    40    1
    41    34    42    1
    42    19    18    3
    43    21    20    3
    44    40    39    3
    45    42    41    3
