@<TRIPOS>MOLECULE
mol_data/opt/m06hf/geoms/mol2/13dd13dd-.out
 22 23 0 0 0
SMALL
GASTEIGER

@<TRIPOS>ATOM
      1 C           1.1944   -0.3326   -0.0003 C.ar    1  LIG1        0.0210
      2 C           0.8150    0.9891   -0.0002 C.ar    1  LIG1        0.0870
      3 C          -0.6103    1.0084    0.0003 C.ar    1  LIG1        0.0957
      4 C          -1.0427   -0.3058    0.0003 C.ar    1  LIG1        0.0830
      5 N           0.0700   -1.0912   -0.0000 N.ar    1  LIG1       -0.3573
      6 H           0.0552   -2.1058   -0.0000 H       1  LIG1        0.1655
      7 H           2.1788   -0.7665   -0.0006 H       1  LIG1        0.0820
      8 N           2.3832    3.0375   -0.0005 N.1     1  LIG1       -0.1908
      9 C           1.6868    2.1264   -0.0004 C.1     1  LIG1        0.1020
     10 N          -2.2593    2.9887    0.0008 N.1     1  LIG1       -0.1908
     11 C          -1.4817    2.1428    0.0006 C.1     1  LIG1        0.1026
     12 C          -2.3993   -0.8465    0.0006 C.ar    1  LIG1        0.0830
     13 C          -2.8316   -2.1607    0.0006 C.ar    1  LIG1        0.0957
     14 C          -4.2569   -2.1414    0.0011 C.ar    1  LIG1        0.0870
     15 C          -4.6364   -0.8197    0.0012 C.ar    1  LIG1        0.0210
     16 N          -3.5119   -0.0610    0.0009 N.ar    1  LIG1       -0.3573
     17 H          -3.4971    0.9535    0.0010 H       1  LIG1        0.1655
     18 H          -5.6207   -0.3857    0.0015 H       1  LIG1        0.0820
     19 N          -1.1826   -4.1409   -0.0000 N.1     1  LIG1       -0.1908
     20 C          -1.9602   -3.2951    0.0003 C.1     1  LIG1        0.1026
     21 N          -5.8251   -4.1897    0.0014 N.1     1  LIG1       -0.1908
     22 C          -5.1287   -3.2786    0.0013 C.1     1  LIG1        0.1020
@<TRIPOS>BOND
     1     7     1    1
     2     8     9    3
     3     9     2    1
     4     1     2   ar
     5     1     5   ar
     6     2     3   ar
     7     6     5    1
     8    19    20    3
     9     5     4   ar
    10     3     4   ar
    11     3    11    1
    12    20    13    1
    13     4    12    1
    14    11    10    3
    15    13    12   ar
    16    13    14   ar
    17    12    16   ar
    18    16    17    1
    19    16    15   ar
    20    14    15   ar
    21    14    22    1
    22    15    18    1
    23    22    21    3
