@<TRIPOS>MOLECULE
mol_data/opt/m06hf/geoms/mol2/13dd13dd.out
 22 23 0 0 0
SMALL
GASTEIGER

@<TRIPOS>ATOM
      1 C           0.5592    0.7959   -1.2708 C.ar    1  LIG1        0.0210
      2 C           0.8758    0.9320    0.0604 C.ar    1  LIG1        0.0870
      3 C          -0.2456    0.4570    0.8011 C.ar    1  LIG1        0.0957
      4 C          -1.2026    0.0497   -0.1113 C.ar    1  LIG1        0.0830
      5 N          -0.6871    0.2669   -1.3531 N.ar    1  LIG1       -0.3573
      6 H          -1.1728    0.0596   -2.2195 H       1  LIG1        0.1655
      7 H           1.1371    1.0401   -2.1447 H       1  LIG1        0.0820
      8 N           3.0766    1.8673    1.0281 N.1     1  LIG1       -0.1908
      9 C           2.0986    1.4517    0.5971 C.1     1  LIG1        0.1020
     10 N          -0.6283    0.2978    3.3444 N.1     1  LIG1       -0.1908
     11 C          -0.4066    0.3904    2.2208 C.1     1  LIG1        0.1026
     12 C          -2.5311   -0.5140    0.1122 C.ar    1  LIG1        0.0830
     13 C          -3.4881   -0.9214   -0.8002 C.ar    1  LIG1        0.0957
     14 C          -4.6095   -1.3964   -0.0595 C.ar    1  LIG1        0.0870
     15 C          -4.2929   -1.2602    1.2718 C.ar    1  LIG1        0.0210
     16 N          -3.0466   -0.7311    1.3540 N.ar    1  LIG1       -0.3573
     17 H          -2.5608   -0.5238    2.2203 H       1  LIG1        0.1655
     18 H          -4.8708   -1.5044    2.1457 H       1  LIG1        0.0820
     19 N          -3.1052   -0.7622   -3.3435 N.1     1  LIG1       -0.1908
     20 C          -3.3271   -0.8549   -2.2199 C.1     1  LIG1        0.1026
     21 N          -6.8103   -2.3319   -1.0271 N.1     1  LIG1       -0.1908
     22 C          -5.8323   -1.9162   -0.5961 C.1     1  LIG1        0.1020
@<TRIPOS>BOND
     1    19    20    3
     2    20    13    1
     3     6     5    1
     4     7     1    1
     5     5     1   ar
     6     5     4   ar
     7     1     2   ar
     8    21    22    3
     9    13    14   ar
    10    13    12   ar
    11    22    14    1
    12     4    12    1
    13     4     3   ar
    14    14    15   ar
    15     2     9    1
    16     2     3   ar
    17    12    16   ar
    18     9     8    3
    19     3    11    1
    20    15    16   ar
    21    15    18    1
    22    16    17    1
    23    11    10    3
