@<TRIPOS>MOLECULE
mol_data/opt/m06hf/geoms/mol2/13dd4ll4ee13ae-.out
 51 54 0 0 0
SMALL
GASTEIGER

@<TRIPOS>ATOM
      1 C           0.4641    0.2047   -1.8190 C.ar    1  LIG1        0.0197
      2 C           0.3060    1.4090   -1.1639 C.ar    1  LIG1        0.0697
      3 C          -0.7829    1.2750   -0.2549 C.ar    1  LIG1       -0.0160
      4 C          -1.2476   -0.0103   -0.3955 C.ar    1  LIG1        0.0834
      5 N          -0.4815   -0.6373   -1.3428 N.ar    1  LIG1       -0.3571
      6 H          -0.6341   -1.5919   -1.6323 H       1  LIG1        0.1655
      7 H           1.1749   -0.0872   -2.5720 H       1  LIG1        0.0820
      8 N           1.7587    3.5124   -1.5373 N.1     1  LIG1       -0.1908
      9 C           1.1144    2.5763   -1.3740 C.1     1  LIG1        0.1007
     10 H          -1.1596    2.0303    0.4126 H       1  LIG1        0.0653
     11 C          -2.3370   -0.7276    0.2530 C.ar    1  LIG1        0.1520
     12 C          -3.3199   -0.3703    1.1172 C.ar    1  LIG1       -0.0109
     13 C          -4.0899   -1.5598    1.3712 C.ar    1  LIG1       -0.0041
     14 C          -3.5117   -2.5432    0.6246 C.ar    1  LIG1        0.1387
     15 O          -2.4403   -2.0414   -0.0497 O.2     1  LIG1       -0.4531
     16 H          -3.4850    0.6098    1.5332 H       1  LIG1        0.0659
     17 C          -5.2623   -1.6722    2.3138 C.3     1  LIG1       -0.0361
     18 H          -5.3289   -2.6822    2.7175 H       1  LIG1        0.0279
     19 H          -6.1984   -1.4330    1.8052 H       1  LIG1        0.0279
     20 H          -5.1334   -0.9723    3.1391 H       1  LIG1        0.0279
     21 C          -5.1181   -4.4427    0.5169 C.ar    1  LIG1       -0.0504
     22 C          -5.3600   -5.7996    0.3565 C.ar    1  LIG1       -0.0515
     23 C          -3.8033   -3.9737    0.4430 C.ar    1  LIG1        0.0193
     24 C          -4.3277   -6.7055    0.1144 C.ar    1  LIG1        0.0064
     25 H          -6.3728   -6.1777    0.3995 H       1  LIG1        0.0624
     26 C          -2.7618   -4.8615    0.1867 C.ar    1  LIG1       -0.0298
     27 C          -3.0063   -6.2276    0.0132 C.ar    1  LIG1        0.0331
     28 H          -1.7455   -4.4906    0.1339 H       1  LIG1        0.0643
     29 H          -5.9365   -3.7519    0.6640 H       1  LIG1        0.0625
     30 N          -1.9401   -7.0944   -0.2112 N.pl3   1  LIG1       -0.3575
     31 H          -2.1834   -7.9724   -0.6499 H       1  LIG1        0.1423
     32 H          -1.1170   -6.6646   -0.6071 H       1  LIG1        0.1423
     33 C          -5.5762   -8.6178   -0.9671 C.ar    1  LIG1        0.1280
     34 C          -5.8317   -9.9770   -1.0832 C.ar    1  LIG1       -0.0159
     35 C          -4.6205   -8.1637   -0.0329 C.ar    1  LIG1        0.0290
     36 C          -5.1526  -10.9053   -0.2854 C.ar    1  LIG1       -0.0165
     37 H          -6.5584  -10.3422   -1.7948 H       1  LIG1        0.0655
     38 C          -3.9590   -9.0939    0.7566 C.ar    1  LIG1       -0.0087
     39 C          -4.2145  -10.4651    0.6368 C.ar    1  LIG1        0.1209
     40 H          -3.2263   -8.7679    1.4846 H       1  LIG1        0.0661
     41 H          -5.3754  -11.9559   -0.4046 H       1  LIG1        0.0655
     42 O          -6.1990   -7.6653   -1.7130 O.3     1  LIG1       -0.4945
     43 C          -7.1219   -8.0914   -2.6944 C.3     1  LIG1        0.0788
     44 H          -7.4705   -7.1875   -3.1863 H       1  LIG1        0.0660
     45 H          -6.6365   -8.7459   -3.4237 H       1  LIG1        0.0660
     46 H          -7.9670   -8.6109   -2.2345 H       1  LIG1        0.0660
     47 O          -3.4981  -11.2781    1.4606 O.3     1  LIG1       -0.4951
     48 C          -3.7295  -12.6687    1.3712 C.3     1  LIG1        0.0788
     49 H          -3.0615  -13.1306    2.0931 H       1  LIG1        0.0660
     50 H          -4.7667  -12.9055    1.6242 H       1  LIG1        0.0660
     51 H          -3.5002  -13.0369    0.3675 H       1  LIG1        0.0660
@<TRIPOS>BOND
     1    45    43    1
     2    44    43    1
     3    43    46    1
     4    43    42    1
     5     7     1    1
     6     1     5   ar
     7     1     2   ar
     8    37    34    1
     9    42    33    1
    10     6     5    1
    11     8     9    3
    12     9     2    1
    13     5     4   ar
    14     2     3   ar
    15    34    33   ar
    16    34    36   ar
    17    33    35   ar
    18    31    30    1
    19    32    30    1
    20    41    36    1
    21     4     3   ar
    22     4    11    1
    23    36    39   ar
    24     3    10    1
    25    30    27    1
    26    15    11   ar
    27    15    14   ar
    28    35    24    1
    29    35    38   ar
    30    27    24   ar
    31    27    26   ar
    32    24    22   ar
    33    28    26    1
    34    26    23   ar
    35    11    12   ar
    36    22    25    1
    37    22    21   ar
    38    51    48    1
    39    23    21   ar
    40    23    14    1
    41    21    29    1
    42    14    13   ar
    43    39    38   ar
    44    39    47    1
    45    38    40    1
    46    12    13   ar
    47    12    16    1
    48    48    47    1
    49    48    50    1
    50    48    49    1
    51    13    17    1
    52    19    17    1
    53    17    18    1
    54    17    20    1
