@<TRIPOS>MOLECULE
mol_data/opt/m06hf/geoms/mol2/13dd6ii6ee6if-.out
 53 56 0 0 0
SMALL
GASTEIGER

@<TRIPOS>ATOM
      1 C           0.6607    1.2720   -1.2257 C.ar    1  LIG1        0.0209
      2 C           1.1043    0.8003   -0.0143 C.ar    1  LIG1        0.0870
      3 C           0.0620   -0.0170    0.5237 C.ar    1  LIG1        0.0943
      4 C          -0.9796   -0.0124   -0.3834 C.ar    1  LIG1        0.0671
      5 N          -0.5867    0.7732   -1.4275 N.ar    1  LIG1       -0.3584
      6 H          -1.1730    0.9841   -2.2211 H       1  LIG1        0.1654
      7 H           1.1475    1.9181   -1.9347 H       1  LIG1        0.0820
      8 N           3.4062    1.2996    1.0419 N.1     1  LIG1       -0.1908
      9 C           2.3811    1.0757    0.5776 C.1     1  LIG1        0.1020
     10 N           0.0685   -1.3008    2.7621 N.1     1  LIG1       -0.1908
     11 C           0.0776   -0.7325    1.7652 C.1     1  LIG1        0.1026
     12 C          -2.8374   -1.4039   -1.3734 C.ar    1  LIG1        0.0480
     13 C          -2.2983   -0.6728   -0.3044 C.ar    1  LIG1        0.0209
     14 C          -3.0312   -0.5790    0.8779 C.ar    1  LIG1       -0.0459
     15 C          -4.2625   -1.2124    1.0017 C.ar    1  LIG1       -0.0237
     16 C          -4.6981   -1.9354   -0.1179 C.ar    1  LIG1        0.0769
     17 N          -4.0194   -2.0038   -1.2615 N.ar    1  LIG1       -0.2509
     18 H          -2.6385    0.0026    1.7043 H       1  LIG1        0.0628
     19 C          -2.1267   -1.5897   -2.7011 C.3     1  LIG1       -0.0217
     20 H          -1.0489   -1.6763   -2.5646 H       1  LIG1        0.0293
     21 H          -2.3386   -0.7564   -3.3776 H       1  LIG1        0.0293
     22 H          -2.5165   -2.4964   -3.1577 H       1  LIG1        0.0293
     23 C          -5.0799   -1.0865    2.2713 C.3     1  LIG1       -0.0377
     24 H          -4.8981   -1.9437    2.9202 H       1  LIG1        0.0278
     25 H          -6.1442   -1.0471    2.0389 H       1  LIG1        0.0278
     26 H          -4.7983   -0.1763    2.7996 H       1  LIG1        0.0278
     27 C          -6.2492   -3.7647    0.7204 C.ar    1  LIG1        0.1230
     28 C          -6.0034   -2.6676   -0.1165 C.ar    1  LIG1        0.0356
     29 C          -7.0139   -2.2922   -0.9910 C.ar    1  LIG1       -0.0324
     30 C          -8.2281   -2.9778   -0.9874 C.ar    1  LIG1        0.0514
     31 C          -8.3803   -4.0604   -0.0974 C.ar    1  LIG1        0.0896
     32 N          -7.4035   -4.4307    0.7227 N.ar    1  LIG1       -0.2365
     33 H          -6.8623   -1.4649   -1.6714 H       1  LIG1        0.0638
     34 C          -5.2132   -4.2578    1.6066 C.1     1  LIG1       -0.0491
     35 C          -4.3397   -4.6608    2.3259 C.1     1  LIG1       -0.1124
     36 H          -3.5644   -5.0239    2.9616 H       1  LIG1        0.1232
     37 C          -9.2880   -2.5488   -1.8650 C.1     1  LIG1       -0.0675
     38 C         -10.1521   -2.1656   -2.6064 C.1     1  LIG1       -0.1138
     39 H         -10.9265   -1.8357   -3.2599 H       1  LIG1        0.1232
     40 C         -10.2658   -5.1227    1.1985 C.ar    1  LIG1        0.0476
     41 C          -9.6376   -4.8642   -0.0346 C.ar    1  LIG1        0.0260
     42 C         -10.1792   -5.3895   -1.2000 C.ar    1  LIG1       -0.0077
     43 C         -11.3299   -6.1642   -1.1129 C.ar    1  LIG1        0.1355
     44 C         -11.8880   -6.3716    0.1433 C.ar    1  LIG1        0.0693
     45 N         -11.3698   -5.8619    1.2565 N.ar    1  LIG1       -0.2559
     46 H          -9.7249   -5.2199   -2.1675 H       1  LIG1        0.0662
     47 H         -12.7872   -6.9709    0.2540 H       1  LIG1        0.0867
     48 C          -9.7467   -4.5819    2.5161 C.3     1  LIG1       -0.0217
     49 H          -9.4892   -3.5253    2.4289 H       1  LIG1        0.0293
     50 H          -8.8513   -5.1250    2.8177 H       1  LIG1        0.0293
     51 H         -10.5320   -4.7136    3.2568 H       1  LIG1        0.0293
     52 O         -11.8548   -6.6795   -2.2574 O.3     1  LIG1       -0.5052
     53 H         -12.6095   -7.2446   -2.0598 H       1  LIG1        0.2922
@<TRIPOS>BOND
     1    21    19    1
     2    39    38    1
     3    22    19    1
     4    19    20    1
     5    19    12    1
     6    38    37    3
     7    52    53    1
     8    52    43    1
     9     6     5    1
    10    46    42    1
    11     7     1    1
    12    37    30    1
    13    33    29    1
    14     5     1   ar
    15     5     4   ar
    16    12    17   ar
    17    12    13   ar
    18    17    16   ar
    19     1     2   ar
    20    42    43   ar
    21    42    41   ar
    22    43    44   ar
    23    29    30   ar
    24    29    28   ar
    25    30    31   ar
    26     4    13    1
    27     4     3   ar
    28    13    14   ar
    29    16    28    1
    30    16    15   ar
    31    28    27   ar
    32    31    41    1
    33    31    32   ar
    34    41    40   ar
    35     2     3   ar
    36     2     9    1
    37    44    47    1
    38    44    45   ar
    39     3    11    1
    40     9     8    3
    41    27    32   ar
    42    27    34    1
    43    14    15   ar
    44    14    18    1
    45    15    23    1
    46    40    45   ar
    47    40    48    1
    48    34    35    3
    49    11    10    3
    50    25    23    1
    51    23    26    1
    52    23    24    1
    53    35    36    1
    54    49    48    1
    55    48    50    1
    56    48    51    1
