@<TRIPOS>MOLECULE
mol_data/opt/m06hf/geoms/mol2/13dd.out
 12 12 0 0 0
SMALL
GASTEIGER

@<TRIPOS>ATOM
      1 C           1.1189   -0.3837   -0.0001 C.ar    1  LIG1        0.0205
      2 C           0.7173    0.9294    0.0001 C.ar    1  LIG1        0.0863
      3 C          -0.7143    0.9317    0.0004 C.ar    1  LIG1        0.0863
      4 C          -1.1201   -0.3801    0.0003 C.ar    1  LIG1        0.0205
      5 N          -0.0019   -1.1548   -0.0001 N.ar    1  LIG1       -0.3648
      6 H          -0.0035   -2.1634   -0.0002 H       1  LIG1        0.1648
      7 H          -2.1116   -0.7968    0.0004 H       1  LIG1        0.0820
      8 H           2.1091   -0.8036   -0.0004 H       1  LIG1        0.0820
      9 N           2.2763    2.9872    0.0002 N.1     1  LIG1       -0.1908
     10 C           1.5820    2.0739    0.0002 C.1     1  LIG1        0.1019
     11 N          -2.2667    2.9945    0.0009 N.1     1  LIG1       -0.1908
     12 C          -1.5753    2.0790    0.0006 C.1     1  LIG1        0.1019
@<TRIPOS>BOND
     1     8     1    1
     2     6     5    1
     3     1     5   ar
     4     1     2   ar
     5     5     4   ar
     6     2    10    1
     7     2     3   ar
     8    10     9    3
     9     4     3   ar
    10     4     7    1
    11     3    12    1
    12    12    11    3
