@<TRIPOS>MOLECULE
mol_data/opt/m06hf/geoms/mol2/13dd13dd13dd.out
 32 34 0 0 0
SMALL
GASTEIGER

@<TRIPOS>ATOM
      1 C           0.0403    1.6270   -1.2415 C.ar    1  LIG1        0.0210
      2 C           0.7749    0.5461   -0.8099 C.ar    1  LIG1        0.0870
      3 C          -0.1559   -0.4372   -0.3666 C.ar    1  LIG1        0.0957
      4 C          -1.4225    0.0847   -0.5514 C.ar    1  LIG1        0.0831
      5 N          -1.2727    1.3328   -1.0793 N.ar    1  LIG1       -0.3573
      6 H          -2.0381    1.9574   -1.3063 H       1  LIG1        0.1655
      7 H           0.3709    2.5679   -1.6450 H       1  LIG1        0.0820
      8 N           3.3484    0.3686   -0.7979 N.1     1  LIG1       -0.1908
      9 C           2.2043    0.4433   -0.8027 C.1     1  LIG1        0.1020
     10 N           0.2509   -2.7566    0.6836 N.1     1  LIG1       -0.1908
     11 C           0.1139   -1.7205    0.2073 C.1     1  LIG1        0.1026
     12 C          -2.7253   -0.4965   -0.2480 C.ar    1  LIG1        0.0835
     13 C          -3.9597    0.1183   -0.1360 C.ar    1  LIG1        0.0964
     14 C          -4.9039   -0.8923    0.1929 C.ar    1  LIG1        0.0964
     15 C          -4.2124   -2.0883    0.2693 C.ar    1  LIG1        0.0835
     16 N          -2.9057   -1.8219    0.0003 N.ar    1  LIG1       -0.3497
     17 H          -2.1628   -2.5205   -0.0134 H       1  LIG1        0.1661
     18 N          -4.3000    2.6381   -0.5537 N.1     1  LIG1       -0.1908
     19 C          -4.1938    1.5137   -0.3437 C.1     1  LIG1        0.1026
     20 N          -7.4312   -0.7159    0.6635 N.1     1  LIG1       -0.1908
     21 C          -6.3067   -0.7486    0.4309 C.1     1  LIG1        0.1026
     22 C          -4.7067   -3.4299    0.5578 C.ar    1  LIG1        0.0831
     23 C          -4.1118   -4.6582    0.3385 C.ar    1  LIG1        0.0957
     24 C          -5.0274   -5.6559    0.7816 C.ar    1  LIG1        0.0870
     25 C          -6.1425   -4.9974    1.2474 C.ar    1  LIG1        0.0210
     26 N          -5.9326   -3.6660    1.1056 N.ar    1  LIG1       -0.3573
     27 H          -6.5984   -2.9449    1.3591 H       1  LIG1        0.1655
     28 H          -7.0533   -5.3929    1.6616 H       1  LIG1        0.0820
     29 N          -1.7929   -4.9017   -0.7621 N.1     1  LIG1       -0.1908
     30 C          -2.8259   -4.8377   -0.2642 C.1     1  LIG1        0.1026
     31 N          -4.6926   -8.2129    0.7157 N.1     1  LIG1       -0.1908
     32 C          -4.8373   -7.0759    0.7444 C.1     1  LIG1        0.1020
@<TRIPOS>BOND
     1     7     1    1
     2     6     5    1
     3     1     5   ar
     4     1     2   ar
     5     5     4   ar
     6     2     9    1
     7     2     3   ar
     8     9     8    3
     9    29    30    3
    10    18    19    3
    11     4     3   ar
    12     4    12    1
    13     3    11    1
    14    19    13    1
    15    30    23    1
    16    12    13   ar
    17    12    16   ar
    18    13    14   ar
    19    17    16    1
    20    16    15   ar
    21    14    15   ar
    22    14    21    1
    23    11    10    3
    24    15    22    1
    25    23    22   ar
    26    23    24   ar
    27    21    20    3
    28    22    26   ar
    29    31    32    3
    30    32    24    1
    31    24    25   ar
    32    26    25   ar
    33    26    27    1
    34    25    28    1
