@<TRIPOS>MOLECULE
mol_data/opt/m06hf/geoms/mol2/13dd13dd13dd-13dd.out
 42 45 0 0 0
SMALL
GASTEIGER

@<TRIPOS>ATOM
      1 C           1.2588   -0.1459   -0.2416 C.ar    1  LIG1        0.0210
      2 C           0.8786    1.0062    0.4073 C.ar    1  LIG1        0.0870
      3 C          -0.5443    0.9803    0.5177 C.ar    1  LIG1        0.0957
      4 C          -0.9718   -0.1880   -0.0751 C.ar    1  LIG1        0.0831
      5 N           0.1357   -0.8535   -0.5217 N.ar    1  LIG1       -0.3573
      6 H           0.1138   -1.7203   -1.0423 H       1  LIG1        0.1655
      7 H           2.2399   -0.4913   -0.5167 H       1  LIG1        0.0820
      8 N           2.4759    2.8316    1.2873 N.1     1  LIG1       -0.1908
      9 C           1.7614    2.0250    0.8956 C.1     1  LIG1        0.1020
     10 N          -2.0643    2.6838    1.7178 N.1     1  LIG1       -0.1908
     11 C          -1.3841    1.9358    1.1768 C.1     1  LIG1        0.1026
     12 C          -2.3162   -0.7343   -0.2331 C.ar    1  LIG1        0.0835
     13 C          -3.4910   -0.1451   -0.6592 C.ar    1  LIG1        0.0964
     14 C          -4.4863   -1.1634   -0.6642 C.ar    1  LIG1        0.0964
     15 C          -3.8815   -2.3341   -0.2450 C.ar    1  LIG1        0.0835
     16 N          -2.5778   -2.0466    0.0149 N.ar    1  LIG1       -0.3497
     17 H          -1.9075   -2.7005    0.4024 H       1  LIG1        0.1661
     18 N          -3.7650    2.2946   -1.4485 N.1     1  LIG1       -0.1908
     19 C          -3.6460    1.2123   -1.0894 C.1     1  LIG1        0.1026
     20 N          -6.9571   -1.0822   -1.3952 N.1     1  LIG1       -0.1908
     21 C          -5.8543   -1.0719   -1.0766 C.1     1  LIG1        0.1026
     22 C          -4.4114   -3.6859   -0.1297 C.ar    1  LIG1        0.0835
     23 C          -3.7194   -4.8846   -0.1250 C.ar    1  LIG1        0.0964
     24 C          -4.6839   -5.9237   -0.0282 C.ar    1  LIG1        0.0964
     25 C          -5.9300   -5.3213    0.0178 C.ar    1  LIG1        0.0835
     26 N          -5.7359   -3.9755   -0.0442 N.ar    1  LIG1       -0.3497
     27 H          -6.4836   -3.2812   -0.0276 H       1  LIG1        0.1661
     28 N          -1.1488   -4.9375   -0.2834 N.1     1  LIG1       -0.1908
     29 C          -2.2952   -4.9816   -0.2201 C.1     1  LIG1        0.1026
     30 N          -4.3569   -8.4800    0.0032 N.1     1  LIG1       -0.1908
     31 C          -4.4579   -7.3356   -0.0024 C.1     1  LIG1        0.1026
     32 C          -7.2515   -5.9293    0.1215 C.ar    1  LIG1        0.0831
     33 C          -8.4748   -5.3451    0.3926 C.ar    1  LIG1        0.0957
     34 C          -9.4490   -6.3840    0.3909 C.ar    1  LIG1        0.0870
     35 C          -8.7811   -7.5576    0.1243 C.ar    1  LIG1        0.0210
     36 N          -7.4675   -7.2661   -0.0347 N.ar    1  LIG1       -0.3573
     37 H          -6.7439   -7.9469   -0.2357 H       1  LIG1        0.1655
     38 H          -9.1603   -8.5610    0.0395 H       1  LIG1        0.0820
     39 N          -8.7174   -2.8192    0.8467 N.1     1  LIG1       -0.1908
     40 C          -8.6610   -3.9492    0.6485 C.1     1  LIG1        0.1026
     41 N         -11.9839   -6.1443    0.8081 N.1     1  LIG1       -0.1908
     42 C         -10.8566   -6.2458    0.6240 C.1     1  LIG1        0.1020
@<TRIPOS>BOND
     1    18    19    3
     2    20    21    3
     3    19    13    1
     4    21    14    1
     5     6     5    1
     6    14    13   ar
     7    14    15   ar
     8    13    12   ar
     9     5     1   ar
    10     5     4   ar
    11     7     1    1
    12    28    29    3
    13    15    22    1
    14    15    16   ar
    15     1     2   ar
    16    37    36    1
    17    12     4    1
    18    12    16   ar
    19    29    23    1
    20    22    23   ar
    21    22    26   ar
    22    23    24   ar
    23     4     3   ar
    24    26    27    1
    25    26    25   ar
    26    36    32   ar
    27    36    35   ar
    28    24    31    1
    29    24    25   ar
    30    31    30    3
    31    16    17    1
    32    25    32    1
    33    38    35    1
    34    32    33   ar
    35    35    34   ar
    36    34    33   ar
    37    34    42    1
    38    33    40    1
    39     2     3   ar
    40     2     9    1
    41     3    11    1
    42    42    41    3
    43    40    39    3
    44     9     8    3
    45    11    10    3
