@<TRIPOS>MOLECULE
mol_data/opt/m06hf/geoms/mol2/13dd13dd-4dd13dd.out
 44 47 0 0 0
SMALL
GASTEIGER

@<TRIPOS>ATOM
      1 C           1.3922   -0.3979    0.0538 C.ar    1  LIG1        0.0210
      2 C           1.0075    0.8043    0.6019 C.ar    1  LIG1        0.0870
      3 C          -0.4169    0.8210    0.6015 C.ar    1  LIG1        0.0957
      4 C          -0.8427   -0.3745    0.0509 C.ar    1  LIG1        0.0831
      5 N           0.2719   -1.0896   -0.2687 N.ar    1  LIG1       -0.3573
      6 H           0.2637   -2.0131   -0.6871 H       1  LIG1        0.1655
      7 H           2.3783   -0.7908   -0.1220 H       1  LIG1        0.0820
      8 N           2.5797    2.6590    1.4638 N.1     1  LIG1       -0.1908
      9 C           1.8790    1.8362    1.0806 C.1     1  LIG1        0.1020
     10 N          -2.0826    2.6012    1.4387 N.1     1  LIG1       -0.1908
     11 C          -1.2964    1.8434    1.0806 C.1     1  LIG1        0.1026
     12 C          -2.1978   -0.8645   -0.1787 C.ar    1  LIG1        0.0835
     13 C          -2.6343   -2.1009   -0.6255 C.ar    1  LIG1        0.0964
     14 C          -4.0540   -2.0575   -0.6694 C.ar    1  LIG1        0.0950
     15 C          -4.4373   -0.7955   -0.2489 C.ar    1  LIG1        0.0671
     16 N          -3.3005   -0.1036    0.0381 N.ar    1  LIG1       -0.3509
     17 H          -3.2741    0.8583    0.3691 H       1  LIG1        0.1660
     18 N          -1.0000   -3.9922   -1.2509 N.1     1  LIG1       -0.1908
     19 C          -1.7703   -3.1840   -0.9794 C.1     1  LIG1        0.1026
     20 N          -5.6451   -3.9513   -1.3997 N.1     1  LIG1       -0.1908
     21 C          -4.9277   -3.1122   -1.0872 C.1     1  LIG1        0.1026
     22 C          -6.1051    1.1004   -0.3936 C.ar    1  LIG1        0.0616
     23 C          -7.3956    1.6000   -0.2521 C.ar    1  LIG1       -0.0333
     24 C          -5.7967   -0.2395   -0.1064 C.ar    1  LIG1        0.0182
     25 C          -8.4401    0.7671    0.1564 C.ar    1  LIG1        0.0182
     26 H          -7.5769    2.6438   -0.4684 H       1  LIG1        0.0637
     27 C          -6.8303   -1.0687    0.3214 C.ar    1  LIG1       -0.0333
     28 C          -8.1266   -0.5732    0.4394 C.ar    1  LIG1        0.0616
     29 H          -6.6378   -2.1044    0.5675 H       1  LIG1        0.0637
     30 N          -4.2188    2.6992   -1.1859 N.1     1  LIG1       -0.1908
     31 C          -5.0665    2.0045   -0.8466 C.1     1  LIG1        0.0998
     32 N          -9.9606   -2.1960    1.3020 N.1     1  LIG1       -0.1908
     33 C          -9.1484   -1.4925    0.8987 C.1     1  LIG1        0.0998
     34 C          -9.8026    1.3244    0.2644 C.ar    1  LIG1        0.0666
     35 C         -10.3706    2.3794   -0.4321 C.ar    1  LIG1        0.0943
     36 C         -11.7024    2.5406    0.0452 C.ar    1  LIG1        0.0870
     37 C         -11.9015    1.5806    1.0107 C.ar    1  LIG1        0.0209
     38 N         -10.7581    0.8667    1.1265 N.ar    1  LIG1       -0.3584
     39 H         -10.6430    0.0776    1.7497 H       1  LIG1        0.1654
     40 H         -12.7731    1.3692    1.6051 H       1  LIG1        0.0820
     41 N          -9.2407    3.7675   -2.2911 N.1     1  LIG1       -0.1908
     42 C          -9.7537    3.1509   -1.4703 C.1     1  LIG1        0.1026
     43 N         -13.4355    4.2840   -0.7386 N.1     1  LIG1       -0.1908
     44 C         -12.6623    3.5101   -0.3945 C.1     1  LIG1        0.1020
@<TRIPOS>BOND
     1    41    42    3
     2    42    35    1
     3    20    21    3
     4    18    19    3
     5    30    31    3
     6    21    14    1
     7    19    13    1
     8    31    22    1
     9    43    44    3
    10     6     5    1
    11    14    13   ar
    12    14    15   ar
    13    13    12   ar
    14    26    23    1
    15    35    36   ar
    16    35    34   ar
    17    44    36    1
    18    22    23   ar
    19    22    24   ar
    20     5     4   ar
    21     5     1   ar
    22    23    25   ar
    23    15    24    1
    24    15    16   ar
    25    12    16   ar
    26    12     4    1
    27     7     1    1
    28    24    27   ar
    29    16    17    1
    30    36    37   ar
    31     4     3   ar
    32     1     2   ar
    33    25    34    1
    34    25    28   ar
    35    34    38   ar
    36    27    28   ar
    37    27    29    1
    38    28    33    1
    39     3     2   ar
    40     3    11    1
    41     2     9    1
    42    33    32    3
    43    37    38   ar
    44    37    40    1
    45    11    10    3
    46     9     8    3
    47    38    39    1
