@<TRIPOS>MOLECULE
mol_data/opt/m06hf/geoms/mol2/13de13de-4de13de.out
 48 51 0 0 0
SMALL
GASTEIGER

@<TRIPOS>ATOM
      1 C           1.3519   -0.4113   -0.2670 C.ar    1  LIG1        0.0209
      2 C           0.9612    0.9017   -0.4038 C.ar    1  LIG1        0.0850
      3 C          -0.4609    0.9406   -0.2781 C.ar    1  LIG1        0.0687
      4 C          -0.8726   -0.3632   -0.0686 C.ar    1  LIG1        0.0810
      5 N           0.2402   -1.1570   -0.0673 N.ar    1  LIG1       -0.3573
      6 H           0.2317   -2.1607    0.0697 H       1  LIG1        0.1655
      7 H           2.3355   -0.8463   -0.2996 H       1  LIG1        0.0820
      8 N           2.5169    2.9197   -0.8143 N.1     1  LIG1       -0.1908
      9 C           1.8248    2.0229   -0.6309 C.1     1  LIG1        0.1019
     10 C          -1.3045    2.0928   -0.3370 C.1     1  LIG1       -0.0662
     11 C          -2.0246    3.0558   -0.3691 C.1     1  LIG1       -0.1138
     12 H          -2.6500    3.9202   -0.3679 H       1  LIG1        0.1232
     13 C          -2.2181   -0.8923    0.1080 C.ar    1  LIG1        0.0834
     14 C          -2.6519   -2.1946    0.3030 C.ar    1  LIG1        0.0944
     15 C          -4.0727   -2.1733    0.3889 C.ar    1  LIG1        0.0679
     16 C          -4.4567   -0.8491    0.2414 C.ar    1  LIG1        0.0651
     17 N          -3.3200   -0.1064    0.0797 N.ar    1  LIG1       -0.3509
     18 H          -3.2739    0.9030   -0.0445 H       1  LIG1        0.1660
     19 N          -1.0253   -4.1876    0.4521 N.1     1  LIG1       -0.1908
     20 C          -1.7901   -3.3309    0.3949 C.1     1  LIG1        0.1026
     21 C          -4.9025   -3.3171    0.6124 C.1     1  LIG1       -0.0662
     22 C          -5.5706   -4.2984    0.7996 C.1     1  LIG1       -0.1138
     23 H          -6.1544   -5.1729    0.9753 H       1  LIG1        0.1232
     24 C          -6.1390    0.9998    0.6708 C.ar    1  LIG1        0.0616
     25 C          -7.4421    1.4871    0.6213 C.ar    1  LIG1       -0.0334
     26 C          -5.8177   -0.2870    0.2091 C.ar    1  LIG1        0.0181
     27 C          -8.4761    0.7081    0.1031 C.ar    1  LIG1        0.0162
     28 H          -7.6438    2.4796    1.0010 H       1  LIG1        0.0637
     29 C          -6.8550   -1.0641   -0.3046 C.ar    1  LIG1       -0.0353
     30 C          -8.1649   -0.5867   -0.3557 C.ar    1  LIG1        0.0345
     31 H          -6.6453   -2.0551   -0.6816 H       1  LIG1        0.0637
     32 N          -4.3373    2.5662    1.6914 N.1     1  LIG1       -0.1908
     33 C          -5.1277    1.8635    1.2449 C.1     1  LIG1        0.0998
     34 C          -9.1654   -1.4643   -0.9210 C.1     1  LIG1       -0.0690
     35 C          -9.9660   -2.2282   -1.3923 C.1     1  LIG1       -0.1139
     36 H         -10.6635   -2.9049   -1.8326 H       1  LIG1        0.1232
     37 C          -9.8379    1.2714    0.0641 C.ar    1  LIG1        0.0665
     38 C         -10.2495    2.5886   -0.0650 C.ar    1  LIG1        0.0923
     39 C         -11.6762    2.6117   -0.0046 C.ar    1  LIG1        0.0599
     40 C         -12.0767    1.3047    0.1584 C.ar    1  LIG1        0.0189
     41 N         -10.9674    0.5234    0.1970 N.ar    1  LIG1       -0.3585
     42 H         -10.9592   -0.4845    0.2715 H       1  LIG1        0.1654
     43 H         -13.0684    0.8978    0.2467 H       1  LIG1        0.0820
     44 N          -8.7033    4.6272   -0.4050 N.1     1  LIG1       -0.1908
     45 C          -9.4003    3.7260   -0.2595 C.1     1  LIG1        0.1025
     46 C         -12.5172    3.7654   -0.1013 C.1     1  LIG1       -0.0669
     47 C         -13.2136    4.7401   -0.1804 C.1     1  LIG1       -0.1138
     48 H         -13.8247    5.6102   -0.2504 H       1  LIG1        0.1232
@<TRIPOS>BOND
     1    36    35    1
     2    35    34    3
     3    34    30    1
     4     8     9    3
     5    31    29    1
     6     9     2    1
     7    44    45    3
     8     2     3   ar
     9     2     1   ar
    10    11    12    1
    11    11    10    3
    12    30    29   ar
    13    30    27   ar
    14    10     3    1
    15    29    26   ar
    16     7     1    1
    17     3     4   ar
    18     1     5   ar
    19    45    38    1
    20    48    47    1
    21    47    46    3
    22    46    39    1
    23     4     5   ar
    24     4    13    1
    25     5     6    1
    26    38    39   ar
    27    38    37   ar
    28    18    17    1
    29    39    40   ar
    30    37    27    1
    31    37    41   ar
    32    17    13   ar
    33    17    16   ar
    34    27    25   ar
    35    13    14   ar
    36    40    41   ar
    37    40    43    1
    38    41    42    1
    39    26    16    1
    40    26    24   ar
    41    16    15   ar
    42    14    15   ar
    43    14    20    1
    44    15    21    1
    45    20    19    3
    46    21    22    3
    47    25    24   ar
    48    25    28    1
    49    24    33    1
    50    22    23    1
    51    33    32    3
