@<TRIPOS>MOLECULE
mol_data/opt/m06hf/geoms/mol2/13de4al-12il-12il.out
 55 58 0 0 0
SMALL
GASTEIGER

@<TRIPOS>ATOM
      1 C           1.2854   -0.1109    0.6142 C.ar    1  LIG1        0.0209
      2 C           1.0376    0.8999   -0.2830 C.ar    1  LIG1        0.0850
      3 C          -0.3494    0.8375   -0.6365 C.ar    1  LIG1        0.0672
      4 C          -0.8920   -0.2215    0.0679 C.ar    1  LIG1        0.0634
      5 N           0.1179   -0.7729    0.8093 N.ar    1  LIG1       -0.3585
      6 H          -0.0185   -1.5256    1.4666 H       1  LIG1        0.1654
      7 H           2.1970   -0.3837    1.1162 H       1  LIG1        0.0820
      8 N           2.7726    2.5940   -1.1682 N.1     1  LIG1       -0.1908
      9 C           2.0005    1.8405   -0.7767 C.1     1  LIG1        0.1019
     10 C          -1.0135    1.6953   -1.5689 C.1     1  LIG1       -0.0663
     11 C          -1.5509    2.4298   -2.3533 C.1     1  LIG1       -0.1138
     12 H          -2.0162    3.0807   -3.0569 H       1  LIG1        0.1232
     13 C          -3.3619    0.0809   -0.0540 C.ar    1  LIG1       -0.0517
     14 C          -4.6439   -0.4514   -0.0320 C.ar    1  LIG1       -0.0469
     15 C          -2.2616   -0.7662    0.0991 C.ar    1  LIG1        0.0030
     16 C          -4.8637   -1.8167    0.1689 C.ar    1  LIG1        0.0593
     17 H          -5.4984    0.1932   -0.1931 H       1  LIG1        0.0626
     18 C          -2.4676   -2.1338    0.2919 C.ar    1  LIG1       -0.0101
     19 C          -3.7538   -2.6576    0.3428 C.ar    1  LIG1        0.1314
     20 H          -1.6441   -2.8327    0.3738 H       1  LIG1        0.0661
     21 H          -3.2085    1.1404   -0.2055 H       1  LIG1        0.0624
     22 O          -3.8775   -4.0041    0.5290 O.3     1  LIG1       -0.4944
     23 C          -4.5107   -4.4018    1.7448 C.3     1  LIG1        0.0788
     24 H          -4.4351   -5.4853    1.7760 H       1  LIG1        0.0660
     25 H          -3.9862   -3.9625    2.5965 H       1  LIG1        0.0660
     26 H          -5.5606   -4.1040    1.7600 H       1  LIG1        0.0660
     27 C          -6.2382   -2.3418    0.1939 C.ar    1  LIG1        0.1459
     28 C          -7.3702   -1.8755    0.7953 C.ar    1  LIG1        0.0379
     29 C          -8.3785   -2.8493    0.4822 C.ar    1  LIG1        0.1722
     30 C          -7.7846   -3.8238   -0.2654 C.ar    1  LIG1        0.2125
     31 O          -6.4831   -3.5097   -0.4443 O.2     1  LIG1       -0.4475
     32 C          -7.5834   -0.6483    1.6414 C.3     1  LIG1       -0.0326
     33 H          -8.2669   -0.8904    2.4546 H       1  LIG1        0.0280
     34 H          -8.0275    0.1557    1.0513 H       1  LIG1        0.0280
     35 H          -6.6363   -0.3021    2.0544 H       1  LIG1        0.0280
     36 O          -9.6749   -2.7655    0.8896 O.3     1  LIG1       -0.4909
     37 C         -10.6032   -2.5488   -0.1773 C.3     1  LIG1        0.0790
     38 H         -11.5802   -2.4458    0.2882 H       1  LIG1        0.0660
     39 H         -10.3404   -1.6355   -0.7143 H       1  LIG1        0.0660
     40 H         -10.5977   -3.3999   -0.8601 H       1  LIG1        0.0660
     41 C          -8.2933   -5.0510   -0.8646 C.ar    1  LIG1        0.1799
     42 C          -9.2463   -5.9352   -0.4554 C.ar    1  LIG1        0.0402
     43 C          -9.3210   -6.8974   -1.5280 C.ar    1  LIG1        0.1612
     44 C          -8.4131   -6.5289   -2.4656 C.ar    1  LIG1        0.1345
     45 O          -7.7886   -5.4017   -2.0699 O.2     1  LIG1       -0.4557
     46 H          -8.1346   -6.9458   -3.4167 H       1  LIG1        0.1068
     47 C         -10.0483   -5.9642    0.8205 C.3     1  LIG1       -0.0325
     48 H          -9.5540   -6.5925    1.5645 H       1  LIG1        0.0280
     49 H         -11.0329   -6.3842    0.6108 H       1  LIG1        0.0280
     50 H         -10.1564   -4.9607    1.2300 H       1  LIG1        0.0280
     51 O         -10.1669   -7.9638   -1.5868 O.3     1  LIG1       -0.4917
     52 C          -9.7337   -9.0757   -0.8079 C.3     1  LIG1        0.0789
     53 H         -10.4767   -9.8570   -0.9485 H       1  LIG1        0.0660
     54 H          -8.7562   -9.4172   -1.1540 H       1  LIG1        0.0660
     55 H          -9.6734   -8.8049    0.2483 H       1  LIG1        0.0660
@<TRIPOS>BOND
     1    46    44    1
     2    12    11    1
     3    44    45   ar
     4    44    43   ar
     5    11    10    3
     6    45    41   ar
     7    51    43    1
     8    51    52    1
     9    10     3    1
    10    43    42   ar
    11     8     9    3
    12    54    52    1
    13    53    52    1
    14    41    42   ar
    15    41    30    1
    16    40    37    1
    17    52    55    1
    18     9     2    1
    19    39    37    1
    20     3     2   ar
    21     3     4   ar
    22    42    47    1
    23    31    30   ar
    24    31    27   ar
    25     2     1   ar
    26    30    29   ar
    27    21    13    1
    28    17    14    1
    29    37    38    1
    30    37    36    1
    31    13    14   ar
    32    13    15   ar
    33    14    16   ar
    34     4    15    1
    35     4     5   ar
    36    15    18   ar
    37    16    27    1
    38    16    19   ar
    39    27    28   ar
    40    18    19   ar
    41    18    20    1
    42    19    22    1
    43    29    28   ar
    44    29    36    1
    45    22    23    1
    46    49    47    1
    47     1     5   ar
    48     1     7    1
    49    28    32    1
    50     5     6    1
    51    47    50    1
    52    47    48    1
    53    34    32    1
    54    32    35    1
    55    32    33    1
    56    23    26    1
    57    23    24    1
    58    23    25    1
