@<TRIPOS>MOLECULE
mol_data/opt/m06hf/geoms/mol2/13de13de13de13de-.out
 46 49 0 0 0
SMALL
GASTEIGER

@<TRIPOS>ATOM
      1 C           1.1692   -0.5511    0.0898 C.ar    1  LIG1        0.0209
      2 C           0.8776    0.7032   -0.3950 C.ar    1  LIG1        0.0850
      3 C          -0.5468    0.8368   -0.4363 C.ar    1  LIG1        0.0687
      4 C          -1.0595   -0.3535    0.0372 C.ar    1  LIG1        0.0810
      5 N          -0.0054   -1.1779    0.3419 N.ar    1  LIG1       -0.3573
      6 H          -0.0908   -2.0944    0.7596 H       1  LIG1        0.1655
      7 H           2.1209   -1.0188    0.2719 H       1  LIG1        0.0820
      8 N           2.6147    2.4656   -1.1284 N.1     1  LIG1       -0.1908
      9 C           1.8381    1.6869   -0.8017 C.1     1  LIG1        0.1019
     10 C          -1.2959    1.9569   -0.9101 C.1     1  LIG1       -0.0662
     11 C          -1.9309    2.8960   -1.3044 C.1     1  LIG1       -0.1138
     12 H          -2.5002    3.7333   -1.6375 H       1  LIG1        0.1232
     13 C          -2.4381   -0.8056    0.1882 C.ar    1  LIG1        0.0834
     14 C          -3.5773   -0.1802    0.6569 C.ar    1  LIG1        0.0944
     15 C          -4.6505   -1.1285    0.6086 C.ar    1  LIG1        0.0694
     16 C          -4.1168   -2.2973    0.1097 C.ar    1  LIG1        0.0815
     17 N          -2.7842   -2.0835   -0.1338 N.ar    1  LIG1       -0.3498
     18 H          -2.1900   -2.7100   -0.6618 H       1  LIG1        0.1661
     19 N          -3.7545    2.2089    1.6141 N.1     1  LIG1       -0.1908
     20 C          -3.6662    1.1498    1.1818 C.1     1  LIG1        0.1026
     21 C          -5.9928   -0.9374    1.0564 C.1     1  LIG1       -0.0662
     22 C          -7.1251   -0.7922    1.4271 C.1     1  LIG1       -0.1138
     23 H          -8.1354   -0.6644    1.7413 H       1  LIG1        0.1232
     24 C          -4.6547   -3.6396   -0.0652 C.ar    1  LIG1        0.0834
     25 C          -5.8638   -4.1639   -0.4846 C.ar    1  LIG1        0.0944
     26 C          -5.7291   -5.5895   -0.4942 C.ar    1  LIG1        0.0694
     27 C          -4.4373   -5.8716   -0.0876 C.ar    1  LIG1        0.0815
     28 N          -3.8225   -4.6874    0.1734 N.ar    1  LIG1       -0.3498
     29 H          -2.9014   -4.5989    0.5845 H       1  LIG1        0.1661
     30 N          -7.9622   -2.8722   -1.2451 N.1     1  LIG1       -0.1908
     31 C          -7.0236   -3.4350   -0.9006 C.1     1  LIG1        0.1026
     32 C          -6.7160   -6.5539   -0.8693 C.1     1  LIG1       -0.0662
     33 C          -7.5410   -7.3735   -1.1771 C.1     1  LIG1       -0.1138
     34 H          -8.2951   -8.0706   -1.4643 H       1  LIG1        0.1232
     35 C          -3.7194   -7.1287    0.0469 C.ar    1  LIG1        0.0829
     36 C          -2.3694   -7.3544    0.2728 C.ar    1  LIG1        0.0937
     37 C          -2.1649   -8.7687    0.3099 C.ar    1  LIG1        0.0600
     38 C          -3.3998   -9.3386    0.0985 C.ar    1  LIG1        0.0190
     39 N          -4.3150   -8.3412   -0.0551 N.ar    1  LIG1       -0.3573
     40 H          -5.3041   -8.4536   -0.2443 H       1  LIG1        0.1655
     41 H          -3.6723  -10.3780    0.0483 H       1  LIG1        0.0820
     42 N          -0.7514   -5.3614    0.5060 N.1     1  LIG1       -0.1908
     43 C          -1.4105   -6.3004    0.4101 C.1     1  LIG1        0.1026
     44 C          -0.9231   -9.4472    0.5206 C.1     1  LIG1       -0.0669
     45 C           0.1231  -10.0082    0.6998 C.1     1  LIG1       -0.1138
     46 H           1.0518  -10.5059    0.8611 H       1  LIG1        0.1232
@<TRIPOS>BOND
     1    12    11    1
     2    34    33    1
     3    11    10    3
     4    30    31    3
     5    33    32    3
     6     8     9    3
     7    10     3    1
     8    31    25    1
     9    32    26    1
    10     9     2    1
    11    18    17    1
    12    26    25   ar
    13    26    27   ar
    14    25    24   ar
    15     3     2   ar
    16     3     4   ar
    17     2     1   ar
    18    40    39    1
    19    17    16   ar
    20    17    13   ar
    21    27    35    1
    22    27    28   ar
    23    24    16    1
    24    24    28   ar
    25    39    35   ar
    26    39    38   ar
    27     4    13    1
    28     4     5   ar
    29    35    36   ar
    30    41    38    1
    31     1     7    1
    32     1     5   ar
    33    38    37   ar
    34    16    15   ar
    35    28    29    1
    36    13    14   ar
    37    36    37   ar
    38    36    43    1
    39    37    44    1
    40     5     6    1
    41    43    42    3
    42    44    45    3
    43    15    14   ar
    44    15    21    1
    45    14    20    1
    46    45    46    1
    47    21    22    3
    48    20    19    3
    49    22    23    1
