@<TRIPOS>MOLECULE
mol_data/opt/m06hf/geoms/mol2/13de13de13de13de.out
 46 49 0 0 0
SMALL
GASTEIGER

@<TRIPOS>ATOM
      1 C           0.3942    0.5072   -2.4288 C.ar    1  LIG1        0.0209
      2 C           0.6673    1.1232   -1.2294 C.ar    1  LIG1        0.0850
      3 C          -0.3854    0.7920   -0.3186 C.ar    1  LIG1        0.0687
      4 C          -1.2577   -0.0182   -1.0133 C.ar    1  LIG1        0.0810
      5 N          -0.7652   -0.1808   -2.2824 N.ar    1  LIG1       -0.3573
      6 H          -1.2601   -0.6451   -3.0296 H       1  LIG1        0.1655
      7 H           0.9395    0.5275   -3.3559 H       1  LIG1        0.0820
      8 N           2.7303    2.5882   -0.7172 N.1     1  LIG1       -0.1908
      9 C           1.8115    1.9396   -0.9445 C.1     1  LIG1        0.1019
     10 C          -0.5135    1.2005    1.0451 C.1     1  LIG1       -0.0662
     11 C          -0.6267    1.5531    2.1869 C.1     1  LIG1       -0.1138
     12 H          -0.7346    1.8854    3.1939 H       1  LIG1        0.1232
     13 C          -2.4957   -0.6512   -0.5615 C.ar    1  LIG1        0.0834
     14 C          -3.6159   -0.0998    0.0276 C.ar    1  LIG1        0.0944
     15 C          -4.5440   -1.1564    0.2777 C.ar    1  LIG1        0.0694
     16 C          -3.9472   -2.3163   -0.1741 C.ar    1  LIG1        0.0815
     17 N          -2.7162   -1.9907   -0.6734 N.ar    1  LIG1       -0.3498
     18 H          -2.0623   -2.6464   -1.0756 H       1  LIG1        0.1661
     19 N          -3.9665    2.4026    0.5471 N.1     1  LIG1       -0.1908
     20 C          -3.8087    1.2905    0.3150 C.1     1  LIG1        0.1026
     21 C          -5.8367   -1.0486    0.8769 C.1     1  LIG1       -0.0662
     22 C          -6.9263   -0.9534    1.3705 C.1     1  LIG1       -0.1138
     23 H          -7.9002   -0.8634    1.7934 H       1  LIG1        0.1232
     24 C          -4.4482   -3.6898   -0.1490 C.ar    1  LIG1        0.0834
     25 C          -5.6207   -4.2168   -0.6516 C.ar    1  LIG1        0.0944
     26 C          -5.6305   -5.6155   -0.3626 C.ar    1  LIG1        0.0694
     27 C          -4.4533   -5.8858    0.3067 C.ar    1  LIG1        0.0815
     28 N          -3.7577   -4.7141    0.4250 N.ar    1  LIG1       -0.3498
     29 H          -2.8612   -4.6213    0.8798 H       1  LIG1        0.1661
     30 N          -7.4362   -2.8885   -1.9144 N.1     1  LIG1       -0.1908
     31 C          -6.6299   -3.4797   -1.3524 C.1     1  LIG1        0.1026
     32 C          -6.6512   -6.5606   -0.6883 C.1     1  LIG1       -0.0662
     33 C          -7.5024   -7.3591   -0.9668 C.1     1  LIG1       -0.1138
     34 H          -8.2517   -8.0709   -1.2266 H       1  LIG1        0.1232
     35 C          -3.9549   -7.1510    0.8434 C.ar    1  LIG1        0.0829
     36 C          -3.7822   -8.3703    0.2246 C.ar    1  LIG1        0.0937
     37 C          -3.2758   -9.2855    1.2016 C.ar    1  LIG1        0.0600
     38 C          -3.1599   -8.5784    2.3761 C.ar    1  LIG1        0.0190
     39 N          -3.5673   -7.3000    2.1443 N.ar    1  LIG1       -0.3573
     40 H          -3.6813   -6.5908    2.8531 H       1  LIG1        0.1655
     41 H          -2.8256   -8.9061    3.3443 H       1  LIG1        0.0820
     42 N          -4.2274   -8.8651   -2.2684 N.1     1  LIG1       -0.1908
     43 C          -4.0340   -8.6454   -1.1591 C.1     1  LIG1        0.1026
     44 C          -2.9494  -10.6637    0.9924 C.1     1  LIG1       -0.0669
     45 C          -2.6820  -11.8194    0.8060 C.1     1  LIG1       -0.1138
     46 H          -2.4519  -12.8458    0.6331 H       1  LIG1        0.1232
@<TRIPOS>BOND
     1     7     1    1
     2     6     5    1
     3     1     5   ar
     4     1     2   ar
     5     5     4   ar
     6    42    43    3
     7    30    31    3
     8    31    25    1
     9     2     9    1
    10     2     3   ar
    11    34    33    1
    12    43    36    1
    13    18    17    1
    14     4    13    1
    15     4     3   ar
    16    33    32    3
    17     9     8    3
    18    32    26    1
    19    17    13   ar
    20    17    16   ar
    21    25    26   ar
    22    25    24   ar
    23    13    14   ar
    24    26    27   ar
    25     3    10    1
    26    16    24    1
    27    16    15   ar
    28    24    28   ar
    29    14    15   ar
    30    14    20    1
    31    36    35   ar
    32    36    37   ar
    33    15    21    1
    34    27    28   ar
    35    27    35    1
    36    20    19    3
    37    28    29    1
    38    46    45    1
    39    45    44    3
    40    35    39   ar
    41    21    22    3
    42    44    37    1
    43    10    11    3
    44    37    38   ar
    45    22    23    1
    46    39    38   ar
    47    39    40    1
    48    11    12    1
    49    38    41    1
