@<TRIPOS>MOLECULE
mol_data/opt/m06hf/geoms/mol2/13de13de13de-13de.out
 46 49 0 0 0
SMALL
GASTEIGER

@<TRIPOS>ATOM
      1 C           1.2471   -0.2028   -0.5457 C.ar    1  LIG1        0.0209
      2 C           0.9408    0.9540    0.1331 C.ar    1  LIG1        0.0850
      3 C          -0.4760    0.9832    0.3329 C.ar    1  LIG1        0.0687
      4 C          -0.9708   -0.1670   -0.2468 C.ar    1  LIG1        0.0810
      5 N           0.0879   -0.8693   -0.7644 N.ar    1  LIG1       -0.3573
      6 H           0.0039   -1.7267   -1.2925 H       1  LIG1        0.1655
      7 H           2.1987   -0.5764   -0.8807 H       1  LIG1        0.0820
      8 N           2.6470    2.7206    0.9267 N.1     1  LIG1       -0.1908
      9 C           1.8840    1.9396    0.5741 C.1     1  LIG1        0.1019
     10 C          -1.2287    1.9792    1.0270 C.1     1  LIG1       -0.0662
     11 C          -1.8647    2.8178    1.6042 C.1     1  LIG1       -0.1138
     12 H          -2.4362    3.5699    2.0976 H       1  LIG1        0.1232
     13 C          -2.3312   -0.6891   -0.3129 C.ar    1  LIG1        0.0834
     14 C          -3.5447   -0.0777   -0.5702 C.ar    1  LIG1        0.0944
     15 C          -4.5524   -1.0884   -0.5218 C.ar    1  LIG1        0.0694
     16 C          -3.9080   -2.2810   -0.2496 C.ar    1  LIG1        0.0815
     17 N          -2.5748   -2.0128   -0.1234 N.ar    1  LIG1       -0.3498
     18 H          -1.8756   -2.6841    0.1703 H       1  LIG1        0.1661
     19 N          -3.9562    2.3940   -1.1804 N.1     1  LIG1       -0.1908
     20 C          -3.7619    1.2987   -0.8998 C.1     1  LIG1        0.1026
     21 C          -5.9568   -0.9244   -0.7242 C.1     1  LIG1       -0.0662
     22 C          -7.1418   -0.7914   -0.8810 C.1     1  LIG1       -0.1138
     23 H          -8.1977   -0.6891   -1.0006 H       1  LIG1        0.1232
     24 C          -4.4319   -3.6324   -0.1219 C.ar    1  LIG1        0.0834
     25 C          -3.7392   -4.8307   -0.0569 C.ar    1  LIG1        0.0944
     26 C          -4.6945   -5.8796    0.0650 C.ar    1  LIG1        0.0694
     27 C          -5.9418   -5.2764    0.0642 C.ar    1  LIG1        0.0815
     28 N          -5.7554   -3.9272   -0.0495 N.ar    1  LIG1       -0.3498
     29 H          -6.4905   -3.2221   -0.0953 H       1  LIG1        0.1661
     30 N          -1.1684   -4.9380   -0.1950 N.1     1  LIG1       -0.1908
     31 C          -2.3165   -4.9470   -0.1315 C.1     1  LIG1        0.1026
     32 C          -4.3977   -7.2752    0.1579 C.1     1  LIG1       -0.0662
     33 C          -4.1308   -8.4460    0.2331 C.1     1  LIG1       -0.1138
     34 H          -3.8624   -9.4762    0.2956 H       1  LIG1        0.1232
     35 C          -7.2532   -5.9052    0.1700 C.ar    1  LIG1        0.0829
     36 C          -8.5329   -5.3767    0.1602 C.ar    1  LIG1        0.0937
     37 C          -9.4556   -6.4590    0.3047 C.ar    1  LIG1        0.0600
     38 C          -8.6956   -7.6021    0.3962 C.ar    1  LIG1        0.0190
     39 N          -7.3852   -7.2513    0.3138 N.ar    1  LIG1       -0.3573
     40 H          -6.5955   -7.8847    0.3507 H       1  LIG1        0.1655
     41 H          -9.0081   -8.6245    0.5135 H       1  LIG1        0.0820
     42 N          -9.1229   -2.8792   -0.0798 N.1     1  LIG1       -0.1908
     43 C          -8.8697   -3.9946    0.0282 C.1     1  LIG1        0.1026
     44 C         -10.8823   -6.3599    0.3463 C.1     1  LIG1       -0.0669
     45 C         -12.0784   -6.2625    0.3781 C.1     1  LIG1       -0.1138
     46 H         -13.1398   -6.1703    0.4052 H       1  LIG1        0.1232
@<TRIPOS>BOND
     1     6     5    1
     2    19    20    3
     3    23    22    1
     4    20    14    1
     5    22    21    3
     6     7     1    1
     7     5     1   ar
     8     5     4   ar
     9    21    15    1
    10    14    15   ar
    11    14    13   ar
    12     1     2   ar
    13    15    16   ar
    14    13     4    1
    15    13    17   ar
    16    16    17   ar
    17    16    24    1
    18     4     3   ar
    19    30    31    3
    20    31    25    1
    21    17    18    1
    22    24    25   ar
    23    24    28   ar
    24    29    28    1
    25    42    43    3
    26    25    26   ar
    27    28    27   ar
    28    43    36    1
    29    27    26   ar
    30    27    35    1
    31    26    32    1
    32     2     3   ar
    33     2     9    1
    34    32    33    3
    35    36    35   ar
    36    36    37   ar
    37    35    39   ar
    38    33    34    1
    39    37    44    1
    40    37    38   ar
    41    39    40    1
    42    39    38   ar
    43     3    10    1
    44    44    45    3
    45    45    46    1
    46    38    41    1
    47     9     8    3
    48    10    11    3
    49    11    12    1
