@<TRIPOS>MOLECULE
mol_data/opt/m06hf/geoms/mol2/13de13de-13de.out
 35 37 0 0 0
SMALL
GASTEIGER

@<TRIPOS>ATOM
      1 C           1.2813   -0.4110   -0.0010 C.ar    1  LIG1        0.0209
      2 C           0.9254    0.9185   -0.0005 C.ar    1  LIG1        0.0850
      3 C          -0.5011    0.9808    0.0002 C.ar    1  LIG1        0.0687
      4 C          -0.9527   -0.3262    0.0002 C.ar    1  LIG1        0.0810
      5 N           0.1446   -1.1445   -0.0006 N.ar    1  LIG1       -0.3573
      6 H           0.1097   -2.1568   -0.0008 H       1  LIG1        0.1655
      7 H           2.2559   -0.8663   -0.0016 H       1  LIG1        0.0820
      8 N           2.5387    2.9327   -0.0009 N.1     1  LIG1       -0.1908
      9 C           1.8217    2.0369   -0.0008 C.1     1  LIG1        0.1019
     10 C          -1.3098    2.1586    0.0009 C.1     1  LIG1       -0.0662
     11 C          -1.9848    3.1546    0.0014 C.1     1  LIG1       -0.1138
     12 H          -2.6009    4.0265    0.0019 H       1  LIG1        0.1232
     13 C          -2.3133   -0.8487    0.0008 C.ar    1  LIG1        0.0834
     14 C          -2.7499   -2.1630    0.0007 C.ar    1  LIG1        0.0944
     15 C          -4.1732   -2.1509    0.0015 C.ar    1  LIG1        0.0694
     16 C          -4.5560   -0.8200    0.0019 C.ar    1  LIG1        0.0815
     17 N          -3.4205   -0.0588    0.0015 N.ar    1  LIG1       -0.3498
     18 H          -3.3805    0.9601    0.0017 H       1  LIG1        0.1661
     19 N          -1.1621   -4.1931   -0.0005 N.1     1  LIG1       -0.1908
     20 C          -1.9028   -3.3141    0.0001 C.1     1  LIG1        0.1026
     21 C          -5.0139   -3.3084    0.0017 C.1     1  LIG1       -0.0662
     22 C          -5.7012   -4.2967    0.0019 C.1     1  LIG1       -0.1138
     23 H          -6.2792   -5.1932    0.0020 H       1  LIG1        0.1232
     24 C          -5.9075   -0.2708    0.0027 C.ar    1  LIG1        0.0829
     25 C          -6.3834    1.0297    0.0032 C.ar    1  LIG1        0.0937
     26 C          -7.8123    0.9747    0.0039 C.ar    1  LIG1        0.0600
     27 C          -8.1453   -0.3597    0.0040 C.ar    1  LIG1        0.0190
     28 N          -6.9966   -1.0857    0.0033 N.ar    1  LIG1       -0.3573
     29 H          -6.9319   -2.0971    0.0031 H       1  LIG1        0.1655
     30 H          -9.1148   -0.8247    0.0045 H       1  LIG1        0.0820
     31 N          -4.9483    3.1708    0.0026 N.1     1  LIG1       -0.1908
     32 C          -5.5917    2.2190    0.0029 C.1     1  LIG1        0.1026
     33 C          -8.7068    2.0911    0.0046 C.1     1  LIG1       -0.0669
     34 C          -9.4501    3.0339    0.0051 C.1     1  LIG1       -0.1138
     35 H         -10.1056    3.8742    0.0056 H       1  LIG1        0.1232
@<TRIPOS>BOND
     1     7     1    1
     2     1     5   ar
     3     1     2   ar
     4     8     9    3
     5     6     5    1
     6     9     2    1
     7     5     4   ar
     8     2     3   ar
     9    19    20    3
    10    20    14    1
    11     4     3   ar
    12     4    13    1
    13     3    10    1
    14    14    13   ar
    15    14    15   ar
    16    13    17   ar
    17    10    11    3
    18    11    12    1
    19    15    21    1
    20    15    16   ar
    21    17    18    1
    22    17    16   ar
    23    21    22    3
    24    22    23    1
    25    16    24    1
    26    31    32    3
    27    24    25   ar
    28    24    28   ar
    29    32    25    1
    30    29    28    1
    31    25    26   ar
    32    28    27   ar
    33    26    27   ar
    34    26    33    1
    35    27    30    1
    36    33    34    3
    37    34    35    1
