@<TRIPOS>MOLECULE
mol_data/opt/m06hf/geoms/mol2/13de13de13de-13de-.out
 46 49 0 0 0
SMALL
GASTEIGER

@<TRIPOS>ATOM
      1 C           1.2319   -0.1106   -0.6263 C.ar    1  LIG1        0.0209
      2 C           0.8676    1.0683   -0.0178 C.ar    1  LIG1        0.0850
      3 C          -0.5496    1.0406    0.1772 C.ar    1  LIG1        0.0687
      4 C          -0.9858   -0.1646   -0.3334 C.ar    1  LIG1        0.0810
      5 N           0.1073   -0.8445   -0.8063 N.ar    1  LIG1       -0.3573
      6 H           0.0677   -1.7340   -1.2833 H       1  LIG1        0.1655
      7 H           2.2018   -0.4570   -0.9379 H       1  LIG1        0.0820
      8 N           2.4775    2.9679    0.6642 N.1     1  LIG1       -0.1908
      9 C           1.7584    2.1263    0.3617 C.1     1  LIG1        0.1019
     10 C          -1.3528    2.0402    0.8064 C.1     1  LIG1       -0.0662
     11 C          -2.0311    2.8813    1.3290 C.1     1  LIG1       -0.1138
     12 H          -2.6369    3.6361    1.7747 H       1  LIG1        0.1232
     13 C          -2.3235   -0.7458   -0.3710 C.ar    1  LIG1        0.0834
     14 C          -3.5524   -0.1966   -0.6857 C.ar    1  LIG1        0.0944
     15 C          -4.5281   -1.2325   -0.5626 C.ar    1  LIG1        0.0694
     16 C          -3.8492   -2.3777   -0.1857 C.ar    1  LIG1        0.0815
     17 N          -2.5288   -2.0581   -0.0735 N.ar    1  LIG1       -0.3498
     18 H          -1.8133   -2.6900    0.2695 H       1  LIG1        0.1661
     19 N          -4.0589    2.2030   -1.4841 N.1     1  LIG1       -0.1908
     20 C          -3.8153    1.1416   -1.1223 C.1     1  LIG1        0.1026
     21 C          -5.9331   -1.1230   -0.8076 C.1     1  LIG1       -0.0662
     22 C          -7.1144   -1.0301   -1.0166 C.1     1  LIG1       -0.1138
     23 H          -8.1527   -0.9070   -1.2265 H       1  LIG1        0.1232
     24 C          -4.3491   -3.7211    0.0627 C.ar    1  LIG1        0.0834
     25 C          -3.6661   -4.9046    0.2952 C.ar    1  LIG1        0.0944
     26 C          -4.6291   -5.9439    0.4640 C.ar    1  LIG1        0.0694
     27 C          -5.8661   -5.3470    0.3175 C.ar    1  LIG1        0.0815
     28 N          -5.6722   -4.0131    0.0820 N.ar    1  LIG1       -0.3498
     29 H          -6.3931   -3.3398   -0.1562 H       1  LIG1        0.1661
     30 N          -1.0905   -4.9438    0.3446 N.1     1  LIG1       -0.1908
     31 C          -2.2393   -4.9948    0.3356 C.1     1  LIG1        0.1026
     32 C          -4.3720   -7.3199    0.7457 C.1     1  LIG1       -0.0662
     33 C          -4.1588   -8.4787    0.9729 C.1     1  LIG1       -0.1138
     34 H          -3.9737   -9.5117    1.1591 H       1  LIG1        0.1232
     35 C          -7.2033   -5.9269    0.4056 C.ar    1  LIG1        0.0829
     36 C          -7.7379   -7.0478   -0.1943 C.ar    1  LIG1        0.0937
     37 C          -9.0997   -7.1597    0.2332 C.ar    1  LIG1        0.0600
     38 C          -9.3344   -6.0976    1.0756 C.ar    1  LIG1        0.0190
     39 N          -8.1895   -5.3666    1.1654 N.ar    1  LIG1       -0.3573
     40 H          -8.0497   -4.5784    1.7803 H       1  LIG1        0.1655
     41 H         -10.2296   -5.8285    1.6076 H       1  LIG1        0.0820
     42 N          -6.5196   -8.6026   -1.8552 N.1     1  LIG1       -0.1908
     43 C          -7.0586   -7.9114   -1.1145 C.1     1  LIG1        0.1026
     44 C         -10.0367   -8.1698   -0.1556 C.1     1  LIG1       -0.0669
     45 C         -10.8161   -9.0189   -0.4917 C.1     1  LIG1       -0.1138
     46 H         -11.5027   -9.7744   -0.7977 H       1  LIG1        0.1232
@<TRIPOS>BOND
     1    42    43    3
     2    19    20    3
     3     6     5    1
     4    23    22    1
     5    20    14    1
     6    43    36    1
     7    22    21    3
     8     7     1    1
     9    21    15    1
    10     5     1   ar
    11     5     4   ar
    12    46    45    1
    13    14    15   ar
    14    14    13   ar
    15     1     2   ar
    16    15    16   ar
    17    45    44    3
    18    13     4    1
    19    13    17   ar
    20     4     3   ar
    21    36    37   ar
    22    36    35   ar
    23    16    17   ar
    24    16    24    1
    25    29    28    1
    26    44    37    1
    27    17    18    1
    28     2     3   ar
    29     2     9    1
    30    24    28   ar
    31    24    25   ar
    32    28    27   ar
    33     3    10    1
    34    37    38   ar
    35    25    31    1
    36    25    26   ar
    37    27    35    1
    38    27    26   ar
    39    31    30    3
    40     9     8    3
    41    35    39   ar
    42    26    32    1
    43    32    33    3
    44    10    11    3
    45    33    34    1
    46    38    39   ar
    47    38    41    1
    48    39    40    1
    49    11    12    1
