@<TRIPOS>MOLECULE
mol_data/opt/m06hf/geoms/mol2/13de13lf4dh-6af.out
 49 52 0 0 0
SMALL
GASTEIGER

@<TRIPOS>ATOM
      1 C           1.4290    0.0331   -0.4078 C.ar    1  LIG1        0.0209
      2 C           1.0901    1.0518    0.4509 C.ar    1  LIG1        0.0850
      3 C          -0.3147    0.9530    0.7180 C.ar    1  LIG1        0.0688
      4 C          -0.7732   -0.1294   -0.0041 C.ar    1  LIG1        0.0835
      5 N           0.2979   -0.6689   -0.6701 N.ar    1  LIG1       -0.3572
      6 H           0.2196   -1.4288   -1.3282 H       1  LIG1        0.1655
      7 H           2.3818   -0.2210   -0.8373 H       1  LIG1        0.0820
      8 N           2.7301    2.7980    1.4127 N.1     1  LIG1       -0.1908
      9 C           1.9961    2.0248    0.9879 C.1     1  LIG1        0.1019
     10 C          -1.0849    1.7882    1.5849 C.1     1  LIG1       -0.0662
     11 C          -1.7219    2.4898    2.3215 C.1     1  LIG1       -0.1138
     12 H          -2.2907    3.1148    2.9701 H       1  LIG1        0.1232
     13 C          -2.1118   -0.6961   -0.1189 C.ar    1  LIG1        0.1105
     14 C          -3.3169   -0.0733   -0.3527 C.ar    1  LIG1        0.1888
     15 C          -4.3230   -1.0847   -0.3662 C.ar    1  LIG1        0.1851
     16 C          -3.6963   -2.2946   -0.1382 C.ar    1  LIG1        0.0941
     17 N          -2.3522   -2.0450   -0.0108 N.ar    1  LIG1       -0.3471
     18 H          -1.7128   -2.6927    0.4256 H       1  LIG1        0.1662
     19 O          -3.4967    1.2517   -0.5578 O.3     1  LIG1       -0.4895
     20 C          -4.0094    1.5658   -1.8544 C.3     1  LIG1        0.0791
     21 H          -4.1163    2.6470   -1.8816 H       1  LIG1        0.0660
     22 H          -3.3008    1.2397   -2.6189 H       1  LIG1        0.0660
     23 H          -4.9741    1.0803   -2.0033 H       1  LIG1        0.0660
     24 O          -5.6341   -0.8742   -0.6789 O.3     1  LIG1       -0.5019
     25 H          -6.1611   -0.8420    0.1339 H       1  LIG1        0.2924
     26 C          -5.4206   -3.9598    0.6072 C.ar    1  LIG1        0.0617
     27 C          -5.8875   -5.2733    0.6628 C.ar    1  LIG1       -0.0342
     28 C          -4.2251   -3.6646   -0.0664 C.ar    1  LIG1        0.0211
     29 C          -5.1838   -6.3149    0.0773 C.ar    1  LIG1        0.0056
     30 H          -6.8028   -5.4885    1.2001 H       1  LIG1        0.0637
     31 C          -3.5233   -4.7066   -0.6638 C.ar    1  LIG1       -0.0300
     32 C          -3.9778   -6.0313   -0.6054 C.ar    1  LIG1        0.0331
     33 H          -2.6235   -4.4804   -1.2232 H       1  LIG1        0.0643
     34 N          -6.7364   -2.0961    1.8364 N.1     1  LIG1       -0.1908
     35 C          -6.1513   -2.9236    1.2938 C.1     1  LIG1        0.0998
     36 N          -3.2521   -7.0360   -1.1969 N.pl3   1  LIG1       -0.3575
     37 H          -3.7274   -7.9064   -1.3869 H       1  LIG1        0.1423
     38 H          -2.5550   -6.7698   -1.8742 H       1  LIG1        0.1423
     39 C          -4.9207   -8.7394    0.6975 C.ar    1  LIG1        0.0356
     40 C          -5.7086   -7.7085    0.1666 C.ar    1  LIG1        0.0055
     41 C          -7.0046   -8.0117   -0.2394 C.ar    1  LIG1       -0.0095
     42 C          -7.4596   -9.3185   -0.0966 C.ar    1  LIG1        0.1354
     43 C          -6.5943  -10.2740    0.4367 C.ar    1  LIG1        0.0690
     44 N          -5.3559   -9.9878    0.8221 N.ar    1  LIG1       -0.2590
     45 H          -7.6571   -7.2610   -0.6673 H       1  LIG1        0.0661
     46 H          -6.9200  -11.3030    0.5555 H       1  LIG1        0.0867
     47 H          -3.9117   -8.5340    1.0357 H       1  LIG1        0.0836
     48 O          -8.7238   -9.6066   -0.4918 O.3     1  LIG1       -0.5052
     49 H          -8.9326  -10.5340   -0.3352 H       1  LIG1        0.2922
@<TRIPOS>BOND
     1    22    20    1
     2    23    20    1
     3    21    20    1
     4    38    36    1
     5    20    19    1
     6    37    36    1
     7     6     5    1
     8    33    31    1
     9    36    32    1
    10     7     1    1
    11    24    15    1
    12    24    25    1
    13     5     1   ar
    14     5     4   ar
    15    45    41    1
    16    31    32   ar
    17    31    28   ar
    18    32    29   ar
    19    19    14    1
    20    48    49    1
    21    48    42    1
    22     1     2   ar
    23    15    14   ar
    24    15    16   ar
    25    14    13   ar
    26    41    42   ar
    27    41    40   ar
    28    16    28    1
    29    16    17   ar
    30    13    17   ar
    31    13     4    1
    32    42    43   ar
    33    28    26   ar
    34    17    18    1
    35     4     3   ar
    36    29    40    1
    37    29    27   ar
    38    40    39   ar
    39    43    46    1
    40    43    44   ar
    41     2     3   ar
    42     2     9    1
    43    26    27   ar
    44    26    35    1
    45    27    30    1
    46    39    44   ar
    47    39    47    1
    48     3    10    1
    49     9     8    3
    50    35    34    3
    51    10    11    3
    52    11    12    1
