@<TRIPOS>MOLECULE
mol_data/opt/m06hf/geoms/mol2/13de13if-4de-4ef.out
 51 54 0 0 0
SMALL
GASTEIGER

@<TRIPOS>ATOM
      1 C           0.9162    0.3167    1.5247 C.ar    1  LIG1        0.0209
      2 C           0.8442    1.1122    0.4058 C.ar    1  LIG1        0.0850
      3 C          -0.4256    0.8772   -0.2154 C.ar    1  LIG1        0.0687
      4 C          -1.0786   -0.0559    0.5632 C.ar    1  LIG1        0.0801
      5 N          -0.2460   -0.3798    1.6033 N.ar    1  LIG1       -0.3573
      6 H          -0.5151   -0.9820    2.3668 H       1  LIG1        0.1655
      7 H           1.7032    0.2145    2.2509 H       1  LIG1        0.0820
      8 N           2.6895    2.7120   -0.4309 N.1     1  LIG1       -0.1908
      9 C           1.8679    2.0023   -0.0590 C.1     1  LIG1        0.1019
     10 C          -0.9152    1.4685   -1.4222 C.1     1  LIG1       -0.0662
     11 C          -1.3143    1.9738   -2.4362 C.1     1  LIG1       -0.1138
     12 H          -1.6598    2.4243   -3.3378 H       1  LIG1        0.1232
     13 C          -2.4040   -0.6562    0.4101 C.ar    1  LIG1        0.0711
     14 C          -3.6364   -0.0532    0.2643 C.ar    1  LIG1        0.0183
     15 C          -4.5844   -1.1097    0.2129 C.ar    1  LIG1        0.1456
     16 C          -3.9104   -2.3149    0.3229 C.ar    1  LIG1        0.0905
     17 N          -2.5798   -2.0133    0.4421 N.ar    1  LIG1       -0.3498
     18 H          -1.8396   -2.6936    0.5156 H       1  LIG1        0.1661
     19 C          -3.9533    1.4156    0.1778 C.3     1  LIG1       -0.0342
     20 H          -4.8859    1.6182    0.7036 H       1  LIG1        0.0279
     21 H          -4.0675    1.7175   -0.8635 H       1  LIG1        0.0279
     22 H          -3.1490    2.0026    0.6206 H       1  LIG1        0.0279
     23 O          -5.9208   -0.9344   -0.0001 O.3     1  LIG1       -0.5044
     24 H          -6.4089   -1.0678    0.8248 H       1  LIG1        0.2922
     25 C          -5.5380   -4.1406    0.8978 C.ar    1  LIG1        0.0616
     26 C          -5.9935   -5.4516    0.7845 C.ar    1  LIG1       -0.0348
     27 C          -4.3829   -3.7029    0.2309 C.ar    1  LIG1        0.0204
     28 C          -5.2936   -6.3825    0.0215 C.ar    1  LIG1        0.0000
     29 H          -6.8918   -5.7525    1.3071 H       1  LIG1        0.0637
     30 C          -3.6895   -4.6382   -0.5353 C.ar    1  LIG1       -0.0353
     31 C          -4.1249   -5.9622   -0.6375 C.ar    1  LIG1        0.0331
     32 H          -2.8194   -4.3316   -1.1010 H       1  LIG1        0.0637
     33 N          -6.8291   -2.5068    2.4482 N.1     1  LIG1       -0.1908
     34 C          -6.2583   -3.2296    1.7609 C.1     1  LIG1        0.0998
     35 C          -3.3614   -6.8643   -1.4691 C.1     1  LIG1       -0.0690
     36 C          -2.6994   -7.5824   -2.1690 C.1     1  LIG1       -0.1139
     37 H          -2.1235   -8.2241   -2.7959 H       1  LIG1        0.1232
     38 C          -7.1074   -8.0617   -0.4618 C.ar    1  LIG1        0.0326
     39 C          -7.5494   -9.3913   -0.4937 C.ar    1  LIG1       -0.0423
     40 C          -5.7909   -7.7873   -0.0619 C.ar    1  LIG1        0.0021
     41 C          -6.7086  -10.4308   -0.1386 C.ar    1  LIG1       -0.0190
     42 H          -8.5647   -9.5933   -0.8064 H       1  LIG1        0.0631
     43 C          -4.9440   -8.8362    0.2938 C.ar    1  LIG1       -0.0113
     44 C          -5.3986  -10.1505    0.2541 C.ar    1  LIG1        0.1175
     45 H          -3.9288   -8.6185    0.6056 H       1  LIG1        0.0660
     46 H          -7.0366  -11.4608   -0.1573 H       1  LIG1        0.0654
     47 C          -8.0121   -7.0084   -0.8596 C.1     1  LIG1       -0.0690
     48 C          -8.7839   -6.1496   -1.1941 C.1     1  LIG1       -0.1139
     49 H          -9.4606   -5.3836   -1.4957 H       1  LIG1        0.1232
     50 O          -4.6135  -11.2033    0.5960 O.3     1  LIG1       -0.5067
     51 H          -3.7273  -10.9094    0.8319 H       1  LIG1        0.2921
@<TRIPOS>BOND
     1    12    11    1
     2    37    36    1
     3    11    10    3
     4    36    35    3
     5    49    48    1
     6    35    31    1
     7    10     3    1
     8    48    47    3
     9    32    30    1
    10    21    19    1
    11    47    38    1
    12    42    39    1
    13    31    30   ar
    14    31    28   ar
    15    30    27   ar
    16    39    38   ar
    17    39    41   ar
    18    38    40   ar
    19     8     9    3
    20     3     2   ar
    21     3     4   ar
    22    46    41    1
    23    41    44   ar
    24    40    28    1
    25    40    43   ar
    26     9     2    1
    27    23    15    1
    28    23    24    1
    29    28    26   ar
    30    19    14    1
    31    19    22    1
    32    19    20    1
    33    15    14   ar
    34    15    16   ar
    35    27    16    1
    36    27    25   ar
    37    44    43   ar
    38    44    50    1
    39    14    13   ar
    40    43    45    1
    41    16    17   ar
    42     2     1   ar
    43    13    17   ar
    44    13     4    1
    45    17    18    1
    46     4     5   ar
    47    50    51    1
    48    26    25   ar
    49    26    29    1
    50    25    34    1
    51     1     5   ar
    52     1     7    1
    53     5     6    1
    54    34    33    3
