@<TRIPOS>MOLECULE
mol_data/opt/m06hf/geoms/mol2/13de13dd13ha-4fi.out
 47 50 0 0 0
SMALL
GASTEIGER

@<TRIPOS>ATOM
      1 C           0.5821    0.4646    1.8952 C.ar    1  LIG1        0.0209
      2 C           0.7019    1.1302    0.6971 C.ar    1  LIG1        0.0850
      3 C          -0.4552    0.8270   -0.0886 C.ar    1  LIG1        0.0687
      4 C          -1.2319   -0.0179    0.6757 C.ar    1  LIG1        0.0810
      5 N          -0.5833   -0.2265    1.8656 N.ar    1  LIG1       -0.3573
      6 H          -0.9782   -0.7304    2.6460 H       1  LIG1        0.1655
      7 H           1.2392    0.4527    2.7473 H       1  LIG1        0.0820
      8 N           2.6862    2.6361    0.0199 N.1     1  LIG1       -0.1908
      9 C           1.8004    1.9691    0.3150 C.1     1  LIG1        0.1019
     10 C          -0.7568    1.2911   -1.4065 C.1     1  LIG1       -0.0662
     11 C          -1.0204    1.6900   -2.5074 C.1     1  LIG1       -0.1138
     12 H          -1.2629    2.0593   -3.4771 H       1  LIG1        0.1232
     13 C          -2.5162   -0.6458    0.3725 C.ar    1  LIG1        0.0835
     14 C          -3.7103   -0.0878   -0.0256 C.ar    1  LIG1        0.0964
     15 C          -4.6471   -1.1570   -0.1700 C.ar    1  LIG1        0.0964
     16 C          -3.9983   -2.3338    0.1601 C.ar    1  LIG1        0.0840
     17 N          -2.7157   -1.9948    0.4791 N.ar    1  LIG1       -0.3497
     18 H          -2.0148   -2.6633    0.7645 H       1  LIG1        0.1661
     19 N          -4.1556    2.4251   -0.4025 N.1     1  LIG1       -0.1908
     20 C          -3.9539    1.3083   -0.2355 C.1     1  LIG1        0.1026
     21 N          -7.1116   -1.0710   -0.9180 N.1     1  LIG1       -0.1908
     22 C          -6.0085   -1.0803   -0.5970 C.1     1  LIG1        0.1026
     23 C          -4.4688   -3.7047    0.2148 C.ar    1  LIG1        0.0856
     24 C          -5.6308   -4.2311    0.7494 C.ar    1  LIG1        0.0523
     25 C          -5.5180   -5.6490    0.6591 C.ar    1  LIG1       -0.0149
     26 C          -4.3032   -5.9404    0.0779 C.ar    1  LIG1        0.0523
     27 N          -3.6595   -4.7584   -0.1716 N.ar    1  LIG1       -0.3514
     28 H          -2.9305   -4.6737   -0.8651 H       1  LIG1        0.1660
     29 N          -6.6618   -3.5143    1.3620 N.pl3   1  LIG1       -0.3563
     30 H          -7.0502   -2.7713    0.7914 H       1  LIG1        0.1424
     31 H          -7.3966   -4.1189    1.7037 H       1  LIG1        0.1424
     32 H          -6.2404   -6.3745    0.9901 H       1  LIG1        0.0657
     33 C          -4.4357   -8.3611   -0.5513 C.ar    1  LIG1        0.1260
     34 C          -3.8109   -9.5474   -0.9270 C.ar    1  LIG1       -0.0193
     35 C          -3.6683   -7.2217   -0.2796 C.ar    1  LIG1        0.0400
     36 C          -2.4276   -9.6108   -1.0335 C.ar    1  LIG1       -0.0554
     37 H          -4.4144  -10.4235   -1.1366 H       1  LIG1        0.0654
     38 C          -2.2763   -7.3230   -0.3721 C.ar    1  LIG1       -0.0462
     39 C          -1.6352   -8.4970   -0.7548 C.ar    1  LIG1       -0.0496
     40 H          -1.6756   -6.4588   -0.1100 H       1  LIG1        0.0628
     41 H          -1.9602  -10.5429   -1.3278 H       1  LIG1        0.0621
     42 O          -5.7883   -8.2696   -0.4359 O.3     1  LIG1       -0.5061
     43 H          -6.2073   -9.0792   -0.7458 H       1  LIG1        0.2922
     44 C          -0.1236   -8.5673   -0.8768 C.3     1  LIG1       -0.0397
     45 H           0.3446   -7.7481   -0.3318 H       1  LIG1        0.0278
     46 H           0.1768   -8.5010   -1.9241 H       1  LIG1        0.0278
     47 H           0.2483   -9.5088   -0.4721 H       1  LIG1        0.0278
@<TRIPOS>BOND
     1    12    11    1
     2    11    10    3
     3    46    44    1
     4    10     3    1
     5    41    36    1
     6    37    34    1
     7    36    34   ar
     8    36    39   ar
     9    34    33   ar
    10    21    22    3
    11    44    39    1
    12    44    47    1
    13    44    45    1
    14    28    27    1
    15    39    38   ar
    16    43    42    1
    17    22    15    1
    18    33    42    1
    19    33    35   ar
    20    19    20    3
    21    38    35   ar
    22    38    40    1
    23    35    26    1
    24    20    14    1
    25    27    26   ar
    26    27    23   ar
    27    15    14   ar
    28    15    16   ar
    29     3     4   ar
    30     3     2   ar
    31    14    13   ar
    32     8     9    3
    33    26    25   ar
    34    16    23    1
    35    16    17   ar
    36    23    24   ar
    37     9     2    1
    38    13    17   ar
    39    13     4    1
    40    17    18    1
    41    25    24   ar
    42    25    32    1
    43     4     5   ar
    44     2     1   ar
    45    24    29    1
    46    30    29    1
    47    29    31    1
    48     5     1   ar
    49     5     6    1
    50     1     7    1
