@<TRIPOS>MOLECULE
mol_data/opt/m06hf/geoms/mol2/13de13de-13de13de-.out
 46 49 0 0 0
SMALL
GASTEIGER

@<TRIPOS>ATOM
      1 C           1.3598   -0.3395   -0.0018 C.ar    1  LIG1        0.0209
      2 C           0.9909    0.9870   -0.0019 C.ar    1  LIG1        0.0850
      3 C          -0.4367    1.0347   -0.0008 C.ar    1  LIG1        0.0687
      4 C          -0.8745   -0.2774   -0.0002 C.ar    1  LIG1        0.0810
      5 N           0.2311   -1.0837   -0.0008 N.ar    1  LIG1       -0.3573
      6 H           0.2055   -2.0965   -0.0005 H       1  LIG1        0.1655
      7 H           2.3397   -0.7840   -0.0024 H       1  LIG1        0.0820
      8 N           2.5989    3.0050   -0.0036 N.1     1  LIG1       -0.1908
      9 C           1.8803    2.1106   -0.0028 C.1     1  LIG1        0.1019
     10 C          -1.2540    2.2052   -0.0006 C.1     1  LIG1       -0.0662
     11 C          -1.9304    3.1995   -0.0004 C.1     1  LIG1       -0.1138
     12 H          -2.5487    4.0688   -0.0001 H       1  LIG1        0.1232
     13 C          -2.2283   -0.8177    0.0009 C.ar    1  LIG1        0.0834
     14 C          -2.6436   -2.1403    0.0013 C.ar    1  LIG1        0.0944
     15 C          -4.0654   -2.1523    0.0024 C.ar    1  LIG1        0.0694
     16 C          -4.4702   -0.8292    0.0026 C.ar    1  LIG1        0.0815
     17 N          -3.3452   -0.0460    0.0018 N.ar    1  LIG1       -0.3498
     18 H          -3.3146    0.9724    0.0017 H       1  LIG1        0.1661
     19 N          -1.0172   -4.1387    0.0002 N.1     1  LIG1       -0.1908
     20 C          -1.7779   -3.2769    0.0007 C.1     1  LIG1        0.1026
     21 C          -4.8911   -3.3161    0.0031 C.1     1  LIG1       -0.0662
     22 C          -5.5646   -4.3123    0.0036 C.1     1  LIG1       -0.1138
     23 H          -6.1881   -5.1787    0.0043 H       1  LIG1        0.1232
     24 C          -5.8271   -0.2948    0.0036 C.ar    1  LIG1        0.0834
     25 C          -6.2764    1.0151    0.0042 C.ar    1  LIG1        0.0944
     26 C          -7.7001    0.9905    0.0050 C.ar    1  LIG1        0.0694
     27 C          -8.0725   -0.3426    0.0048 C.ar    1  LIG1        0.0815
     28 N          -6.9315   -1.0928    0.0040 N.ar    1  LIG1       -0.3498
     29 H          -6.8907   -2.1111    0.0037 H       1  LIG1        0.1661
     30 N          -4.8714    3.1737    0.0044 N.1     1  LIG1       -0.1908
     31 C          -5.4862    2.2036    0.0043 C.1     1  LIG1        0.1026
     32 C          -8.5471    2.1423    0.0058 C.1     1  LIG1       -0.0662
     33 C          -9.2419    3.1246    0.0065 C.1     1  LIG1       -0.1138
     34 H          -9.8320    4.0130    0.0070 H       1  LIG1        0.1232
     35 C          -9.4217   -0.8983    0.0054 C.ar    1  LIG1        0.0829
     36 C          -9.8969   -2.1993    0.0055 C.ar    1  LIG1        0.0937
     37 C         -11.3263   -2.1450    0.0061 C.ar    1  LIG1        0.0600
     38 C         -11.6600   -0.8105    0.0064 C.ar    1  LIG1        0.0190
     39 N         -10.5117   -0.0848    0.0059 N.ar    1  LIG1       -0.3573
     40 H         -10.4481    0.9266    0.0060 H       1  LIG1        0.1655
     41 H         -12.6297   -0.3454    0.0068 H       1  LIG1        0.0820
     42 N          -8.4924   -4.3591    0.0047 N.1     1  LIG1       -0.1908
     43 C          -9.1147   -3.3939    0.0050 C.1     1  LIG1        0.1026
     44 C         -12.2176   -3.2640    0.0064 C.1     1  LIG1       -0.0669
     45 C         -12.9519   -4.2137    0.0066 C.1     1  LIG1       -0.1138
     46 H         -13.5988   -5.0606    0.0063 H       1  LIG1        0.1232
@<TRIPOS>BOND
     1     8     9    3
     2     9     2    1
     3     7     1    1
     4     2     1   ar
     5     2     3   ar
     6     1     5   ar
     7     3    10    1
     8     3     4   ar
     9     5     6    1
    10     5     4   ar
    11    10    11    3
    12    11    12    1
    13     4    13    1
    14    19    20    3
    15    20    14    1
    16    13    14   ar
    17    13    17   ar
    18    14    15   ar
    19    18    17    1
    20    17    16   ar
    21    15    16   ar
    22    15    21    1
    23    16    24    1
    24    21    22    3
    25    24    28   ar
    26    24    25   ar
    27    22    23    1
    28    29    28    1
    29    28    27   ar
    30    25    31    1
    31    25    26   ar
    32    31    30    3
    33    42    43    3
    34    27    26   ar
    35    27    35    1
    36    26    32    1
    37    43    36    1
    38    35    36   ar
    39    35    39   ar
    40    36    37   ar
    41    32    33    3
    42    39    40    1
    43    39    38   ar
    44    37    38   ar
    45    37    44    1
    46    46    45    1
    47    38    41    1
    48    44    45    3
    49    33    34    1
