@<TRIPOS>MOLECULE
mol_data/opt/m06hf/geoms/mol2/13de13de-.out
 24 25 0 0 0
SMALL
GASTEIGER

@<TRIPOS>ATOM
      1 C           1.1904   -0.3236   -0.0005 C.ar    1  LIG1        0.0209
      2 C           0.7949    0.9942   -0.0003 C.ar    1  LIG1        0.0850
      3 C          -0.6342    1.0121    0.0002 C.ar    1  LIG1        0.0687
      4 C          -1.0452   -0.3094    0.0004 C.ar    1  LIG1        0.0810
      5 N           0.0743   -1.0909   -0.0001 N.ar    1  LIG1       -0.3573
      6 H           0.0631   -2.1047   -0.0001 H       1  LIG1        0.1655
      7 H           2.1787   -0.7479   -0.0009 H       1  LIG1        0.0820
      8 N           2.3452    3.0567   -0.0008 N.1     1  LIG1       -0.1908
      9 C           1.6566    2.1390   -0.0005 C.1     1  LIG1        0.1019
     10 C          -1.4748    2.1694    0.0006 C.1     1  LIG1       -0.0662
     11 C          -2.1788    3.1454    0.0009 C.1     1  LIG1       -0.1138
     12 H          -2.7683    4.0341    0.0010 H       1  LIG1        0.1232
     13 C          -2.3928   -0.8646    0.0008 C.ar    1  LIG1        0.0829
     14 C          -2.8290   -2.1786    0.0010 C.ar    1  LIG1        0.0937
     15 C          -4.2584   -2.1658    0.0015 C.ar    1  LIG1        0.0600
     16 C          -4.6291   -0.8407    0.0017 C.ar    1  LIG1        0.0190
     17 N          -3.5010   -0.0799    0.0013 N.ar    1  LIG1       -0.3573
     18 H          -3.4599    0.9328    0.0013 H       1  LIG1        0.1655
     19 H          -5.6122   -0.4051    0.0021 H       1  LIG1        0.0820
     20 N          -1.1859   -4.1640    0.0003 N.1     1  LIG1       -0.1908
     21 C          -1.9594   -3.3132    0.0006 C.1     1  LIG1        0.1026
     22 C          -5.1213   -3.3069    0.0017 C.1     1  LIG1       -0.0669
     23 C          -5.8349   -4.2725    0.0020 C.1     1  LIG1       -0.1138
     24 H          -6.4622   -5.1339    0.0022 H       1  LIG1        0.1232
@<TRIPOS>BOND
     1     7     1    1
     2     8     9    3
     3     9     2    1
     4     1     2   ar
     5     1     5   ar
     6     2     3   ar
     7     6     5    1
     8     5     4   ar
     9     3     4   ar
    10     3    10    1
    11    20    21    3
    12     4    13    1
    13    10    11    3
    14    21    14    1
    15    13    14   ar
    16    13    17   ar
    17    11    12    1
    18    14    15   ar
    19    17    18    1
    20    17    16   ar
    21    15    16   ar
    22    15    22    1
    23    16    19    1
    24    22    23    3
    25    23    24    1
