@<TRIPOS>MOLECULE
mol_data/opt/m06hf/geoms/mol2/13de13de13de.out
 35 37 0 0 0
SMALL
GASTEIGER

@<TRIPOS>ATOM
      1 C           0.8923   -0.0113   -1.5214 C.ar    1  LIG1        0.0209
      2 C           0.8177    0.9636   -0.5535 C.ar    1  LIG1        0.0850
      3 C          -0.4663    0.8628    0.0702 C.ar    1  LIG1        0.0687
      4 C          -1.1187   -0.1792   -0.5534 C.ar    1  LIG1        0.0810
      5 N          -0.2785   -0.6947   -1.5064 N.ar    1  LIG1       -0.3573
      6 H          -0.5453   -1.4041   -2.1729 H       1  LIG1        0.1655
      7 H           1.6882   -0.2441   -2.2072 H       1  LIG1        0.0820
      8 N           2.6932    2.6392    0.0264 N.1     1  LIG1       -0.1908
      9 C           1.8547    1.8990   -0.2287 C.1     1  LIG1        0.1019
     10 C          -0.9806    1.6642    1.1360 C.1     1  LIG1       -0.0662
     11 C          -1.4173    2.3412    2.0255 C.1     1  LIG1       -0.1138
     12 H          -1.8075    2.9554    2.8042 H       1  LIG1        0.1232
     13 C          -2.4521   -0.7281   -0.3103 C.ar    1  LIG1        0.0834
     14 C          -3.6880   -0.1130   -0.3155 C.ar    1  LIG1        0.0944
     15 C          -4.6726   -1.1076   -0.0301 C.ar    1  LIG1        0.0694
     16 C          -3.9918   -2.2968    0.1377 C.ar    1  LIG1        0.0815
     17 N          -2.6587   -2.0454   -0.0337 N.ar    1  LIG1       -0.3498
     18 H          -1.9274   -2.7377    0.0437 H       1  LIG1        0.1661
     19 N          -4.1131    2.3862   -0.7940 N.1     1  LIG1       -0.1908
     20 C          -3.9245    1.2750   -0.5812 C.1     1  LIG1        0.1026
     21 C          -6.0873   -0.9260    0.0647 C.1     1  LIG1       -0.0662
     22 C          -7.2758   -0.7779    0.1388 C.1     1  LIG1       -0.1138
     23 H          -8.3319   -0.6441    0.1936 H       1  LIG1        0.1232
     24 C          -4.5028   -3.6321    0.4508 C.ar    1  LIG1        0.0829
     25 C          -5.4048   -4.4206   -0.2308 C.ar    1  LIG1        0.0937
     26 C          -5.5622   -5.6377    0.5056 C.ar    1  LIG1        0.0600
     27 C          -4.7444   -5.5351    1.6078 C.ar    1  LIG1        0.0190
     28 N          -4.1143   -4.3296    1.5581 N.ar    1  LIG1       -0.3573
     29 H          -3.5173   -3.9554    2.2808 H       1  LIG1        0.1655
     30 H          -4.5829   -6.2332    2.4100 H       1  LIG1        0.0820
     31 N          -6.5317   -3.8111   -2.4702 N.1     1  LIG1       -0.1908
     32 C          -6.0348   -4.0797   -1.4719 C.1     1  LIG1        0.1026
     33 C          -6.3955   -6.7474    0.1559 C.1     1  LIG1       -0.0669
     34 C          -7.0948   -7.6743   -0.1487 C.1     1  LIG1       -0.1138
     35 H          -7.7163   -8.4936   -0.4271 H       1  LIG1        0.1232
@<TRIPOS>BOND
     1    31    32    3
     2     7     1    1
     3     6     5    1
     4     1     5   ar
     5     1     2   ar
     6     5     4   ar
     7    32    25    1
     8    19    20    3
     9    20    14    1
    10     2     9    1
    11     2     3   ar
    12     4    13    1
    13     4     3   ar
    14    35    34    1
    15    14    13   ar
    16    14    15   ar
    17    13    17   ar
    18    25    24   ar
    19    25    26   ar
    20     9     8    3
    21    34    33    3
    22    17    18    1
    23    17    16   ar
    24    15    21    1
    25    15    16   ar
    26    21    22    3
    27     3    10    1
    28    16    24    1
    29    22    23    1
    30    33    26    1
    31    24    28   ar
    32    26    27   ar
    33    10    11    3
    34    28    27   ar
    35    28    29    1
    36    27    30    1
    37    11    12    1
