@<TRIPOS>MOLECULE
mol_data/opt/m06hf/geoms/mol2/13de13de-13de-13de-.out
 46 49 0 0 0
SMALL
GASTEIGER

@<TRIPOS>ATOM
      1 C           1.2719   -0.2072   -0.5065 C.ar    1  LIG1        0.0209
      2 C           0.7813    1.0028   -0.9424 C.ar    1  LIG1        0.0850
      3 C          -0.6419    0.9513   -0.8339 C.ar    1  LIG1        0.0687
      4 C          -0.9529   -0.2999   -0.3302 C.ar    1  LIG1        0.0810
      5 N           0.2182   -0.9758   -0.1431 N.ar    1  LIG1       -0.3573
      6 H           0.2821   -1.9217    0.2155 H       1  LIG1        0.1655
      7 H           2.2875   -0.5550   -0.4348 H       1  LIG1        0.0820
      8 N           2.1640    3.0078   -1.7965 N.1     1  LIG1       -0.1908
      9 C           1.5526    2.1137   -1.4173 C.1     1  LIG1        0.1019
     10 C          -1.5675    1.9838   -1.1869 C.1     1  LIG1       -0.0662
     11 C          -2.3471    2.8482   -1.4931 C.1     1  LIG1       -0.1138
     12 H          -3.0077    3.6319   -1.7895 H       1  LIG1        0.1232
     13 C          -2.2559   -0.8697   -0.0183 C.ar    1  LIG1        0.0834
     14 C          -2.6087   -2.1109    0.4876 C.ar    1  LIG1        0.0944
     15 C          -4.0304   -2.1524    0.6046 C.ar    1  LIG1        0.0694
     16 C          -4.4868   -0.9281    0.1586 C.ar    1  LIG1        0.0815
     17 N          -3.4047   -0.1757   -0.2072 N.ar    1  LIG1       -0.3498
     18 H          -3.4360    0.7350   -0.6537 H       1  LIG1        0.1661
     19 N          -0.8341   -3.8829    1.0786 N.1     1  LIG1       -0.1908
     20 C          -1.6666   -3.1300    0.8308 C.1     1  LIG1        0.1026
     21 C          -4.8273   -3.2267    1.1060 C.1     1  LIG1       -0.0662
     22 C          -5.5068   -4.1271    1.5162 C.1     1  LIG1       -0.1138
     23 H          -6.1167   -4.9305    1.8610 H       1  LIG1        0.1232
     24 C          -5.8442   -0.3953    0.0852 C.ar    1  LIG1        0.0834
     25 C          -7.0039   -0.9354   -0.4346 C.ar    1  LIG1        0.0944
     26 C          -8.0452    0.0299   -0.2720 C.ar    1  LIG1        0.0694
     27 C          -7.4734    1.1257    0.3420 C.ar    1  LIG1        0.0815
     28 N          -6.1502    0.8486    0.5489 N.ar    1  LIG1       -0.3498
     29 H          -5.4908    1.4806    0.9799 H       1  LIG1        0.1661
     30 N          -7.2338   -3.2479   -1.5563 N.1     1  LIG1       -0.1908
     31 C          -7.1276   -2.2205   -1.0566 C.1     1  LIG1        0.1026
     32 C          -9.4116   -0.0970   -0.6718 C.1     1  LIG1       -0.0662
     33 C         -10.5557   -0.1990   -1.0199 C.1     1  LIG1       -0.1138
     34 H         -11.5676   -0.2863   -1.3430 H       1  LIG1        0.1232
     35 C          -8.0776    2.3943    0.7482 C.ar    1  LIG1        0.0829
     36 C          -8.7670    3.3286    0.0055 C.ar    1  LIG1        0.0937
     37 C          -9.1421    4.3928    0.8857 C.ar    1  LIG1        0.0600
     38 C          -8.6615    4.0573    2.1308 C.ar    1  LIG1        0.0190
     39 N          -8.0232    2.8592    2.0305 N.ar    1  LIG1       -0.3573
     40 H          -7.6494    2.3340    2.8070 H       1  LIG1        0.1655
     41 H          -8.7402    4.5886    3.0625 H       1  LIG1        0.0820
     42 N          -9.2228    3.1893   -2.5304 N.1     1  LIG1       -0.1908
     43 C          -9.0231    3.2480   -1.4022 C.1     1  LIG1        0.1026
     44 C          -9.8638    5.5775    0.5329 C.1     1  LIG1       -0.0669
     45 C         -10.4667    6.5676    0.2215 C.1     1  LIG1       -0.1138
     46 H         -11.0030    7.4432   -0.0636 H       1  LIG1        0.1232
@<TRIPOS>BOND
     1    42    43    3
     2     8     9    3
     3    12    11    1
     4    30    31    3
     5    11    10    3
     6     9     2    1
     7    43    36    1
     8    34    33    1
     9    10     3    1
    10    31    25    1
    11    33    32    3
    12     2     3   ar
    13     2     1   ar
    14     3     4   ar
    15    32    26    1
    16    18    17    1
    17     1     7    1
    18     1     5   ar
    19    25    26   ar
    20    25    24   ar
    21     4     5   ar
    22     4    13    1
    23    26    27   ar
    24    17    13   ar
    25    17    16   ar
    26     5     6    1
    27    46    45    1
    28    13    14   ar
    29    36    35   ar
    30    36    37   ar
    31    24    16    1
    32    24    28   ar
    33    16    15   ar
    34    45    44    3
    35    27    28   ar
    36    27    35    1
    37    14    15   ar
    38    14    20    1
    39    44    37    1
    40    28    29    1
    41    15    21    1
    42    35    39   ar
    43    20    19    3
    44    37    38   ar
    45    21    22    3
    46    22    23    1
    47    39    38   ar
    48    39    40    1
    49    38    41    1
