@<TRIPOS>MOLECULE
mol_data/opt/m06hf/geoms/mol2/13de13de-13de-13de.out
 46 49 0 0 0
SMALL
GASTEIGER

@<TRIPOS>ATOM
      1 C           1.3304   -0.5222   -0.3482 C.ar    1  LIG1        0.0209
      2 C           0.9573    0.7862   -0.5610 C.ar    1  LIG1        0.0850
      3 C          -0.4633    0.8526   -0.4304 C.ar    1  LIG1        0.0687
      4 C          -0.8910   -0.4319   -0.1463 C.ar    1  LIG1        0.0810
      5 N           0.2098   -1.2398   -0.1016 N.ar    1  LIG1       -0.3573
      6 H           0.1850   -2.2308    0.1074 H       1  LIG1        0.1655
      7 H           2.3081   -0.9714   -0.3572 H       1  LIG1        0.0820
      8 N           2.5351    2.7574   -1.0959 N.1     1  LIG1       -0.1908
      9 C           1.8344    1.8808   -0.8563 C.1     1  LIG1        0.1019
     10 C          -1.2987    2.0094   -0.5243 C.1     1  LIG1       -0.0662
     11 C          -2.0212    2.9711   -0.5733 C.1     1  LIG1       -0.1138
     12 H          -2.6625    3.8261   -0.5616 H       1  LIG1        0.1232
     13 C          -2.2432   -0.9225    0.0763 C.ar    1  LIG1        0.0834
     14 C          -2.6942   -2.1477    0.5406 C.ar    1  LIG1        0.0944
     15 C          -4.1194   -2.1128    0.5684 C.ar    1  LIG1        0.0694
     16 C          -4.4816   -0.8629    0.1010 C.ar    1  LIG1        0.0815
     17 N          -3.3381   -0.1659   -0.1815 N.ar    1  LIG1       -0.3498
     18 H          -3.2816    0.7704   -0.5707 H       1  LIG1        0.1661
     19 N          -1.0688   -4.0430    1.1771 N.1     1  LIG1       -0.1908
     20 C          -1.8348   -3.2270    0.9151 C.1     1  LIG1        0.1026
     21 C          -4.9827   -3.1498    1.0350 C.1     1  LIG1       -0.0662
     22 C          -5.6979   -4.0287    1.4309 C.1     1  LIG1       -0.1138
     23 H          -6.3403   -4.8109    1.7642 H       1  LIG1        0.1232
     24 C          -5.8078   -0.2852   -0.0859 C.ar    1  LIG1        0.0834
     25 C          -6.9744   -0.8554   -0.5606 C.ar    1  LIG1        0.0944
     26 C          -7.9841    0.1527   -0.5396 C.ar    1  LIG1        0.0694
     27 C          -7.3874    1.3072   -0.0651 C.ar    1  LIG1        0.0815
     28 N          -6.0811    1.0189    0.2035 N.ar    1  LIG1       -0.3498
     29 H          -5.4246    1.6687    0.6212 H       1  LIG1        0.1661
     30 N          -7.3253   -3.2350   -1.4894 N.1     1  LIG1       -0.1908
     31 C          -7.1503   -2.1837   -1.0646 C.1     1  LIG1        0.1026
     32 C          -9.3461    0.0060   -0.9515 C.1     1  LIG1       -0.0662
     33 C         -10.4922   -0.1201   -1.2947 C.1     1  LIG1       -0.1138
     34 H         -11.4976   -0.2625   -1.6205 H       1  LIG1        0.1232
     35 C          -7.9655    2.6273    0.1417 C.ar    1  LIG1        0.0829
     36 C          -7.3645    3.8497    0.3911 C.ar    1  LIG1        0.0937
     37 C          -8.3968    4.8318    0.5059 C.ar    1  LIG1        0.0600
     38 C          -9.5833    4.1610    0.3166 C.ar    1  LIG1        0.0190
     39 N          -9.3044    2.8467    0.1018 N.ar    1  LIG1       -0.3573
     40 H          -9.9788    2.1159   -0.0917 H       1  LIG1        0.1655
     41 H         -10.5911    4.5369    0.3216 H       1  LIG1        0.0820
     42 N          -4.8068    4.1217    0.5291 N.1     1  LIG1       -0.1908
     43 C          -5.9526    4.0457    0.4758 C.1     1  LIG1        0.1026
     44 C          -8.2194    6.2289    0.7584 C.1     1  LIG1       -0.0669
     45 C          -8.0581    7.3996    0.9692 C.1     1  LIG1       -0.1138
     46 H          -7.9121    8.4385    1.1568 H       1  LIG1        0.1232
@<TRIPOS>BOND
     1    34    33    1
     2    30    31    3
     3    33    32    3
     4     8     9    3
     5    31    25    1
     6    32    26    1
     7     9     2    1
     8    11    12    1
     9    11    10    3
    10    18    17    1
    11     2     3   ar
    12     2     1   ar
    13    25    26   ar
    14    25    24   ar
    15    26    27   ar
    16    10     3    1
    17     3     4   ar
    18     7     1    1
    19     1     5   ar
    20    17    13   ar
    21    17    16   ar
    22     4     5   ar
    23     4    13    1
    24     5     6    1
    25    40    39    1
    26    24    16    1
    27    24    28   ar
    28    27    35    1
    29    27    28   ar
    30    13    14   ar
    31    16    15   ar
    32    39    35   ar
    33    39    38   ar
    34    35    36   ar
    35    28    29    1
    36    38    41    1
    37    38    37   ar
    38    36    43    1
    39    36    37   ar
    40    43    42    3
    41    37    44    1
    42    14    15   ar
    43    14    20    1
    44    15    21    1
    45    44    45    3
    46    20    19    3
    47    45    46    1
    48    21    22    3
    49    22    23    1
