@<TRIPOS>MOLECULE
mol_data/opt/m06hf/geoms/mol2/13de13de.out
 24 25 0 0 0
SMALL
GASTEIGER

@<TRIPOS>ATOM
      1 C           1.1198   -0.2903   -0.6640 C.ar    1  LIG1        0.0209
      2 C           0.8170    0.9653   -0.1914 C.ar    1  LIG1        0.0850
      3 C          -0.5695    0.9757    0.1650 C.ar    1  LIG1        0.0687
      4 C          -1.0504   -0.2867   -0.1108 C.ar    1  LIG1        0.0810
      5 N          -0.0125   -1.0337   -0.6058 N.ar    1  LIG1       -0.3573
      6 H          -0.1112   -1.9709   -0.9653 H       1  LIG1        0.1655
      7 H           2.0510   -0.6827   -1.0340 H       1  LIG1        0.0820
      8 N           2.4934    2.9149    0.0385 N.1     1  LIG1       -0.1908
      9 C           1.7417    2.0541   -0.0653 C.1     1  LIG1        0.1019
     10 C          -1.3180    2.0628    0.7134 C.1     1  LIG1       -0.0662
     11 C          -1.9551    2.9742    1.1647 C.1     1  LIG1       -0.1138
     12 H          -2.5257    3.7876    1.5497 H       1  LIG1        0.1232
     13 C          -2.3899   -0.8429    0.0724 C.ar    1  LIG1        0.0829
     14 C          -3.6173   -0.3898   -0.3615 C.ar    1  LIG1        0.0937
     15 C          -4.6102   -1.3126    0.1014 C.ar    1  LIG1        0.0600
     16 C          -3.9400   -2.2914    0.7976 C.ar    1  LIG1        0.0190
     17 N          -2.6109   -1.9974    0.7679 N.ar    1  LIG1       -0.3573
     18 H          -1.8933   -2.4973    1.2707 H       1  LIG1        0.1655
     19 H          -4.3244   -3.1582    1.3054 H       1  LIG1        0.0820
     20 N          -4.0355    1.7082   -1.8035 N.1     1  LIG1       -0.1908
     21 C          -3.8449    0.7775   -1.1604 C.1     1  LIG1        0.1026
     22 C          -6.0212   -1.2336   -0.1274 C.1     1  LIG1       -0.0669
     23 C          -7.2024   -1.1534   -0.3281 C.1     1  LIG1       -0.1138
     24 H          -8.2490   -1.0742   -0.5119 H       1  LIG1        0.1232
@<TRIPOS>BOND
     1    20    21    3
     2    21    14    1
     3     7     1    1
     4     6     5    1
     5     1     5   ar
     6     1     2   ar
     7     5     4   ar
     8    24    23    1
     9    14    13   ar
    10    14    15   ar
    11    23    22    3
    12     2     9    1
    13     2     3   ar
    14    22    15    1
    15     4    13    1
    16     4     3   ar
    17     9     8    3
    18    13    17   ar
    19    15    16   ar
    20     3    10    1
    21    10    11    3
    22    17    16   ar
    23    17    18    1
    24    16    19    1
    25    11    12    1
