@<TRIPOS>MOLECULE
mol_data/opt/m06hf/geoms/mol2/13df13df13df13df-.out
 42 45 0 0 0
SMALL
GASTEIGER

@<TRIPOS>ATOM
      1 C           1.2011   -0.1889    0.0077 C.ar    1  LIG1        0.0233
      2 C           0.7497    1.0326    0.4636 C.ar    1  LIG1        0.1110
      3 C          -0.6753    0.9975    0.4479 C.ar    1  LIG1        0.1609
      4 C          -1.0385   -0.2519   -0.0135 C.ar    1  LIG1        0.1076
      5 N           0.1227   -0.9513   -0.2743 N.ar    1  LIG1       -0.3554
      6 H           0.1581   -1.8557   -0.7204 H       1  LIG1        0.1655
      7 H           2.2076   -0.5386   -0.1418 H       1  LIG1        0.0821
      8 N           2.2316    3.0053    1.2175 N.1     1  LIG1       -0.1907
      9 C           1.5664    2.1318    0.8846 C.1     1  LIG1        0.1043
     10 O          -1.4661    1.9905    0.9067 O.3     1  LIG1       -0.5034
     11 H          -2.0984    2.2859    0.2343 H       1  LIG1        0.2923
     12 C          -2.3538   -0.8478   -0.1703 C.ar    1  LIG1        0.0882
     13 C          -3.5472   -0.2765   -0.5797 C.ar    1  LIG1        0.1205
     14 C          -4.5574   -1.2814   -0.5304 C.ar    1  LIG1        0.1616
     15 C          -3.9423   -2.4400   -0.1046 C.ar    1  LIG1        0.1081
     16 N          -2.6064   -2.1496    0.1105 N.ar    1  LIG1       -0.3478
     17 H          -1.9725   -2.7403    0.6315 H       1  LIG1        0.1661
     18 N          -3.6884    2.1882   -1.3123 N.1     1  LIG1       -0.1907
     19 C          -3.6715    1.0807   -1.0044 C.1     1  LIG1        0.1050
     20 O          -5.8217   -1.0864   -0.9552 O.3     1  LIG1       -0.5034
     21 H          -6.4777   -1.4305   -0.3329 H       1  LIG1        0.2923
     22 C          -4.4300   -3.7993    0.0303 C.ar    1  LIG1        0.0883
     23 C          -5.6827   -4.2969    0.3744 C.ar    1  LIG1        0.1205
     24 C          -5.5864   -5.7171    0.3710 C.ar    1  LIG1        0.1616
     25 C          -4.2932   -6.0403    0.0433 C.ar    1  LIG1        0.1080
     26 N          -3.6189   -4.8585   -0.1669 N.ar    1  LIG1       -0.3478
     27 H          -2.6732   -4.8017   -0.5234 H       1  LIG1        0.1661
     28 N          -7.7148   -2.8329    0.9737 N.1     1  LIG1       -0.1907
     29 C          -6.8140   -3.4995    0.7129 C.1     1  LIG1        0.1050
     30 O          -6.5383   -6.6440    0.6445 O.3     1  LIG1       -0.5034
     31 H          -7.3611   -6.2295    0.9299 H       1  LIG1        0.2923
     32 C          -3.6584   -7.3393   -0.0504 C.ar    1  LIG1        0.0878
     33 C          -2.3196   -7.6617   -0.2569 C.ar    1  LIG1        0.1198
     34 C          -2.2231   -9.0865   -0.2423 C.ar    1  LIG1        0.1521
     35 C          -3.4847   -9.5735   -0.0297 C.ar    1  LIG1        0.0455
     36 N          -4.3337   -8.4950    0.0811 N.ar    1  LIG1       -0.3553
     37 H          -5.3290   -8.5299    0.2587 H       1  LIG1        0.1655
     38 H          -3.8252  -10.5893    0.0491 H       1  LIG1        0.0845
     39 N          -0.5226   -5.8367   -0.5343 N.1     1  LIG1       -0.1907
     40 C          -1.2877   -6.6901   -0.4156 C.1     1  LIG1        0.1050
     41 O          -1.1126   -9.8435   -0.4055 O.3     1  LIG1       -0.5040
     42 H          -0.3345   -9.2873   -0.5187 H       1  LIG1        0.2923
@<TRIPOS>BOND
     1    18    19    3
     2    19    13    1
     3    20    14    1
     4    20    21    1
     5     6     5    1
     6    13    14   ar
     7    13    12   ar
     8    39    40    3
     9    14    15   ar
    10    27    26    1
    11    42    41    1
    12    40    33    1
    13    41    34    1
    14     5     4   ar
    15     5     1   ar
    16    33    34   ar
    17    33    32   ar
    18    34    35   ar
    19    12     4    1
    20    12    16   ar
    21    26    22   ar
    22    26    25   ar
    23     7     1    1
    24    15    22    1
    25    15    16   ar
    26    32    25    1
    27    32    36   ar
    28    35    38    1
    29    35    36   ar
    30     4     3   ar
    31     1     2   ar
    32    22    23   ar
    33    25    24   ar
    34    36    37    1
    35    16    17    1
    36    11    10    1
    37    24    23   ar
    38    24    30    1
    39    23    29    1
    40     3     2   ar
    41     3    10    1
    42     2     9    1
    43    30    31    1
    44    29    28    3
    45     9     8    3
