@<TRIPOS>MOLECULE
mol_data/opt/m06hf/geoms/mol2/13df13df-4df13df.out
 44 47 0 0 0
SMALL
GASTEIGER

@<TRIPOS>ATOM
      1 C           1.3681   -0.3927   -0.0409 C.ar    1  LIG1        0.0233
      2 C           0.9263    0.9089   -0.2114 C.ar    1  LIG1        0.1110
      3 C          -0.4940    0.8597   -0.2344 C.ar    1  LIG1        0.1609
      4 C          -0.8652   -0.4540   -0.0800 C.ar    1  LIG1        0.1076
      5 N           0.2889   -1.1956    0.0297 N.ar    1  LIG1       -0.3554
      6 H           0.3169   -2.1990    0.1543 H       1  LIG1        0.1655
      7 H           2.3723   -0.7718    0.0305 H       1  LIG1        0.0821
      8 N           2.3115    3.0723   -0.4317 N.1     1  LIG1       -0.1907
      9 C           1.7170    2.0948   -0.3347 C.1     1  LIG1        0.1043
     10 O          -1.3924    1.8575   -0.4175 O.3     1  LIG1       -0.5034
     11 H          -1.0645    2.7113   -0.1094 H       1  LIG1        0.2923
     12 C          -2.2126   -0.9814   -0.0125 C.ar    1  LIG1        0.0882
     13 C          -2.6772   -2.2864    0.1341 C.ar    1  LIG1        0.1204
     14 C          -4.0941   -2.2201    0.1654 C.ar    1  LIG1        0.1601
     15 C          -4.4593   -0.8925    0.0417 C.ar    1  LIG1        0.0916
     16 N          -3.2833   -0.1751   -0.0706 N.ar    1  LIG1       -0.3489
     17 H          -3.1967    0.8343   -0.1729 H       1  LIG1        0.1661
     18 N          -1.1846   -4.3752    0.3431 N.1     1  LIG1       -0.1907
     19 C          -1.8645   -3.4516    0.2471 C.1     1  LIG1        0.1050
     20 O          -4.9474   -3.2660    0.2923 O.3     1  LIG1       -0.5034
     21 H          -4.4611   -4.0691    0.5137 H       1  LIG1        0.2923
     22 C          -6.0779    1.0530    0.2618 C.ar    1  LIG1        0.0618
     23 C          -7.3823    1.5437    0.2437 C.ar    1  LIG1       -0.0310
     24 C          -5.8027   -0.3067    0.0281 C.ar    1  LIG1        0.0228
     25 C          -8.4747    0.7144   -0.0046 C.ar    1  LIG1        0.0423
     26 H          -7.5325    2.5975    0.4339 H       1  LIG1        0.0638
     27 C          -6.8958   -1.1386   -0.2199 C.ar    1  LIG1       -0.0091
     28 C          -8.1926   -0.6462   -0.2280 C.ar    1  LIG1        0.1267
     29 H          -6.7248   -2.1914   -0.4067 H       1  LIG1        0.0661
     30 N          -4.1715    2.7427    0.7628 N.1     1  LIG1       -0.1908
     31 C          -5.0205    1.9988    0.5485 C.1     1  LIG1        0.0998
     32 O          -9.2345   -1.4935   -0.4679 O.3     1  LIG1       -0.5061
     33 H          -8.9197   -2.3927   -0.6102 H       1  LIG1        0.2922
     34 C          -9.8455    1.2603   -0.0213 C.ar    1  LIG1        0.0713
     35 C         -10.2974    2.5788    0.0614 C.ar    1  LIG1        0.1184
     36 C         -11.7162    2.5478    0.0099 C.ar    1  LIG1        0.1520
     37 C         -12.0943    1.2340   -0.1025 C.ar    1  LIG1        0.0455
     38 N         -10.9500    0.4837   -0.1185 N.ar    1  LIG1       -0.3565
     39 H         -10.8971   -0.5201   -0.2103 H       1  LIG1        0.1655
     40 H         -13.0693    0.7860   -0.1756 H       1  LIG1        0.0845
     41 N          -8.8961    4.7341    0.2612 N.1     1  LIG1       -0.1907
     42 C          -9.5263    3.7777    0.1690 C.1     1  LIG1        0.1050
     43 O         -12.4693    3.6731    0.0594 O.3     1  LIG1       -0.5040
     44 H         -13.4066    3.4552    0.0558 H       1  LIG1        0.2923
@<TRIPOS>BOND
     1    33    32    1
     2    32    28    1
     3     8     9    3
     4    10     3    1
     5    10    11    1
     6    29    27    1
     7     9     2    1
     8     3     2   ar
     9     3     4   ar
    10    28    27   ar
    11    28    25   ar
    12    27    24   ar
    13     2     1   ar
    14    39    38    1
    15    40    37    1
    16    17    16    1
    17    38    37   ar
    18    38    34   ar
    19    37    36   ar
    20     4    12    1
    21     4     5   ar
    22    16    12   ar
    23    16    15   ar
    24     1     5   ar
    25     1     7    1
    26    34    25    1
    27    34    35   ar
    28    12    13   ar
    29    25    23   ar
    30    36    43    1
    31    36    35   ar
    32    24    15    1
    33    24    22   ar
    34     5     6    1
    35    15    14   ar
    36    44    43    1
    37    35    42    1
    38    13    14   ar
    39    13    19    1
    40    14    20    1
    41    42    41    3
    42    23    22   ar
    43    23    26    1
    44    19    18    3
    45    22    31    1
    46    20    21    1
    47    31    30    3
