@<TRIPOS>MOLECULE
mol_data/opt/m06hf/geoms/mol2/13df13df-13df-13df.out
 42 45 0 0 0
SMALL
GASTEIGER

@<TRIPOS>ATOM
      1 C           1.2569   -0.2771   -0.1036 C.ar    1  LIG1        0.0233
      2 C           0.7656    0.9796   -0.4180 C.ar    1  LIG1        0.1110
      3 C          -0.6511    0.8821   -0.4027 C.ar    1  LIG1        0.1609
      4 C          -0.9738   -0.4157   -0.0850 C.ar    1  LIG1        0.1076
      5 N           0.2083   -1.0988    0.0881 N.ar    1  LIG1       -0.3554
      6 H           0.2698   -2.0787    0.3329 H       1  LIG1        0.1655
      7 H           2.2756   -0.6104   -0.0100 H       1  LIG1        0.0821
      8 N           2.0401    3.1614   -0.9287 N.1     1  LIG1       -0.1907
      9 C           1.5022    2.1730   -0.6999 C.1     1  LIG1        0.1043
     10 O          -1.5823    1.8329   -0.6660 O.3     1  LIG1       -0.5034
     11 H          -1.2132    2.7240   -0.6179 H       1  LIG1        0.2923
     12 C          -2.2986   -0.9797    0.0709 C.ar    1  LIG1        0.0882
     13 C          -2.7167   -2.2639    0.4095 C.ar    1  LIG1        0.1205
     14 C          -4.1411   -2.2552    0.4228 C.ar    1  LIG1        0.1616
     15 C          -4.5417   -0.9835    0.0865 C.ar    1  LIG1        0.1081
     16 N          -3.4012   -0.2306   -0.1150 N.ar    1  LIG1       -0.3478
     17 H          -3.3560    0.7342   -0.4270 H       1  LIG1        0.1661
     18 N          -1.0919   -4.1989    0.9097 N.1     1  LIG1       -0.1907
     19 C          -1.8422   -3.3533    0.6952 C.1     1  LIG1        0.1050
     20 O          -4.9835   -3.2544    0.7506 O.3     1  LIG1       -0.5034
     21 H          -4.5475   -4.1131    0.7053 H       1  LIG1        0.2923
     22 C          -5.8678   -0.4034   -0.0114 C.ar    1  LIG1        0.0883
     23 C          -7.0964   -0.9618   -0.3509 C.ar    1  LIG1        0.1205
     24 C          -8.0510    0.0909   -0.3156 C.ar    1  LIG1        0.1616
     25 C          -7.3935    1.2455    0.0286 C.ar    1  LIG1        0.1080
     26 N          -6.0718    0.9130    0.2167 N.ar    1  LIG1       -0.3478
     27 H          -5.3729    1.5610    0.5592 H       1  LIG1        0.1661
     28 N          -7.7805   -3.3238   -1.1101 N.1     1  LIG1       -0.1907
     29 C          -7.4144   -2.2938   -0.7560 C.1     1  LIG1        0.1050
     30 O          -9.3809    0.0290   -0.5815 O.3     1  LIG1       -0.5034
     31 H          -9.6264   -0.8602   -0.8676 H       1  LIG1        0.2923
     32 C          -7.9089    2.5934    0.1532 C.ar    1  LIG1        0.0878
     33 C          -7.2406    3.7922    0.3736 C.ar    1  LIG1        0.1198
     34 C          -8.2236    4.8227    0.3880 C.ar    1  LIG1        0.1521
     35 C          -9.4404    4.2285    0.1768 C.ar    1  LIG1        0.0455
     36 N          -9.2212    2.8749    0.0380 N.ar    1  LIG1       -0.3553
     37 H          -9.9173    2.1656   -0.1501 H       1  LIG1        0.1655
     38 H         -10.4264    4.6534    0.1155 H       1  LIG1        0.0845
     39 N          -4.6768    3.8413    0.6014 N.1     1  LIG1       -0.1907
     40 C          -5.8233    3.8908    0.5110 C.1     1  LIG1        0.1050
     41 O          -7.9048    6.1246    0.5834 O.3     1  LIG1       -0.5040
     42 H          -8.6849    6.6828    0.5040 H       1  LIG1        0.2923
@<TRIPOS>BOND
     1    28    29    3
     2     8     9    3
     3    31    30    1
     4    29    23    1
     5     9     2    1
     6    10    11    1
     7    10     3    1
     8    30    24    1
     9    17    16    1
    10     2     3   ar
    11     2     1   ar
    12     3     4   ar
    13    23    24   ar
    14    23    22   ar
    15    24    25   ar
    16    37    36    1
    17    16    12   ar
    18    16    15   ar
    19     1     7    1
    20     1     5   ar
    21     4    12    1
    22     4     5   ar
    23    22    15    1
    24    22    26   ar
    25    25    32    1
    26    25    26   ar
    27    36    32   ar
    28    36    35   ar
    29    12    13   ar
    30    15    14   ar
    31     5     6    1
    32    38    35    1
    33    32    33   ar
    34    35    34   ar
    35    26    27    1
    36    33    34   ar
    37    33    40    1
    38    34    41    1
    39    13    14   ar
    40    13    19    1
    41    14    20    1
    42    42    41    1
    43    40    39    3
    44    19    18    3
    45    21    20    1
