@<TRIPOS>MOLECULE
mol_data/opt/m06hf/geoms/mol2/13df13df13df-13df-.out
 42 45 0 0 0
SMALL
GASTEIGER

@<TRIPOS>ATOM
      1 C           1.2229    0.0207    0.5355 C.ar    1  LIG1        0.0233
      2 C           0.8576    1.0631   -0.2919 C.ar    1  LIG1        0.1110
      3 C          -0.5292    0.9115   -0.5810 C.ar    1  LIG1        0.1609
      4 C          -0.9568   -0.2185    0.0830 C.ar    1  LIG1        0.1076
      5 N           0.1273   -0.7401    0.7527 N.ar    1  LIG1       -0.3554
      6 H           0.0928   -1.5338    1.3758 H       1  LIG1        0.1655
      7 H           2.1775   -0.2087    0.9750 H       1  LIG1        0.0821
      8 N           2.4017    2.9355   -1.1672 N.1     1  LIG1       -0.1907
      9 C           1.7143    2.1018   -0.7814 C.1     1  LIG1        0.1043
     10 O          -1.2438    1.6786   -1.4405 O.3     1  LIG1       -0.5034
     11 H          -1.8378    2.2811   -0.9709 H       1  LIG1        0.2923
     12 C          -2.2704   -0.8387    0.0918 C.ar    1  LIG1        0.0882
     13 C          -3.5244   -0.2381    0.0356 C.ar    1  LIG1        0.1205
     14 C          -4.4885   -1.2800    0.0541 C.ar    1  LIG1        0.1616
     15 C          -3.8092   -2.4707    0.1359 C.ar    1  LIG1        0.1081
     16 N          -2.4639   -2.1728    0.1520 N.ar    1  LIG1       -0.3478
     17 H          -1.7310   -2.8726    0.1151 H       1  LIG1        0.1661
     18 N          -3.9978    2.2942    0.0263 N.1     1  LIG1       -0.1907
     19 C          -3.7826    1.1643    0.0292 C.1     1  LIG1        0.1050
     20 O          -5.8438   -1.1912    0.0215 O.3     1  LIG1       -0.5034
     21 H          -6.1258   -0.2752   -0.0907 H       1  LIG1        0.2923
     22 C          -4.3431   -3.8150    0.2059 C.ar    1  LIG1        0.0883
     23 C          -3.6993   -5.0336    0.3736 C.ar    1  LIG1        0.1205
     24 C          -4.6941   -6.0521    0.3535 C.ar    1  LIG1        0.1616
     25 C          -5.9087   -5.4197    0.1807 C.ar    1  LIG1        0.1080
     26 N          -5.6650   -4.0649    0.0896 N.ar    1  LIG1       -0.3478
     27 H          -6.3408   -3.3439   -0.1324 H       1  LIG1        0.1661
     28 N          -1.1459   -5.1099    0.6878 N.1     1  LIG1       -0.1907
     29 C          -2.2878   -5.1528    0.5535 C.1     1  LIG1        0.1050
     30 O          -4.4419   -7.3625    0.5684 O.3     1  LIG1       -0.5034
     31 H          -4.7323   -7.9077   -0.1777 H       1  LIG1        0.2923
     32 C          -7.2512   -5.9791    0.1354 C.ar    1  LIG1        0.0878
     33 C          -7.6851   -7.1567   -0.4541 C.ar    1  LIG1        0.1198
     34 C          -9.0849   -7.2766   -0.2007 C.ar    1  LIG1        0.1521
     35 C          -9.4583   -6.1736    0.5181 C.ar    1  LIG1        0.0455
     36 N          -8.3317   -5.4032    0.7085 N.ar    1  LIG1       -0.3553
     37 H          -8.2898   -4.5820    1.2925 H       1  LIG1        0.1655
     38 H         -10.4229   -5.8931    0.8981 H       1  LIG1        0.0845
     39 N          -6.1281   -8.7523   -1.7445 N.1     1  LIG1       -0.1907
     40 C          -6.8422   -8.0456   -1.1830 C.1     1  LIG1        0.1050
     41 O          -9.9175   -8.2663   -0.5974 O.3     1  LIG1       -0.5040
     42 H          -9.4267   -8.9662   -1.0426 H       1  LIG1        0.2923
@<TRIPOS>BOND
     1    39    40    3
     2    10    11    1
     3    10     3    1
     4    40    33    1
     5     8     9    3
     6    42    41    1
     7     9     2    1
     8    41    34    1
     9     3     2   ar
    10     3     4   ar
    11    33    34   ar
    12    33    32   ar
    13     2     1   ar
    14    34    35   ar
    15    31    30    1
    16    27    26    1
    17    21    20    1
    18    20    14    1
    19    18    19    3
    20    19    13    1
    21    13    14   ar
    22    13    12   ar
    23    14    15   ar
    24     4    12    1
    25     4     5   ar
    26    26    25   ar
    27    26    22   ar
    28    12    16   ar
    29    17    16    1
    30    32    25    1
    31    32    36   ar
    32    15    16   ar
    33    15    22    1
    34    25    24   ar
    35    22    23   ar
    36    24    23   ar
    37    24    30    1
    38    23    29    1
    39    35    36   ar
    40    35    38    1
    41     1     5   ar
    42     1     7    1
    43    29    28    3
    44    36    37    1
    45     5     6    1
