@<TRIPOS>MOLECULE
mol_data/opt/m06hf/geoms/mol2/13df13df13df.out
 32 34 0 0 0
SMALL
GASTEIGER

@<TRIPOS>ATOM
      1 C           1.2290   -0.0859    0.1825 C.ar    1  LIG1        0.0233
      2 C           0.7337    1.0571   -0.4087 C.ar    1  LIG1        0.1110
      3 C          -0.6871    0.9368   -0.4543 C.ar    1  LIG1        0.1609
      4 C          -1.0034   -0.2835    0.1067 C.ar    1  LIG1        0.1076
      5 N           0.1798   -0.8834    0.4850 N.ar    1  LIG1       -0.3554
      6 H           0.2384   -1.7280    1.0321 H       1  LIG1        0.1655
      7 H           2.2441   -0.3595    0.4100 H       1  LIG1        0.0821
      8 N           2.1389    3.0332   -1.2898 N.1     1  LIG1       -0.1907
      9 C           1.5079    2.1581   -0.8998 C.1     1  LIG1        0.1043
     10 O          -1.5132    1.8329   -1.0358 O.3     1  LIG1       -0.5034
     11 H          -2.1516    2.1915   -0.4005 H       1  LIG1        0.2923
     12 C          -2.2993   -0.9234    0.2692 C.ar    1  LIG1        0.0882
     13 C          -3.5142   -0.3597    0.6124 C.ar    1  LIG1        0.1205
     14 C          -4.5034   -1.3866    0.5777 C.ar    1  LIG1        0.1616
     15 C          -3.8529   -2.5513    0.2309 C.ar    1  LIG1        0.1080
     16 N          -2.5150   -2.2469    0.0503 N.ar    1  LIG1       -0.3478
     17 H          -1.8666   -2.8397   -0.4473 H       1  LIG1        0.1661
     18 N          -3.7190    2.1464    1.1688 N.1     1  LIG1       -0.1907
     19 C          -3.6764    1.0195    0.9443 C.1     1  LIG1        0.1050
     20 O          -5.7913   -1.2049    0.9329 O.3     1  LIG1       -0.5034
     21 H          -6.3984   -1.4906    0.2327 H       1  LIG1        0.2923
     22 C          -4.3696   -3.9042    0.0842 C.ar    1  LIG1        0.0878
     23 C          -5.5711   -4.3255   -0.4606 C.ar    1  LIG1        0.1198
     24 C          -5.6187   -5.7453   -0.3514 C.ar    1  LIG1        0.1521
     25 C          -4.4494   -6.1459    0.2399 C.ar    1  LIG1        0.0455
     26 N          -3.7070   -5.0115    0.4948 N.ar    1  LIG1       -0.3553
     27 H          -2.8550   -4.9914    1.0330 H       1  LIG1        0.1655
     28 H          -4.0922   -7.1273    0.4953 H       1  LIG1        0.0845
     29 N          -7.2725   -2.6451   -1.4124 N.1     1  LIG1       -0.1907
     30 C          -6.5398   -3.4375   -1.0147 C.1     1  LIG1        0.1050
     31 O          -6.6667   -6.4704   -0.8035 O.3     1  LIG1       -0.5040
     32 H          -6.5733   -7.3994   -0.5686 H       1  LIG1        0.2923
@<TRIPOS>BOND
     1    29    30    3
     2     8     9    3
     3    10     3    1
     4    10    11    1
     5    30    23    1
     6     9     2    1
     7    31    32    1
     8    31    24    1
     9    23    24   ar
    10    23    22   ar
    11     3     2   ar
    12     3     4   ar
    13    17    16    1
    14     2     1   ar
    15    24    25   ar
    16    16    15   ar
    17    16    12   ar
    18    22    15    1
    19    22    26   ar
    20     4    12    1
    21     4     5   ar
    22     1     7    1
    23     1     5   ar
    24    15    14   ar
    25    21    20    1
    26    25    26   ar
    27    25    28    1
    28    12    13   ar
    29     5     6    1
    30    26    27    1
    31    14    13   ar
    32    14    20    1
    33    13    19    1
    34    19    18    3
