@<TRIPOS>MOLECULE
mol_data/opt/m06hf/geoms/mol2/13df12da13aa13ff.out
 38 41 0 0 0
SMALL
GASTEIGER

@<TRIPOS>ATOM
      1 C           0.9589    0.0195    1.1360 C.ar    1  LIG1        0.0234
      2 C           0.7332    1.1375    0.3563 C.ar    1  LIG1        0.1111
      3 C          -0.5832    1.0323   -0.1758 C.ar    1  LIG1        0.1625
      4 C          -1.1127   -0.1511    0.3067 C.ar    1  LIG1        0.1267
      5 N          -0.1530   -0.7396    1.1010 N.ar    1  LIG1       -0.3541
      6 H          -0.2906   -1.6086    1.5940 H       1  LIG1        0.1656
      7 H           1.8302   -0.2584    1.7025 H       1  LIG1        0.0821
      8 N           2.4131    3.0485   -0.0683 N.1     1  LIG1       -0.1907
      9 C           1.6608    2.2019    0.1156 C.1     1  LIG1        0.1043
     10 O          -1.1049    1.9072   -1.0599 O.3     1  LIG1       -0.5034
     11 H          -1.9862    2.2134   -0.8029 H       1  LIG1        0.2923
     12 C          -2.3871   -0.7951    0.0737 C.ar    1  LIG1        0.1727
     13 C          -3.6354   -0.3207   -0.2121 C.ar    1  LIG1        0.0996
     14 C          -4.5003   -1.4626   -0.3561 C.ar    1  LIG1        0.0037
     15 C          -3.7170   -2.5418   -0.1120 C.ar    1  LIG1        0.1531
     16 O          -2.4360   -2.1398    0.1423 O.2     1  LIG1       -0.4504
     17 N          -4.1330    2.2057   -0.3403 N.1     1  LIG1       -0.1907
     18 C          -3.9459    1.0725   -0.2923 C.1     1  LIG1        0.1030
     19 H          -5.5452   -1.4611   -0.6113 H       1  LIG1        0.0669
     20 C          -3.9726   -3.9712   -0.0646 C.ar    1  LIG1        0.0826
     21 C          -5.1389   -4.6712    0.1648 C.ar    1  LIG1       -0.0328
     22 C          -4.8219   -6.0501    0.0821 C.ar    1  LIG1       -0.0342
     23 C          -3.4716   -6.1464   -0.1875 C.ar    1  LIG1        0.0671
     24 N          -2.9706   -4.8782   -0.2752 N.ar    1  LIG1       -0.3505
     25 H          -1.9960   -4.6440   -0.3867 H       1  LIG1        0.1660
     26 H          -6.0996   -4.2318    0.3765 H       1  LIG1        0.0640
     27 H          -5.4831   -6.8901    0.2073 H       1  LIG1        0.0639
     28 C          -2.6226   -7.3188   -0.3599 C.ar    1  LIG1        0.1086
     29 C          -2.6429   -8.5218    0.3008 C.ar    1  LIG1        0.1856
     30 C          -1.5962   -9.3194   -0.2337 C.ar    1  LIG1        0.1767
     31 C          -0.9639   -8.5885   -1.2067 C.ar    1  LIG1        0.0480
     32 N          -1.5840   -7.3669   -1.2631 N.ar    1  LIG1       -0.3535
     33 H          -1.4692   -6.7073   -2.0152 H       1  LIG1        0.1656
     34 H          -0.1401   -8.8407   -1.8508 H       1  LIG1        0.0845
     35 O          -3.4905   -8.8818    1.2996 O.3     1  LIG1       -0.5019
     36 H          -3.2324   -9.7582    1.6109 H       1  LIG1        0.2924
     37 O          -1.3629  -10.5759    0.2542 O.3     1  LIG1       -0.5023
     38 H          -0.5603  -10.9476   -0.1238 H       1  LIG1        0.2923
@<TRIPOS>BOND
     1    33    32    1
     2    34    31    1
     3    32    31   ar
     4    32    28   ar
     5    31    30   ar
     6    10    11    1
     7    10     3    1
     8    19    14    1
     9    25    24    1
    10    28    23    1
    11    28    29   ar
    12    14    13   ar
    13    14    15   ar
    14    17    18    3
    15    18    13    1
    16    24    23   ar
    17    24    20   ar
    18    30    37    1
    19    30    29   ar
    20    13    12   ar
    21    23    22   ar
    22     3     4   ar
    23     3     2   ar
    24    38    37    1
    25    15    20    1
    26    15    16   ar
    27     8     9    3
    28    20    21   ar
    29    12    16   ar
    30    12     4    1
    31    22    21   ar
    32    22    27    1
    33     9     2    1
    34    21    26    1
    35    29    35    1
    36     4     5   ar
    37     2     1   ar
    38     5     1   ar
    39     5     6    1
    40     1     7    1
    41    35    36    1
