@<TRIPOS>MOLECULE
mol_data/opt/m06hf/geoms/mol2/13df13df13df-13df.out
 42 45 0 0 0
SMALL
GASTEIGER

@<TRIPOS>ATOM
      1 C           1.2369   -0.0232    0.4767 C.ar    1  LIG1        0.0233
      2 C           0.8190    1.0943   -0.2159 C.ar    1  LIG1        0.1110
      3 C          -0.5829    0.9607   -0.4367 C.ar    1  LIG1        0.1609
      4 C          -0.9659   -0.2370    0.1301 C.ar    1  LIG1        0.1076
      5 N           0.1590   -0.8130    0.6785 N.ar    1  LIG1       -0.3554
      6 H           0.1604   -1.6572    1.2314 H       1  LIG1        0.1655
      7 H           2.2165   -0.2859    0.8357 H       1  LIG1        0.0821
      8 N           2.3098    3.0545   -0.9851 N.1     1  LIG1       -0.1907
      9 C           1.6442    2.1834   -0.6467 C.1     1  LIG1        0.1043
     10 O          -1.3441    1.8122   -1.1647 O.3     1  LIG1       -0.5034
     11 H          -1.9593    2.3048   -0.6029 H       1  LIG1        0.2923
     12 C          -2.2719   -0.8739    0.1547 C.ar    1  LIG1        0.0882
     13 C          -3.5274   -0.2868    0.2763 C.ar    1  LIG1        0.1205
     14 C          -4.4866   -1.3334    0.2272 C.ar    1  LIG1        0.1616
     15 C          -3.7979   -2.5148    0.0923 C.ar    1  LIG1        0.1081
     16 N          -2.4545   -2.2083    0.0489 N.ar    1  LIG1       -0.3478
     17 H          -1.7224   -2.8771   -0.1557 H       1  LIG1        0.1661
     18 N          -3.9446    2.2330    0.6079 N.1     1  LIG1       -0.1907
     19 C          -3.7683    1.1057    0.4643 C.1     1  LIG1        0.1050
     20 O          -5.8340   -1.2866    0.3142 O.3     1  LIG1       -0.5034
     21 H          -6.1793   -0.3865    0.3235 H       1  LIG1        0.2923
     22 C          -4.3448   -3.8519    0.0130 C.ar    1  LIG1        0.0883
     23 C          -3.7033   -5.0881   -0.0634 C.ar    1  LIG1        0.1205
     24 C          -4.7221   -6.0770   -0.1147 C.ar    1  LIG1        0.1616
     25 C          -5.9319   -5.4272   -0.0681 C.ar    1  LIG1        0.1080
     26 N          -5.6713   -4.0782    0.0078 N.ar    1  LIG1       -0.3478
     27 H          -6.3699   -3.3383    0.0657 H       1  LIG1        0.1661
     28 N          -1.1427   -5.3603   -0.0450 N.1     1  LIG1       -0.1907
     29 C          -2.2903   -5.2717   -0.0589 C.1     1  LIG1        0.1050
     30 O          -4.5983   -7.4284   -0.2003 O.3     1  LIG1       -0.5034
     31 H          -3.6731   -7.6967   -0.1609 H       1  LIG1        0.2923
     32 C          -7.2662   -5.9961   -0.0856 C.ar    1  LIG1        0.0878
     33 C          -8.5100   -5.3814   -0.0247 C.ar    1  LIG1        0.1198
     34 C          -9.4893   -6.4142   -0.0756 C.ar    1  LIG1        0.1521
     35 C          -8.8208   -7.6078   -0.1653 C.ar    1  LIG1        0.0455
     36 N          -7.4731   -7.3264   -0.1703 N.ar    1  LIG1       -0.3553
     37 H          -6.7165   -7.9952   -0.2290 H       1  LIG1        0.1655
     38 H          -9.1907   -8.6156   -0.2240 H       1  LIG1        0.0845
     39 N          -8.7741   -2.8239    0.1376 N.1     1  LIG1       -0.1907
     40 C          -8.7086   -3.9701    0.0663 C.1     1  LIG1        0.1050
     41 O         -10.8186   -6.1568   -0.0339 O.3     1  LIG1       -0.5040
     42 H         -11.3261   -6.9688   -0.1310 H       1  LIG1        0.2923
@<TRIPOS>BOND
     1    10    11    1
     2    10     3    1
     3     8     9    3
     4     9     2    1
     5     3     2   ar
     6     3     4   ar
     7    37    36    1
     8    38    35    1
     9     2     1   ar
    10    30    31    1
    11    30    24    1
    12    36    35   ar
    13    36    32   ar
    14    35    34   ar
    15    17    16    1
    16    42    41    1
    17    24    25   ar
    18    24    23   ar
    19    32    25    1
    20    32    33   ar
    21    34    41    1
    22    34    33   ar
    23    25    26   ar
    24    23    29    1
    25    23    22   ar
    26    29    28    3
    27    33    40    1
    28    26    22   ar
    29    26    27    1
    30    22    15    1
    31    16    15   ar
    32    16    12   ar
    33    40    39    3
    34    15    14   ar
    35     4    12    1
    36     4     5   ar
    37    12    13   ar
    38    14    13   ar
    39    14    20    1
    40    13    19    1
    41    20    21    1
    42    19    18    3
    43     1     5   ar
    44     1     7    1
    45     5     6    1
