@<TRIPOS>MOLECULE
mol_data/opt/m06hf/geoms/mol2/13df13df.out
 22 23 0 0 0
SMALL
GASTEIGER

@<TRIPOS>ATOM
      1 C           1.1381   -0.2480   -0.4573 C.ar    1  LIG1        0.0233
      2 C           0.7527    0.9589    0.0864 C.ar    1  LIG1        0.1110
      3 C          -0.6482    0.8849    0.3470 C.ar    1  LIG1        0.1609
      4 C          -1.0619   -0.3713   -0.0417 C.ar    1  LIG1        0.1076
      5 N           0.0427   -1.0373   -0.5295 N.ar    1  LIG1       -0.3554
      6 H           0.0085   -1.9332   -0.9902 H       1  LIG1        0.1655
      7 H           2.1057   -0.5714   -0.7995 H       1  LIG1        0.0821
      8 N           2.3035    2.9705    0.5424 N.1     1  LIG1       -0.1907
      9 C           1.6078    2.0794    0.3450 C.1     1  LIG1        0.1043
     10 O          -1.3728    1.8566    0.9465 O.3     1  LIG1       -0.5034
     11 H          -2.0686    2.1868    0.3579 H       1  LIG1        0.2923
     12 C          -2.3839   -0.9785    0.0269 C.ar    1  LIG1        0.0878
     13 C          -3.6163   -0.4110   -0.2478 C.ar    1  LIG1        0.1198
     14 C          -4.6097   -1.4039   -0.0088 C.ar    1  LIG1        0.1521
     15 C          -3.9587   -2.5411    0.3910 C.ar    1  LIG1        0.0455
     16 N          -2.6084   -2.2594    0.4055 N.ar    1  LIG1       -0.3553
     17 H          -1.8975   -2.8695    0.7775 H       1  LIG1        0.1655
     18 H          -4.3398   -3.5094    0.6620 H       1  LIG1        0.0845
     19 N          -3.8315    2.0367   -1.0169 N.1     1  LIG1       -0.1907
     20 C          -3.7832    0.9356   -0.6889 C.1     1  LIG1        0.1050
     21 O          -5.9292   -1.1714   -0.1990 O.3     1  LIG1       -0.5040
     22 H          -6.4571   -1.9184    0.1004 H       1  LIG1        0.2923
@<TRIPOS>BOND
     1    19    20    3
     2     6     5    1
     3     7     1    1
     4    20    13    1
     5     5     1   ar
     6     5     4   ar
     7     1     2   ar
     8    13    14   ar
     9    13    12   ar
    10    21    14    1
    11    21    22    1
    12     4    12    1
    13     4     3   ar
    14    14    15   ar
    15    12    16   ar
    16     2     9    1
    17     2     3   ar
    18     9     8    3
    19     3    10    1
    20    11    10    1
    21    15    16   ar
    22    15    18    1
    23    16    17    1
