@<TRIPOS>MOLECULE
mol_data/opt/m06hf/geoms/mol2/13df13df-.out
 22 23 0 0 0
SMALL
GASTEIGER

@<TRIPOS>ATOM
      1 C           1.1483   -0.3235    0.0030 C.ar    1  LIG1        0.0233
      2 C           0.7040    0.9878    0.0082 C.ar    1  LIG1        0.1110
      3 C          -0.7165    0.9423    0.0074 C.ar    1  LIG1        0.1609
      4 C          -1.0905   -0.3788    0.0017 C.ar    1  LIG1        0.1076
      5 N           0.0668   -1.1251   -0.0009 N.ar    1  LIG1       -0.3554
      6 H           0.0891   -2.1373   -0.0052 H       1  LIG1        0.1655
      7 H           2.1525   -0.7085    0.0019 H       1  LIG1        0.0821
      8 N           2.0194    3.2042    0.0181 N.1     1  LIG1       -0.1907
      9 C           1.4719    2.1943    0.0136 C.1     1  LIG1        0.1043
     10 O          -1.5970    1.9773    0.0113 O.3     1  LIG1       -0.5034
     11 H          -1.1300    2.8222    0.0151 H       1  LIG1        0.2923
     12 C          -2.4308   -0.9354   -0.0011 C.ar    1  LIG1        0.0878
     13 C          -2.8664   -2.2555   -0.0070 C.ar    1  LIG1        0.1198
     14 C          -4.2940   -2.2295   -0.0074 C.ar    1  LIG1        0.1521
     15 C          -4.6743   -0.9148   -0.0020 C.ar    1  LIG1        0.0455
     16 N          -3.5275   -0.1532    0.0017 N.ar    1  LIG1       -0.3553
     17 H          -3.4748    0.8574    0.0060 H       1  LIG1        0.1655
     18 H          -5.6571   -0.4823   -0.0006 H       1  LIG1        0.0845
     19 N          -1.2865   -4.2902   -0.0150 N.1     1  LIG1       -0.1907
     20 C          -2.0126   -3.3969   -0.0115 C.1     1  LIG1        0.1050
     21 O          -5.1365   -3.2906   -0.0120 O.3     1  LIG1       -0.5040
     22 H          -4.6386   -4.1158   -0.0171 H       1  LIG1        0.2923
@<TRIPOS>BOND
     1    22    21    1
     2    19    20    3
     3    21    14    1
     4    20    13    1
     5    14    13   ar
     6    14    15   ar
     7    13    12   ar
     8     6     5    1
     9    15    18    1
    10    15    16   ar
    11    12    16   ar
    12    12     4    1
    13     5     4   ar
    14     5     1   ar
    15    16    17    1
    16     4     3   ar
    17     7     1    1
    18     1     2   ar
    19     3     2   ar
    20     3    10    1
    21     2     9    1
    22    10    11    1
    23     9     8    3
