@<TRIPOS>MOLECULE
mol_data/opt/m06hf/geoms/mol2/13df13df13df13df.out
 42 45 0 0 0
SMALL
GASTEIGER

@<TRIPOS>ATOM
      1 C           0.6810    0.5119   -1.7468 C.ar    1  LIG1        0.0233
      2 C           0.7422    1.2186   -0.5643 C.ar    1  LIG1        0.1110
      3 C          -0.4036    0.8629    0.2073 C.ar    1  LIG1        0.1609
      4 C          -1.1146   -0.0573   -0.5329 C.ar    1  LIG1        0.1076
      5 N          -0.4347   -0.2524   -1.7168 N.ar    1  LIG1       -0.3554
      6 H          -0.7970   -0.7655   -2.5055 H       1  LIG1        0.1655
      7 H           1.3461    0.5264   -2.5927 H       1  LIG1        0.0821
      8 N           2.6105    2.8605    0.1205 N.1     1  LIG1       -0.1907
      9 C           1.7761    2.1322   -0.1784 C.1     1  LIG1        0.1043
     10 O          -0.6591    1.2957    1.4624 O.3     1  LIG1       -0.5034
     11 H          -1.4788    1.8128    1.4930 H       1  LIG1        0.2923
     12 C          -2.3395   -0.7642   -0.1870 C.ar    1  LIG1        0.0882
     13 C          -3.4877   -0.2712    0.4096 C.ar    1  LIG1        0.1205
     14 C          -4.4066   -1.3488    0.5539 C.ar    1  LIG1        0.1616
     15 C          -3.7858   -2.4700    0.0433 C.ar    1  LIG1        0.1081
     16 N          -2.5375   -2.0877   -0.4045 N.ar    1  LIG1       -0.3478
     17 H          -1.8652   -2.7004   -0.8401 H       1  LIG1        0.1661
     18 N          -3.6657    2.1984    1.1177 N.1     1  LIG1       -0.1907
     19 C          -3.6408    1.0927    0.8043 C.1     1  LIG1        0.1050
     20 O          -5.6135   -1.2579    1.1514 O.3     1  LIG1       -0.5034
     21 H          -6.3285   -1.4926    0.5394 H       1  LIG1        0.2923
     22 C          -4.2682   -3.8428   -0.0075 C.ar    1  LIG1        0.0883
     23 C          -5.5246   -4.3076   -0.3562 C.ar    1  LIG1        0.1205
     24 C          -5.5226   -5.7255   -0.2259 C.ar    1  LIG1        0.1616
     25 C          -4.2591   -6.0820    0.1995 C.ar    1  LIG1        0.1080
     26 N          -3.5174   -4.9243    0.3169 N.ar    1  LIG1       -0.3478
     27 H          -2.5563   -4.8865    0.6207 H       1  LIG1        0.1661
     28 N          -7.4007   -2.6739   -1.0209 N.1     1  LIG1       -0.1907
     29 C          -6.5939   -3.4458   -0.7474 C.1     1  LIG1        0.1050
     30 O          -6.6026   -6.5097   -0.4223 O.3     1  LIG1       -0.5034
     31 H          -6.4332   -7.1833   -1.0992 H       1  LIG1        0.2923
     32 C          -3.7236   -7.3987    0.5188 C.ar    1  LIG1        0.0878
     33 C          -3.9104   -8.5943   -0.1535 C.ar    1  LIG1        0.1198
     34 C          -3.2081   -9.6056    0.5631 C.ar    1  LIG1        0.1521
     35 C          -2.6102   -8.9984    1.6363 C.ar    1  LIG1        0.0455
     36 N          -2.9359   -7.6593    1.5890 N.ar    1  LIG1       -0.3553
     37 H          -2.7435   -6.9992    2.3270 H       1  LIG1        0.1655
     38 H          -1.9942   -9.4045    2.4190 H       1  LIG1        0.0845
     39 N          -5.3576   -8.7176   -2.2793 N.1     1  LIG1       -0.1907
     40 C          -4.6884   -8.7110   -1.3437 C.1     1  LIG1        0.1050
     41 O          -3.1855  -10.8957    0.1598 O.3     1  LIG1       -0.5040
     42 H          -2.6676  -11.4394    0.7625 H       1  LIG1        0.2923
@<TRIPOS>BOND
     1     7     1    1
     2     6     5    1
     3    39    40    3
     4     1     5   ar
     5     1     2   ar
     6     5     4   ar
     7    40    33    1
     8    31    30    1
     9    28    29    3
    10    17    16    1
    11    29    23    1
    12     2     9    1
    13     2     3   ar
    14     4    12    1
    15     4     3   ar
    16    30    24    1
    17    16    12   ar
    18    16    15   ar
    19    23    24   ar
    20    23    22   ar
    21    24    25   ar
    22    12    13   ar
    23     9     8    3
    24    33    32   ar
    25    33    34   ar
    26    22    15    1
    27    22    26   ar
    28    15    14   ar
    29    41    34    1
    30    41    42    1
    31    25    26   ar
    32    25    32    1
    33     3    10    1
    34    26    27    1
    35    13    14   ar
    36    13    19    1
    37    32    36   ar
    38    21    20    1
    39    14    20    1
    40    34    35   ar
    41    19    18    3
    42    10    11    1
    43    36    35   ar
    44    36    37    1
    45    35    38    1
