@<TRIPOS>MOLECULE
mol_data/opt/m06hf/geoms/mol2/13df13df-13df-13df-.out
 42 45 0 0 0
SMALL
GASTEIGER

@<TRIPOS>ATOM
      1 C           1.3283   -0.3775   -0.3534 C.ar    1  LIG1        0.0233
      2 C           0.8445    0.8363   -0.8146 C.ar    1  LIG1        0.1110
      3 C          -0.5691    0.7887   -0.6920 C.ar    1  LIG1        0.1609
      4 C          -0.8998   -0.4363   -0.1662 C.ar    1  LIG1        0.1076
      5 N           0.2769   -1.1233    0.0297 N.ar    1  LIG1       -0.3554
      6 H           0.3274   -2.0626    0.4069 H       1  LIG1        0.1655
      7 H           2.3421   -0.7307   -0.2820 H       1  LIG1        0.0821
      8 N           2.0783    2.8995   -1.7436 N.1     1  LIG1       -0.1907
      9 C           1.5694    1.9587   -1.3247 C.1     1  LIG1        0.1043
     10 O          -1.4793    1.7466   -1.0145 O.3     1  LIG1       -0.5034
     11 H          -1.0448    2.4913   -1.4492 H       1  LIG1        0.2923
     12 C          -2.2205   -0.9511    0.1358 C.ar    1  LIG1        0.0882
     13 C          -2.6294   -2.1781    0.6384 C.ar    1  LIG1        0.1205
     14 C          -4.0519   -2.1651    0.7048 C.ar    1  LIG1        0.1616
     15 C          -4.4602   -0.9277    0.2474 C.ar    1  LIG1        0.1081
     16 N          -3.3285   -0.2141   -0.0937 N.ar    1  LIG1       -0.3478
     17 H          -3.2961    0.6781   -0.5724 H       1  LIG1        0.1661
     18 N          -0.9110   -3.9917    1.2603 N.1     1  LIG1       -0.1907
     19 C          -1.7265   -3.2225    1.0040 C.1     1  LIG1        0.1050
     20 O          -4.7890   -3.1719    1.2170 O.3     1  LIG1       -0.5034
     21 H          -5.4829   -3.4563    0.6026 H       1  LIG1        0.2923
     22 C          -5.7947   -0.3570    0.1558 C.ar    1  LIG1        0.0883
     23 C          -6.9839   -0.9534   -0.2320 C.ar    1  LIG1        0.1205
     24 C          -8.0130    0.0284   -0.1579 C.ar    1  LIG1        0.1616
     25 C          -7.4190    1.1956    0.2724 C.ar    1  LIG1        0.1080
     26 N          -6.0750    0.9365    0.4493 N.ar    1  LIG1       -0.3478
     27 H          -5.3929    1.6158    0.7511 H       1  LIG1        0.1661
     28 N          -7.0740   -3.4365   -0.9068 N.1     1  LIG1       -0.1907
     29 C          -7.0847   -2.3210   -0.6273 C.1     1  LIG1        0.1050
     30 O          -9.3203   -0.2100   -0.4058 O.3     1  LIG1       -0.5034
     31 H          -9.6455    0.3324   -1.1399 H       1  LIG1        0.2923
     32 C          -8.0168    2.4982    0.5316 C.ar    1  LIG1        0.0878
     33 C          -8.9719    3.1728   -0.2125 C.ar    1  LIG1        0.1198
     34 C          -9.2591    4.3983    0.4595 C.ar    1  LIG1        0.1521
     35 C          -8.4683    4.4372    1.5763 C.ar    1  LIG1        0.0455
     36 N          -7.7256    3.2769    1.5984 N.ar    1  LIG1       -0.3553
     37 H          -7.1475    2.9845    2.3714 H       1  LIG1        0.1655
     38 H          -8.3898    5.1892    2.3396 H       1  LIG1        0.0845
     39 N          -9.9866    2.2313   -2.3850 N.1     1  LIG1       -0.1907
     40 C          -9.5348    2.6771   -1.4250 C.1     1  LIG1        0.1050
     41 O         -10.1277    5.3647    0.0845 O.3     1  LIG1       -0.5040
     42 H         -10.5742    5.1231   -0.7348 H       1  LIG1        0.2923
@<TRIPOS>BOND
     1    39    40    3
     2     8     9    3
     3    11    10    1
     4    40    33    1
     5     9     2    1
     6    31    30    1
     7    10     3    1
     8    28    29    3
     9     2     3   ar
    10     2     1   ar
    11    42    41    1
    12     3     4   ar
    13    29    23    1
    14    17    16    1
    15    30    24    1
    16     1     7    1
    17     1     5   ar
    18    23    24   ar
    19    23    22   ar
    20    33    34   ar
    21    33    32   ar
    22     4     5   ar
    23     4    12    1
    24    24    25   ar
    25    16    12   ar
    26    16    15   ar
    27     5     6    1
    28    41    34    1
    29    12    13   ar
    30    22    15    1
    31    22    26   ar
    32    15    14   ar
    33    25    26   ar
    34    25    32    1
    35    26    27    1
    36    34    35   ar
    37    32    36   ar
    38    21    20    1
    39    13    14   ar
    40    13    19    1
    41    14    20    1
    42    19    18    3
    43    35    36   ar
    44    35    38    1
    45    36    37    1
