@<TRIPOS>MOLECULE
mol_data/opt/m06hf/geoms/mol2/13df13df-13df13df-.out
 42 45 0 0 0
SMALL
GASTEIGER

@<TRIPOS>ATOM
      1 C           1.2779   -0.3379   -0.0066 C.ar    1  LIG1        0.0233
      2 C           0.8389    0.9767   -0.0065 C.ar    1  LIG1        0.1110
      3 C          -0.5808    0.9362   -0.0048 C.ar    1  LIG1        0.1609
      4 C          -0.9576   -0.3854   -0.0038 C.ar    1  LIG1        0.1076
      5 N           0.1965   -1.1378   -0.0049 N.ar    1  LIG1       -0.3554
      6 H           0.2158   -2.1498   -0.0045 H       1  LIG1        0.1655
      7 H           2.2820   -0.7240   -0.0077 H       1  LIG1        0.0821
      8 N           2.1778    3.1784   -0.0089 N.1     1  LIG1       -0.1907
      9 C           1.6165    2.1765   -0.0079 C.1     1  LIG1        0.1043
     10 O          -1.4686    1.9576   -0.0041 O.3     1  LIG1       -0.5034
     11 H          -1.0298    2.8173   -0.0039 H       1  LIG1        0.2923
     12 C          -2.3037   -0.9185   -0.0017 C.ar    1  LIG1        0.0882
     13 C          -2.7581   -2.2379   -0.0005 C.ar    1  LIG1        0.1205
     14 C          -4.1773   -2.1838    0.0015 C.ar    1  LIG1        0.1616
     15 C          -4.5386   -0.8571    0.0014 C.ar    1  LIG1        0.1081
     16 N          -3.3811   -0.1116   -0.0006 N.ar    1  LIG1       -0.3478
     17 H          -3.3177    0.9042   -0.0012 H       1  LIG1        0.1661
     18 N          -1.1950   -4.2841   -0.0016 N.1     1  LIG1       -0.1907
     19 C          -1.9182   -3.3892   -0.0011 C.1     1  LIG1        0.1050
     20 O          -5.0853   -3.1877    0.0033 O.3     1  LIG1       -0.5034
     21 H          -4.6764   -4.0608    0.0029 H       1  LIG1        0.2923
     22 C          -5.8773   -0.3098    0.0031 C.ar    1  LIG1        0.0883
     23 C          -6.3210    1.0121    0.0032 C.ar    1  LIG1        0.1205
     24 C          -7.7412    0.9682    0.0052 C.ar    1  LIG1        0.1616
     25 C          -8.1156   -0.3536    0.0063 C.ar    1  LIG1        0.1080
     26 N          -6.9633   -1.1057    0.0050 N.ar    1  LIG1       -0.3478
     27 H          -6.9127   -2.1221    0.0053 H       1  LIG1        0.1661
     28 N          -4.7916    3.0851    0.0002 N.1     1  LIG1       -0.1907
     29 C          -5.4870    2.1685    0.0015 C.1     1  LIG1        0.1050
     30 O          -8.6250    2.0012    0.0061 O.3     1  LIG1       -0.5034
     31 H          -8.1634    2.8480    0.0057 H       1  LIG1        0.2923
     32 C          -9.4488   -0.9217    0.0086 C.ar    1  LIG1        0.0878
     33 C          -9.8615   -2.2494    0.0098 C.ar    1  LIG1        0.1198
     34 C         -11.2893   -2.2459    0.0120 C.ar    1  LIG1        0.1521
     35 C         -11.6922   -0.9378    0.0119 C.ar    1  LIG1        0.0455
     36 N         -10.5579   -0.1571    0.0098 N.ar    1  LIG1       -0.3553
     37 H         -10.5216    0.8539    0.0092 H       1  LIG1        0.1655
     38 H         -12.6827   -0.5221    0.0132 H       1  LIG1        0.0845
     39 N          -8.2670   -4.2738    0.0085 N.1     1  LIG1       -0.1907
     40 C          -8.9947   -3.3820    0.0092 C.1     1  LIG1        0.1050
     41 O         -12.1119   -3.3230    0.0138 O.3     1  LIG1       -0.5040
     42 H         -11.5956   -4.1367    0.0134 H       1  LIG1        0.2923
@<TRIPOS>BOND
     1     8     9    3
     2     9     2    1
     3     7     1    1
     4     1     2   ar
     5     1     5   ar
     6     2     3   ar
     7     5     6    1
     8     5     4   ar
     9     3    10    1
    10     3     4   ar
    11    10    11    1
    12     4    12    1
    13    12    16   ar
    14    12    13   ar
    15    18    19    3
    16    17    16    1
    17    19    13    1
    18    16    15   ar
    19    13    14   ar
    20    28    29    3
    21    15    14   ar
    22    15    22    1
    23    14    20    1
    24    29    23    1
    25    21    20    1
    26    22    23   ar
    27    22    26   ar
    28    23    24   ar
    29    26    27    1
    30    26    25   ar
    31    24    30    1
    32    24    25   ar
    33    31    30    1
    34    25    32    1
    35    39    40    3
    36    32    36   ar
    37    32    33   ar
    38    40    33    1
    39    37    36    1
    40    36    35   ar
    41    33    34   ar
    42    35    34   ar
    43    35    38    1
    44    34    41    1
    45    42    41    1
