@<TRIPOS>MOLECULE
mol_data/opt/m06hf/geoms/mol2/13df13df-13df.out
 32 34 0 0 0
SMALL
GASTEIGER

@<TRIPOS>ATOM
      1 C           1.2271   -0.3222    0.0041 C.ar    1  LIG1        0.0233
      2 C           0.7664    0.9846    0.0009 C.ar    1  LIG1        0.1110
      3 C          -0.6530    0.9206    0.0020 C.ar    1  LIG1        0.1609
      4 C          -1.0071   -0.4071    0.0055 C.ar    1  LIG1        0.1076
      5 N           0.1584   -1.1408    0.0066 N.ar    1  LIG1       -0.3554
      6 H           0.1978   -2.1519    0.0096 H       1  LIG1        0.1655
      7 H           2.2366   -0.6931    0.0046 H       1  LIG1        0.0821
      8 N           2.1043    3.1885   -0.0059 N.1     1  LIG1       -0.1907
      9 C           1.5354    2.1909   -0.0028 C.1     1  LIG1        0.1043
     10 O          -1.5658    1.9183   -0.0008 O.3     1  LIG1       -0.5034
     11 H          -1.1595    2.7931    0.0038 H       1  LIG1        0.2923
     12 C          -2.3468   -0.9569    0.0058 C.ar    1  LIG1        0.0882
     13 C          -2.7926   -2.2781    0.0046 C.ar    1  LIG1        0.1205
     14 C          -4.2126   -2.2326    0.0033 C.ar    1  LIG1        0.1616
     15 C          -4.5850   -0.9107    0.0039 C.ar    1  LIG1        0.1080
     16 N          -3.4315   -0.1600    0.0055 N.ar    1  LIG1       -0.3478
     17 H          -3.3776    0.8581    0.0073 H       1  LIG1        0.1661
     18 N          -1.2536   -4.3439    0.0037 N.1     1  LIG1       -0.1907
     19 C          -1.9567   -3.4325    0.0040 C.1     1  LIG1        0.1050
     20 O          -5.0982   -3.2651    0.0010 O.3     1  LIG1       -0.5034
     21 H          -4.6398   -4.1132    0.0019 H       1  LIG1        0.2923
     22 C          -5.9219   -0.3483    0.0014 C.ar    1  LIG1        0.0878
     23 C          -6.3479    0.9732    0.0132 C.ar    1  LIG1        0.1198
     24 C          -7.7718    0.9535    0.0027 C.ar    1  LIG1        0.1521
     25 C          -8.1638   -0.3599   -0.0145 C.ar    1  LIG1        0.0455
     26 N          -7.0220   -1.1297   -0.0157 N.ar    1  LIG1       -0.3553
     27 H          -6.9749   -2.1400   -0.0263 H       1  LIG1        0.1655
     28 H          -9.1445   -0.8001   -0.0248 H       1  LIG1        0.0845
     29 N          -4.7093    2.9608    0.0442 N.1     1  LIG1       -0.1907
     30 C          -5.4776    2.1050    0.0304 C.1     1  LIG1        0.1050
     31 O          -8.5122    2.0884    0.0134 O.3     1  LIG1       -0.5040
     32 H          -9.4502    1.8829   -0.0538 H       1  LIG1        0.2923
@<TRIPOS>BOND
     1    32    31    1
     2    27    26    1
     3    28    25    1
     4    26    25   ar
     5    26    22   ar
     6    25    24   ar
     7     8     9    3
     8     9     2    1
     9    10     3    1
    10    10    11    1
    11     2     3   ar
    12     2     1   ar
    13    20    21    1
    14    20    14    1
    15    22    15    1
    16    22    23   ar
    17     3     4   ar
    18    24    23   ar
    19    24    31    1
    20    14    15   ar
    21    14    13   ar
    22    18    19    3
    23    15    16   ar
    24    19    13    1
    25     1     7    1
    26     1     5   ar
    27    13    12   ar
    28    16    12   ar
    29    16    17    1
    30     4    12    1
    31     4     5   ar
    32     5     6    1
    33    23    30    1
    34    30    29    3
