@<TRIPOS>MOLECULE
mol_data/opt/m06hf/geoms/mol2/13df13aa12dd-13li.out
 44 47 0 0 0
SMALL
GASTEIGER

@<TRIPOS>ATOM
      1 C           1.1954    0.4514    0.8004 C.ar    1  LIG1        0.0233
      2 C           0.9158    1.2059   -0.3230 C.ar    1  LIG1        0.1110
      3 C          -0.4408    0.9480   -0.6715 C.ar    1  LIG1        0.1609
      4 C          -0.9386    0.0506    0.2422 C.ar    1  LIG1        0.1062
      5 N           0.0839   -0.2388    1.1267 N.ar    1  LIG1       -0.3554
      6 H          -0.0271   -0.8073    1.9512 H       1  LIG1        0.1655
      7 H           2.1073    0.3835    1.3673 H       1  LIG1        0.0821
      8 N           2.5714    2.7617   -1.5441 N.1     1  LIG1       -0.1907
      9 C           1.8288    2.0720   -1.0056 C.1     1  LIG1        0.1043
     10 O          -1.0692    1.4999   -1.7293 O.3     1  LIG1       -0.5034
     11 H          -1.9668    1.1480   -1.7931 H       1  LIG1        0.2923
     12 C          -2.2837   -0.5200    0.3113 C.ar    1  LIG1        0.0670
     13 C          -3.5091    0.1114    0.4301 C.ar    1  LIG1       -0.0342
     14 C          -4.5119   -0.8879    0.3985 C.ar    1  LIG1       -0.0327
     15 C          -3.8607   -2.0999    0.2644 C.ar    1  LIG1        0.0839
     16 N          -2.5164   -1.8622    0.2115 N.ar    1  LIG1       -0.3505
     17 H          -1.8144   -2.5596    0.0151 H       1  LIG1        0.1660
     18 H          -3.6454    1.1722    0.5623 H       1  LIG1        0.0639
     19 H          -5.5777   -0.7530    0.4782 H       1  LIG1        0.0640
     20 C          -4.3818   -3.4489    0.1752 C.ar    1  LIG1        0.1704
     21 C          -5.6412   -3.9554    0.0787 C.ar    1  LIG1        0.1169
     22 C          -5.5018   -5.3929    0.0262 C.ar    1  LIG1        0.1170
     23 C          -4.1618   -5.6483    0.0780 C.ar    1  LIG1        0.1740
     24 O          -3.4923   -4.4693    0.1713 O.2     1  LIG1       -0.4491
     25 N          -7.8008   -2.5492    0.0437 N.1     1  LIG1       -0.1907
     26 C          -6.8494   -3.1908    0.0534 C.1     1  LIG1        0.1043
     27 N          -7.4822   -7.0405    0.0100 N.1     1  LIG1       -0.1907
     28 C          -6.5804   -6.3312    0.0004 C.1     1  LIG1        0.1043
     29 C          -3.3621   -6.8490    0.0552 C.ar    1  LIG1        0.1259
     30 C          -3.6417   -8.1072   -0.4470 C.ar    1  LIG1        0.1512
     31 C          -2.4844   -8.9174   -0.2837 C.ar    1  LIG1        0.0092
     32 C          -1.5406   -8.1083    0.3128 C.ar    1  LIG1        0.0088
     33 N          -2.0673   -6.8715    0.5071 N.ar    1  LIG1       -0.3550
     34 H          -1.5986   -6.0889    0.9323 H       1  LIG1        0.1655
     35 H          -0.5277   -8.3340    0.6010 H       1  LIG1        0.0811
     36 O          -4.8076   -8.4402   -1.0532 O.3     1  LIG1       -0.4926
     37 C          -5.5721   -9.4442   -0.3788 C.3     1  LIG1        0.0789
     38 H          -6.5235   -9.4975   -0.9000 H       1  LIG1        0.0660
     39 H          -5.0572  -10.4045   -0.4238 H       1  LIG1        0.0660
     40 H          -5.7378   -9.1509    0.6585 H       1  LIG1        0.0660
     41 C          -2.3152  -10.3470   -0.7362 C.3     1  LIG1       -0.0348
     42 H          -1.2596  -10.5668   -0.8937 H       1  LIG1        0.0279
     43 H          -2.8453  -10.4963   -1.6775 H       1  LIG1        0.0279
     44 H          -2.7084  -11.0486    0.0015 H       1  LIG1        0.0279
@<TRIPOS>BOND
     1    11    10    1
     2    10     3    1
     3    43    41    1
     4     8     9    3
     5    36    30    1
     6    36    37    1
     7     9     2    1
     8    38    37    1
     9    42    41    1
    10    41    31    1
    11    41    44    1
    12     3     2   ar
    13     3     4   ar
    14    30    31   ar
    15    30    29   ar
    16    39    37    1
    17    37    40    1
    18     2     1   ar
    19    31    32   ar
    20    28    27    3
    21    28    22    1
    22    17    16    1
    23    22    23   ar
    24    22    21   ar
    25    25    26    3
    26    26    21    1
    27    29    23    1
    28    29    33   ar
    29    23    24   ar
    30    21    20   ar
    31    24    20   ar
    32    20    15    1
    33    16    15   ar
    34    16    12   ar
    35     4    12    1
    36     4     5   ar
    37    15    14   ar
    38    12    13   ar
    39    32    33   ar
    40    32    35    1
    41    14    13   ar
    42    14    19    1
    43    13    18    1
    44    33    34    1
    45     1     5   ar
    46     1     7    1
    47     5     6    1
