@<TRIPOS>MOLECULE
mol_data/opt/m06hf/geoms/mol2/13dg13dg13dg-13dg-.out
 42 45 0 0 0
SMALL
GASTEIGER

@<TRIPOS>ATOM
      1 C           0.4335    0.9348    1.7328 C.ar    1  LIG1        0.0208
      2 C           0.7028    1.2862    0.4286 C.ar    1  LIG1        0.0828
      3 C          -0.3040    0.7019   -0.4006 C.ar    1  LIG1        0.0489
      4 C          -1.1428    0.0094    0.4433 C.ar    1  LIG1        0.0788
      5 N          -0.6808    0.1635    1.7261 N.ar    1  LIG1       -0.3574
      6 H          -1.1661   -0.1607    2.5496 H       1  LIG1        0.1654
      7 H           0.9524    1.1911    2.6399 H       1  LIG1        0.0820
      8 N           2.6961    2.7371   -0.3408 N.1     1  LIG1       -0.1908
      9 C           1.8086    2.0930   -0.0030 C.1     1  LIG1        0.1018
     10 S          -0.3932    0.7597   -2.1641 S.3     1  LIG1       -0.1393
     11 H          -1.3095    1.7342   -2.2383 H       1  LIG1        0.1072
     12 C          -2.3489   -0.7604    0.1353 C.ar    1  LIG1        0.0831
     13 C          -3.5140   -0.3612   -0.4900 C.ar    1  LIG1        0.0922
     14 C          -4.3975   -1.4786   -0.5438 C.ar    1  LIG1        0.0496
     15 C          -3.7261   -2.5268    0.0505 C.ar    1  LIG1        0.0793
     16 N          -2.4986   -2.0730    0.4565 N.ar    1  LIG1       -0.3499
     17 H          -1.8014   -2.6305    0.9278 H       1  LIG1        0.1661
     18 N          -3.8647    2.0357   -1.3796 N.1     1  LIG1       -0.1908
     19 C          -3.7347    0.9659   -0.9848 C.1     1  LIG1        0.1025
     20 S          -5.9888   -1.5325   -1.3093 S.3     1  LIG1       -0.1393
     21 H          -6.6932   -1.3773   -0.1799 H       1  LIG1        0.1072
     22 C          -4.1524   -3.9102    0.2679 C.ar    1  LIG1        0.0831
     23 C          -5.2630   -4.3953    0.9274 C.ar    1  LIG1        0.0922
     24 C          -5.2404   -5.8198    0.8516 C.ar    1  LIG1        0.0496
     25 C          -4.1024   -6.1483    0.1444 C.ar    1  LIG1        0.0793
     26 N          -3.4572   -4.9863   -0.1942 N.ar    1  LIG1       -0.3499
     27 H          -2.6967   -4.9278   -0.8575 H       1  LIG1        0.1661
     28 N          -6.9784   -2.8540    2.0859 N.1     1  LIG1       -0.1908
     29 C          -6.2269   -3.5593    1.5806 C.1     1  LIG1        0.1025
     30 S          -6.3634   -6.9326    1.6390 S.3     1  LIG1       -0.1393
     31 H          -7.1297   -7.1597    0.5645 H       1  LIG1        0.1072
     32 C          -3.5862   -7.4564   -0.2569 C.ar    1  LIG1        0.0827
     33 C          -4.2210   -8.4898   -0.9197 C.ar    1  LIG1        0.0915
     34 C          -3.2800   -9.5496   -1.0832 C.ar    1  LIG1        0.0401
     35 C          -2.1067   -9.1180   -0.5188 C.ar    1  LIG1        0.0167
     36 N          -2.3066   -7.8524   -0.0332 N.ar    1  LIG1       -0.3574
     37 H          -1.6354   -7.3269    0.5053 H       1  LIG1        0.1654
     38 H          -1.1580   -9.6158   -0.4207 H       1  LIG1        0.0818
     39 N          -6.6723   -8.4053   -1.7197 N.1     1  LIG1       -0.1908
     40 C          -5.5791   -8.4494   -1.3709 C.1     1  LIG1        0.1024
     41 S          -3.6562  -11.0849   -1.8716 S.3     1  LIG1       -0.1399
     42 H          -2.3889  -11.5090   -1.9164 H       1  LIG1        0.1072
@<TRIPOS>BOND
     1    11    10    1
     2    10     3    1
     3    42    41    1
     4    41    34    1
     5    39    40    3
     6    18    19    3
     7    40    33    1
     8    20    14    1
     9    20    21    1
    10    34    33   ar
    11    34    35   ar
    12    19    13    1
    13    33    32   ar
    14    27    26    1
    15    14    13   ar
    16    14    15   ar
    17    35    38    1
    18    35    36   ar
    19    13    12   ar
    20     3     2   ar
    21     3     4   ar
    22     8     9    3
    23    32    36   ar
    24    32    25    1
    25    26    25   ar
    26    26    22   ar
    27    36    37    1
    28     9     2    1
    29    15    22    1
    30    15    16   ar
    31    12     4    1
    32    12    16   ar
    33    25    24   ar
    34    22    23   ar
    35     2     1   ar
    36     4     5   ar
    37    16    17    1
    38    31    30    1
    39    24    23   ar
    40    24    30    1
    41    23    29    1
    42    29    28    3
    43     5     1   ar
    44     5     6    1
    45     1     7    1
