@<TRIPOS>MOLECULE
mol_data/opt/m06hf/geoms/mol2/13dg13dg13dg-13dg.out
 42 45 0 0 0
SMALL
GASTEIGER

@<TRIPOS>ATOM
      1 C           0.3098    0.5942    2.3091 C.ar    1  LIG1        0.0208
      2 C           0.7190    1.0700    1.0828 C.ar    1  LIG1        0.0828
      3 C          -0.2255    0.6320    0.1047 C.ar    1  LIG1        0.0489
      4 C          -1.1699   -0.1037    0.7845 C.ar    1  LIG1        0.0788
      5 N          -0.8294   -0.1125    2.1134 N.ar    1  LIG1       -0.3574
      6 H          -1.4001   -0.5064    2.8468 H       1  LIG1        0.1654
      7 H           0.7495    0.7222    3.2827 H       1  LIG1        0.0820
      8 N           2.8373    2.4884    0.6712 N.1     1  LIG1       -0.1908
      9 C           1.8940    1.8600    0.8487 C.1     1  LIG1        0.1018
     10 S          -0.1388    0.8865   -1.6415 S.3     1  LIG1       -0.1393
     11 H          -1.0304    1.8855   -1.6918 H       1  LIG1        0.1072
     12 C          -2.3656   -0.7808    0.2790 C.ar    1  LIG1        0.0831
     13 C          -3.4487   -0.2659   -0.4076 C.ar    1  LIG1        0.0922
     14 C          -4.3532   -1.3341   -0.6769 C.ar    1  LIG1        0.0496
     15 C          -3.7772   -2.4681   -0.1457 C.ar    1  LIG1        0.0793
     16 N          -2.5862   -2.1138    0.4305 N.ar    1  LIG1       -0.3499
     17 H          -1.9567   -2.7483    0.9008 H       1  LIG1        0.1661
     18 N          -3.6376    2.2212   -1.0703 N.1     1  LIG1       -0.1908
     19 C          -3.5785    1.1136   -0.7745 C.1     1  LIG1        0.1025
     20 S          -5.8598   -1.2429   -1.5950 S.3     1  LIG1       -0.1393
     21 H          -6.6723   -1.1876   -0.5323 H       1  LIG1        0.1072
     22 C          -4.2659   -3.8483   -0.1331 C.ar    1  LIG1        0.0831
     23 C          -5.4250   -4.3676    0.4094 C.ar    1  LIG1        0.0922
     24 C          -5.4311   -5.7740    0.1797 C.ar    1  LIG1        0.0496
     25 C          -4.2685   -6.0569   -0.5071 C.ar    1  LIG1        0.0793
     26 N          -3.5794   -4.8863   -0.6799 N.ar    1  LIG1       -0.3499
     27 H          -2.6887   -4.8042   -1.1492 H       1  LIG1        0.1661
     28 N          -7.1858   -2.8893    1.5814 N.1     1  LIG1       -0.1908
     29 C          -6.4146   -3.5700    1.0721 C.1     1  LIG1        0.1025
     30 S          -6.7071   -6.9166    0.6154 S.3     1  LIG1       -0.1393
     31 H          -6.1300   -7.3461    1.7455 H       1  LIG1        0.1072
     32 C          -3.7532   -7.3388   -0.9918 C.ar    1  LIG1        0.0827
     33 C          -3.4766   -8.4921   -0.2876 C.ar    1  LIG1        0.0915
     34 C          -3.0038   -9.4685   -1.2159 C.ar    1  LIG1        0.0401
     35 C          -3.0024   -8.8633   -2.4476 C.ar    1  LIG1        0.0167
     36 N          -3.4470   -7.5817   -2.2967 N.ar    1  LIG1       -0.3574
     37 H          -3.6234   -6.9344   -3.0508 H       1  LIG1        0.1654
     38 H          -2.7206   -9.2625   -3.4065 H       1  LIG1        0.0818
     39 N          -3.8179   -8.7012    2.2622 N.1     1  LIG1       -0.1908
     40 C          -3.6533   -8.6253    1.1282 C.1     1  LIG1        0.1024
     41 S          -2.4315  -11.1038   -0.8708 S.3     1  LIG1       -0.1399
     42 H          -3.6249  -11.6184   -0.5552 H       1  LIG1        0.1072
@<TRIPOS>BOND
     1    38    35    1
     2    37    36    1
     3    35    36   ar
     4    35    34   ar
     5    36    32   ar
     6    11    10    1
     7    10     3    1
     8    20    14    1
     9    20    21    1
    10    34    41    1
    11    34    33   ar
    12    27    26    1
    13    18    19    3
    14    32    25    1
    15    32    33   ar
    16    41    42    1
    17    19    13    1
    18    26    25   ar
    19    26    22   ar
    20    14    13   ar
    21    14    15   ar
    22    25    24   ar
    23    13    12   ar
    24    33    40    1
    25    15    22    1
    26    15    16   ar
    27    22    23   ar
    28     3     4   ar
    29     3     2   ar
    30    24    23   ar
    31    24    30    1
    32    12    16   ar
    33    12     4    1
    34    23    29    1
    35    16    17    1
    36    30    31    1
    37     8     9    3
    38     4     5   ar
    39     9     2    1
    40    29    28    3
    41     2     1   ar
    42    40    39    3
    43     5     1   ar
    44     5     6    1
    45     1     7    1
