@<TRIPOS>MOLECULE
mol_data/opt/m06hf/geoms/mol2/13dg13dg13dg13dg-.out
 42 45 0 0 0
SMALL
GASTEIGER

@<TRIPOS>ATOM
      1 C           1.2107    0.2640    0.2669 C.ar    1  LIG1        0.0208
      2 C           0.6551    1.3616   -0.3514 C.ar    1  LIG1        0.0828
      3 C          -0.7540    1.1449   -0.4540 C.ar    1  LIG1        0.0489
      4 C          -0.9934   -0.0910    0.1050 C.ar    1  LIG1        0.0788
      5 N           0.2056   -0.6046    0.5341 N.ar    1  LIG1       -0.3574
      6 H           0.2999   -1.4542    1.0690 H       1  LIG1        0.1654
      7 H           2.2342    0.0642    0.5316 H       1  LIG1        0.0820
      8 N           1.9875    3.4169   -1.1684 N.1     1  LIG1       -0.1908
      9 C           1.3867    2.5087   -0.8079 C.1     1  LIG1        0.1018
     10 S          -1.9235    2.2068   -1.2465 S.3     1  LIG1       -0.1393
     11 H          -2.4389    2.7206   -0.1207 H       1  LIG1        0.1072
     12 C          -2.2494   -0.8201    0.2817 C.ar    1  LIG1        0.0831
     13 C          -3.4289   -0.4244    0.8802 C.ar    1  LIG1        0.0922
     14 C          -4.3624   -1.5000    0.7872 C.ar    1  LIG1        0.0496
     15 C          -3.7048   -2.5218    0.1345 C.ar    1  LIG1        0.0793
     16 N          -2.4328   -2.0956   -0.1583 N.ar    1  LIG1       -0.3499
     17 H          -1.8039   -2.5677   -0.7923 H       1  LIG1        0.1661
     18 N          -3.7339    1.8875    1.9853 N.1     1  LIG1       -0.1908
     19 C          -3.6192    0.8521    1.5033 C.1     1  LIG1        0.1025
     20 S          -5.9715   -1.5371    1.5182 S.3     1  LIG1       -0.1393
     21 H          -6.6620   -1.4803    0.3726 H       1  LIG1        0.1072
     22 C          -4.1677   -3.8571   -0.2405 C.ar    1  LIG1        0.0831
     23 C          -5.3087   -4.2495   -0.9122 C.ar    1  LIG1        0.0922
     24 C          -5.2991   -5.6726   -1.0176 C.ar    1  LIG1        0.0496
     25 C          -4.1359   -6.0950   -0.4113 C.ar    1  LIG1        0.0793
     26 N          -3.4652   -4.9889    0.0465 N.ar    1  LIG1       -0.3499
     27 H          -2.6809   -5.0237    0.6820 H       1  LIG1        0.1661
     28 N          -7.0602   -2.5939   -1.8356 N.1     1  LIG1       -0.1908
     29 C          -6.2886   -3.3445   -1.4359 C.1     1  LIG1        0.1025
     30 S          -6.4781   -6.6684   -1.8802 S.3     1  LIG1       -0.1393
     31 H          -7.1652   -7.0529   -0.7966 H       1  LIG1        0.1072
     32 C          -3.6183   -7.4480   -0.2069 C.ar    1  LIG1        0.0827
     33 C          -4.2298   -8.5457    0.3669 C.ar    1  LIG1        0.0915
     34 C          -3.3060   -9.6324    0.3303 C.ar    1  LIG1        0.0401
     35 C          -2.1653   -9.1520   -0.2610 C.ar    1  LIG1        0.0167
     36 N          -2.3689   -7.8335   -0.5743 N.ar    1  LIG1       -0.3574
     37 H          -1.7357   -7.2603   -1.1104 H       1  LIG1        0.1654
     38 H          -1.2369   -9.6474   -0.4853 H       1  LIG1        0.0818
     39 N          -6.6259   -8.5354    1.3247 N.1     1  LIG1       -0.1908
     40 C          -5.5565   -8.5441    0.9059 C.1     1  LIG1        0.1024
     41 S          -3.6636  -11.2389    0.9687 S.3     1  LIG1       -0.1399
     42 H          -2.5157  -11.7910    0.5622 H       1  LIG1        0.1072
@<TRIPOS>BOND
     1    30    24    1
     2    30    31    1
     3    28    29    3
     4    29    23    1
     5    10     3    1
     6    10    11    1
     7     8     9    3
     8    37    36    1
     9    24    23   ar
    10    24    25   ar
    11    23    22   ar
    12     9     2    1
    13    17    16    1
    14    36    35   ar
    15    36    32   ar
    16    38    35    1
    17     3     2   ar
    18     3     4   ar
    19    25    32    1
    20    25    26   ar
    21     2     1   ar
    22    35    34   ar
    23    22    26   ar
    24    22    15    1
    25    32    33   ar
    26    16    15   ar
    27    16    12   ar
    28    26    27    1
    29     4    12    1
    30     4     5   ar
    31    15    14   ar
    32     1     7    1
    33     1     5   ar
    34    12    13   ar
    35    34    33   ar
    36    34    41    1
    37    33    40    1
    38    21    20    1
    39     5     6    1
    40    42    41    1
    41    14    13   ar
    42    14    20    1
    43    13    19    1
    44    40    39    3
    45    19    18    3
