@<TRIPOS>MOLECULE
mol_data/opt/m06hf/geoms/mol2/13dg13dg-13dg-.out
 32 34 0 0 0
SMALL
GASTEIGER

@<TRIPOS>ATOM
      1 C           1.2110   -0.0222   -0.3450 C.ar    1  LIG1        0.0208
      2 C           0.7628    0.9650    0.5040 C.ar    1  LIG1        0.0828
      3 C          -0.6465    0.7970    0.6713 C.ar    1  LIG1        0.0489
      4 C          -0.9950   -0.2993   -0.0866 C.ar    1  LIG1        0.0788
      5 N           0.1408   -0.7785   -0.6908 N.ar    1  LIG1       -0.3574
      6 H           0.1506   -1.5169   -1.3776 H       1  LIG1        0.1654
      7 H           2.2018   -0.2184   -0.7165 H       1  LIG1        0.0820
      8 N           2.2674    2.7685    1.5766 N.1     1  LIG1       -0.1908
      9 C           1.5899    1.9717    1.1054 C.1     1  LIG1        0.1018
     10 S          -1.6969    1.7355    1.7383 S.3     1  LIG1       -0.1393
     11 H          -2.2413    2.4964    0.7813 H       1  LIG1        0.1072
     12 C          -2.3016   -0.9227   -0.2962 C.ar    1  LIG1        0.0831
     13 C          -3.4922   -0.3650   -0.7169 C.ar    1  LIG1        0.0922
     14 C          -4.4816   -1.3930   -0.7482 C.ar    1  LIG1        0.0496
     15 C          -3.8459   -2.5493   -0.3481 C.ar    1  LIG1        0.0793
     16 N          -2.5335   -2.2478   -0.0846 N.ar    1  LIG1       -0.3499
     17 H          -1.8929   -2.8637    0.3962 H       1  LIG1        0.1661
     18 N          -3.7177    2.1251   -1.3559 N.1     1  LIG1       -0.1908
     19 C          -3.6414    1.0132   -1.0803 C.1     1  LIG1        0.1025
     20 S          -6.1392   -1.2265   -1.3375 S.3     1  LIG1       -0.1393
     21 H          -6.7277   -1.2202   -0.1344 H       1  LIG1        0.1072
     22 C          -4.3682   -3.9043   -0.1736 C.ar    1  LIG1        0.0827
     23 C          -5.4621   -4.3436    0.5481 C.ar    1  LIG1        0.0915
     24 C          -5.5409   -5.7610    0.4068 C.ar    1  LIG1        0.0401
     25 C          -4.4885   -6.1312   -0.3905 C.ar    1  LIG1        0.0167
     26 N          -3.7883   -5.0013   -0.7252 N.ar    1  LIG1       -0.3574
     27 H          -3.0244   -4.9664   -1.3827 H       1  LIG1        0.1654
     28 H          -4.1914   -7.1031   -0.7441 H       1  LIG1        0.0818
     29 N          -7.0096   -2.7919    1.9091 N.1     1  LIG1       -0.1908
     30 C          -6.3224   -3.4910    1.3107 C.1     1  LIG1        0.1024
     31 S          -6.7946   -6.7540    1.1572 S.3     1  LIG1       -0.1399
     32 H          -6.2936   -7.9162    0.7256 H       1  LIG1        0.1072
@<TRIPOS>BOND
     1    27    26    1
     2     6     5    1
     3    18    19    3
     4    20    14    1
     5    20    21    1
     6    19    13    1
     7    14    13   ar
     8    14    15   ar
     9    28    25    1
    10    26    25   ar
    11    26    22   ar
    12    13    12   ar
    13     7     1    1
    14     5     1   ar
    15     5     4   ar
    16    25    24   ar
    17    15    22    1
    18    15    16   ar
    19     1     2   ar
    20    12     4    1
    21    12    16   ar
    22    22    23   ar
    23     4     3   ar
    24    16    17    1
    25    24    23   ar
    26    24    31    1
    27     2     3   ar
    28     2     9    1
    29    23    30    1
    30     3    10    1
    31    32    31    1
    32    11    10    1
    33     9     8    3
    34    30    29    3
