@<TRIPOS>MOLECULE
mol_data/opt/m06hf/geoms/mol2/13dg13dg-13dg-13dg-.out
 42 45 0 0 0
SMALL
GASTEIGER

@<TRIPOS>ATOM
      1 C           1.2009    0.3476   -0.2030 C.ar    1  LIG1        0.0208
      2 C           0.6124    1.4197    0.4297 C.ar    1  LIG1        0.0828
      3 C          -0.7929    1.1705    0.5062 C.ar    1  LIG1        0.0489
      4 C          -0.9970   -0.0582   -0.0822 C.ar    1  LIG1        0.0788
      5 N           0.2191   -0.5366   -0.5036 N.ar    1  LIG1       -0.3574
      6 H           0.3400   -1.3723   -1.0549 H       1  LIG1        0.1654
      7 H           2.2323    0.1755   -0.4562 H       1  LIG1        0.0820
      8 N           1.8862    3.4847    1.3128 N.1     1  LIG1       -0.1908
      9 C           1.3114    2.5720    0.9225 C.1     1  LIG1        0.1018
     10 S          -1.9965    2.1900    1.3035 S.3     1  LIG1       -0.1393
     11 H          -2.5072    2.7164    0.1814 H       1  LIG1        0.1072
     12 C          -2.2346   -0.8109   -0.2876 C.ar    1  LIG1        0.0831
     13 C          -3.4167   -0.4284   -0.8891 C.ar    1  LIG1        0.0922
     14 C          -4.3300   -1.5229   -0.8187 C.ar    1  LIG1        0.0496
     15 C          -3.6578   -2.5420   -0.1776 C.ar    1  LIG1        0.0793
     16 N          -2.3957   -2.0977    0.1289 N.ar    1  LIG1       -0.3499
     17 H          -1.7604   -2.5697    0.7564 H       1  LIG1        0.1661
     18 N          -3.7647    1.8947   -1.9575 N.1     1  LIG1       -0.1908
     19 C          -3.6294    0.8541   -1.4923 C.1     1  LIG1        0.1025
     20 S          -5.9430   -1.5909   -1.5404 S.3     1  LIG1       -0.1393
     21 H          -6.6183   -1.3719   -0.4032 H       1  LIG1        0.1072
     22 C          -4.1045   -3.8885    0.1770 C.ar    1  LIG1        0.0831
     23 C          -5.2425   -4.3014    0.8408 C.ar    1  LIG1        0.0922
     24 C          -5.2204   -5.7259    0.9210 C.ar    1  LIG1        0.0496
     25 C          -4.0529   -6.1280    0.3089 C.ar    1  LIG1        0.0793
     26 N          -3.3912   -5.0086   -0.1288 N.ar    1  LIG1       -0.3499
     27 H          -2.6056   -5.0249   -0.7635 H       1  LIG1        0.1661
     28 N          -7.0060   -2.6765    1.7956 N.1     1  LIG1       -0.1908
     29 C          -6.2301   -3.4129    1.3789 C.1     1  LIG1        0.1025
     30 S          -6.3946   -6.7488    1.7579 S.3     1  LIG1       -0.1393
     31 H          -7.0709   -7.1190    0.6623 H       1  LIG1        0.1072
     32 C          -3.5255   -7.4740    0.0825 C.ar    1  LIG1        0.0827
     33 C          -4.1217   -8.5639   -0.5167 C.ar    1  LIG1        0.0915
     34 C          -3.1920   -9.6476   -0.4788 C.ar    1  LIG1        0.0401
     35 C          -2.0613   -9.1686    0.1328 C.ar    1  LIG1        0.0167
     36 N          -2.2721   -7.8591    0.4566 N.ar    1  LIG1       -0.3574
     37 H          -1.6430   -7.2840    0.9961 H       1  LIG1        0.1654
     38 H          -1.1382   -9.6739    0.3580 H       1  LIG1        0.0818
     39 N          -6.5149   -8.5544   -1.4830 N.1     1  LIG1       -0.1908
     40 C          -5.4450   -8.5653   -1.0661 C.1     1  LIG1        0.1024
     41 S          -3.3922  -11.2634   -1.1646 S.3     1  LIG1       -0.1399
     42 H          -4.3034  -11.6851   -0.2805 H       1  LIG1        0.1072
@<TRIPOS>BOND
     1    18    19    3
     2    20    14    1
     3    20    21    1
     4    19    13    1
     5    39    40    3
     6    41    34    1
     7    41    42    1
     8    40    33    1
     9     6     5    1
    10    13    14   ar
    11    13    12   ar
    12    14    15   ar
    13    27    26    1
    14    33    34   ar
    15    33    32   ar
    16     5     1   ar
    17     5     4   ar
    18    34    35   ar
    19     7     1    1
    20    12     4    1
    21    12    16   ar
    22     1     2   ar
    23    15    16   ar
    24    15    22    1
    25    26    22   ar
    26    26    25   ar
    27     4     3   ar
    28    32    25    1
    29    32    36   ar
    30    16    17    1
    31    35    38    1
    32    35    36   ar
    33    22    23   ar
    34    11    10    1
    35    25    24   ar
    36     2     3   ar
    37     2     9    1
    38    36    37    1
    39     3    10    1
    40    31    30    1
    41    23    24   ar
    42    23    29    1
    43    24    30    1
    44     9     8    3
    45    29    28    3
