@<TRIPOS>MOLECULE
mol_data/opt/m06hf/geoms/mol2/13dg13dg-13dg-13dg.out
 42 45 0 0 0
SMALL
GASTEIGER

@<TRIPOS>ATOM
      1 C           1.1119   -0.7716    1.0135 C.ar    1  LIG1        0.0208
      2 C           0.6771    0.4270    1.5348 C.ar    1  LIG1        0.0828
      3 C          -0.7157    0.5570    1.2418 C.ar    1  LIG1        0.0489
      4 C          -1.0678   -0.5802    0.5475 C.ar    1  LIG1        0.0788
      5 N           0.0498   -1.3678    0.4214 N.ar    1  LIG1       -0.3574
      6 H           0.0862   -2.2375   -0.0913 H       1  LIG1        0.1654
      7 H           2.0905   -1.2187    1.0240 H       1  LIG1        0.0820
      8 N           2.1539    2.0990    2.8358 N.1     1  LIG1       -0.1908
      9 C           1.4924    1.3610    2.2576 C.1     1  LIG1        0.1018
     10 S          -1.7884    1.8383    1.8165 S.3     1  LIG1       -0.1393
     11 H          -1.8404    2.5298    0.6705 H       1  LIG1        0.1072
     12 C          -2.3543   -1.0049    0.0008 C.ar    1  LIG1        0.0831
     13 C          -3.2839   -0.3328   -0.7705 C.ar    1  LIG1        0.0922
     14 C          -4.3581   -1.2289   -1.0598 C.ar    1  LIG1        0.0496
     15 C          -4.0334   -2.4224   -0.4524 C.ar    1  LIG1        0.0793
     16 N          -2.8261   -2.2673    0.1818 N.ar    1  LIG1       -0.3499
     17 H          -2.4214   -2.9361    0.8246 H       1  LIG1        0.1661
     18 N          -2.9697    2.0839   -1.6194 N.1     1  LIG1       -0.1908
     19 C          -3.1245    1.0096   -1.2456 C.1     1  LIG1        0.1025
     20 S          -5.7070   -0.9041   -2.1545 S.3     1  LIG1       -0.1393
     21 H          -6.6677   -0.8776   -1.2237 H       1  LIG1        0.1072
     22 C          -4.6673   -3.7359   -0.4549 C.ar    1  LIG1        0.0831
     23 C          -5.9709   -4.1691   -0.2978 C.ar    1  LIG1        0.0922
     24 C          -5.9578   -5.5964   -0.3190 C.ar    1  LIG1        0.0496
     25 C          -4.6400   -5.9798   -0.4813 C.ar    1  LIG1        0.0793
     26 N          -3.8914   -4.8425   -0.5715 N.ar    1  LIG1       -0.3499
     27 H          -2.8997   -4.8186   -0.7752 H       1  LIG1        0.1661
     28 N          -7.9944   -2.6324    0.1480 N.1     1  LIG1       -0.1908
     29 C          -7.1009   -3.3228   -0.0609 C.1     1  LIG1        0.1025
     30 S          -7.3668   -6.6599   -0.2232 S.3     1  LIG1       -0.1393
     31 H          -7.4884   -6.6559    1.1093 H       1  LIG1        0.1072
     32 C          -3.9864   -7.2848   -0.5177 C.ar    1  LIG1        0.0827
     33 C          -2.6373   -7.5932   -0.4000 C.ar    1  LIG1        0.0915
     34 C          -2.5048   -9.0117   -0.4812 C.ar    1  LIG1        0.0401
     35 C          -3.7741   -9.5059   -0.6489 C.ar    1  LIG1        0.0167
     36 N          -4.6471   -8.4585   -0.6667 N.ar    1  LIG1       -0.3574
     37 H          -5.6552   -8.5148   -0.7500 H       1  LIG1        0.1654
     38 H          -4.1023  -10.5253   -0.7577 H       1  LIG1        0.0818
     39 N          -0.8821   -5.7304   -0.0794 N.1     1  LIG1       -0.1908
     40 C          -1.6122   -6.6097   -0.2152 C.1     1  LIG1        0.1024
     41 S          -1.0072   -9.9492   -0.4604 S.3     1  LIG1       -0.1399
     42 H          -0.8859  -10.0091    0.8719 H       1  LIG1        0.1072
@<TRIPOS>BOND
     1    20    21    1
     2    20    14    1
     3    18    19    3
     4    19    13    1
     5    14    13   ar
     6    14    15   ar
     7    27    26    1
     8    13    12   ar
     9    38    35    1
    10    37    36    1
    11    36    35   ar
    12    36    32   ar
    13    35    34   ar
    14    26    25   ar
    15    26    22   ar
    16    32    25    1
    17    32    33   ar
    18    25    24   ar
    19    34    41    1
    20    34    33   ar
    21    41    42    1
    22    22    15    1
    23    22    23   ar
    24    15    16   ar
    25    33    40    1
    26    24    23   ar
    27    24    30    1
    28    23    29    1
    29    30    31    1
    30    40    39    3
    31     6     5    1
    32    29    28    3
    33    12    16   ar
    34    12     4    1
    35    16    17    1
    36     5     4   ar
    37     5     1   ar
    38     4     3   ar
    39    11    10    1
    40     1     7    1
    41     1     2   ar
    42     3     2   ar
    43     3    10    1
    44     2     9    1
    45     9     8    3
