@<TRIPOS>MOLECULE
mol_data/opt/m06hf/geoms/mol2/13dg13dg-13dg13dg.out
 42 45 0 0 0
SMALL
GASTEIGER

@<TRIPOS>ATOM
      1 C           1.2202    0.2587    0.2237 C.ar    1  LIG1        0.0208
      2 C           0.6581    1.3546   -0.3920 C.ar    1  LIG1        0.0828
      3 C          -0.7525    1.1397   -0.4750 C.ar    1  LIG1        0.0489
      4 C          -0.9864   -0.0935    0.0926 C.ar    1  LIG1        0.0788
      5 N           0.2174   -0.6071    0.5080 N.ar    1  LIG1       -0.3574
      6 H           0.3174   -1.4544    1.0455 H       1  LIG1        0.1654
      7 H           2.2468    0.0584    0.4758 H       1  LIG1        0.0820
      8 N           1.9828    3.4041   -1.2357 N.1     1  LIG1       -0.1908
      9 C           1.3854    2.4984   -0.8631 C.1     1  LIG1        0.1018
     10 S          -1.9308    2.1998   -1.2567 S.3     1  LIG1       -0.1393
     11 H          -2.4304    2.7195   -0.1265 H       1  LIG1        0.1072
     12 C          -2.2410   -0.8199    0.2890 C.ar    1  LIG1        0.0831
     13 C          -3.4120   -0.4196    0.9009 C.ar    1  LIG1        0.0922
     14 C          -4.3482   -1.4943    0.8253 C.ar    1  LIG1        0.0496
     15 C          -3.7005   -2.5202    0.1690 C.ar    1  LIG1        0.0793
     16 N          -2.4318   -2.0973   -0.1424 N.ar    1  LIG1       -0.3499
     17 H          -1.8120   -2.5733   -0.7823 H       1  LIG1        0.1661
     18 N          -3.6996    1.8977    1.9992 N.1     1  LIG1       -0.1908
     19 C          -3.5926    0.8600    1.5205 C.1     1  LIG1        0.1025
     20 S          -5.9476   -1.5259    1.5772 S.3     1  LIG1       -0.1393
     21 H          -6.6530   -1.4725    0.4404 H       1  LIG1        0.1072
     22 C          -4.1703   -3.8565   -0.1936 C.ar    1  LIG1        0.0831
     23 C          -5.3204   -4.2501   -0.8489 C.ar    1  LIG1        0.0922
     24 C          -5.3144   -5.6738   -0.9477 C.ar    1  LIG1        0.0496
     25 C          -4.1443   -6.0952   -0.3541 C.ar    1  LIG1        0.0793
     26 N          -3.4660   -4.9881    0.0898 N.ar    1  LIG1       -0.3499
     27 H          -2.6739   -5.0211    0.7156 H       1  LIG1        0.1661
     28 N          -7.0809   -2.5958   -1.7573 N.1     1  LIG1       -0.1908
     29 C          -6.3054   -3.3459   -1.3642 C.1     1  LIG1        0.1025
     30 S          -6.5059   -6.6717   -1.7905 S.3     1  LIG1       -0.1393
     31 H          -7.1796   -7.0500   -0.6964 H       1  LIG1        0.1072
     32 C          -3.6265   -7.4482   -0.1496 C.ar    1  LIG1        0.0827
     33 C          -4.2328   -8.5418    0.4374 C.ar    1  LIG1        0.0915
     34 C          -3.3116   -9.6304    0.3945 C.ar    1  LIG1        0.0401
     35 C          -2.1775   -9.1552   -0.2134 C.ar    1  LIG1        0.0167
     36 N          -2.3827   -7.8380   -0.5309 N.ar    1  LIG1       -0.3574
     37 H          -1.7551   -7.2685   -1.0774 H       1  LIG1        0.1654
     38 H          -1.2530   -9.6535   -0.4468 H       1  LIG1        0.0818
     39 N          -6.6165   -8.5221    1.4256 N.1     1  LIG1       -0.1908
     40 C          -5.5525   -8.5350    0.9932 C.1     1  LIG1        0.1024
     41 S          -3.6639  -11.2331    1.0456 S.3     1  LIG1       -0.1399
     42 H          -2.5226  -11.7894    0.6267 H       1  LIG1        0.1072
@<TRIPOS>BOND
     1    30    24    1
     2    30    31    1
     3    28    29    3
     4    29    23    1
     5    10     3    1
     6    10    11    1
     7     8     9    3
     8    37    36    1
     9    24    23   ar
    10    24    25   ar
    11     9     2    1
    12    23    22   ar
    13    17    16    1
    14    36    35   ar
    15    36    32   ar
    16     3     2   ar
    17     3     4   ar
    18    38    35    1
    19     2     1   ar
    20    25    32    1
    21    25    26   ar
    22    35    34   ar
    23    22    26   ar
    24    22    15    1
    25    32    33   ar
    26    16    15   ar
    27    16    12   ar
    28    26    27    1
    29     4    12    1
    30     4     5   ar
    31    15    14   ar
    32     1     7    1
    33     1     5   ar
    34    12    13   ar
    35    34    33   ar
    36    34    41    1
    37    33    40    1
    38    21    20    1
    39     5     6    1
    40    42    41    1
    41    14    13   ar
    42    14    20    1
    43    13    19    1
    44    40    39    3
    45    19    18    3
