@<TRIPOS>MOLECULE
mol_data/opt/m06hf/geoms/mol2/13dg13dg-13dg13dg-.out
 42 45 0 0 0
SMALL
GASTEIGER

@<TRIPOS>ATOM
      1 C           0.2312    0.1548   -2.5832 C.ar    1  LIG1        0.0208
      2 C           0.7475    0.6498   -1.4062 C.ar    1  LIG1        0.0828
      3 C          -0.1641    0.3259   -0.3550 C.ar    1  LIG1        0.0489
      4 C          -1.2007   -0.3630   -0.9447 C.ar    1  LIG1        0.0788
      5 N          -0.9427   -0.4539   -2.2892 N.ar    1  LIG1       -0.3574
      6 H          -1.5821   -0.8379   -2.9687 H       1  LIG1        0.1654
      7 H           0.6200    0.2059   -3.5851 H       1  LIG1        0.0820
      8 N           2.9808    1.9290   -1.1951 N.1     1  LIG1       -0.1908
      9 C           1.9876    1.3610   -1.2809 C.1     1  LIG1        0.1018
     10 S           0.0649    0.6350    1.3695 S.3     1  LIG1       -0.1393
     11 H          -0.7597    1.6886    1.4447 H       1  LIG1        0.1072
     12 C          -2.4130   -0.9234   -0.3461 C.ar    1  LIG1        0.0831
     13 C          -3.3887   -0.3066    0.4139 C.ar    1  LIG1        0.0922
     14 C          -4.3686   -1.2823    0.7608 C.ar    1  LIG1        0.0496
     15 C          -3.9499   -2.4650    0.1867 C.ar    1  LIG1        0.0793
     16 N          -2.7739   -2.2278   -0.4767 N.ar    1  LIG1       -0.3499
     17 H          -2.2214   -2.9279   -0.9540 H       1  LIG1        0.1661
     18 N          -3.3201    2.1942    1.0489 N.1     1  LIG1       -0.1908
     19 C          -3.3709    1.0817    0.7697 C.1     1  LIG1        0.1025
     20 S          -5.7401   -1.0449    1.8500 S.3     1  LIG1       -0.1393
     21 H          -6.6750   -0.9157    0.8991 H       1  LIG1        0.1072
     22 C          -4.5356   -3.8022    0.2386 C.ar    1  LIG1        0.0831
     23 C          -5.8326   -4.2359    0.0383 C.ar    1  LIG1        0.0922
     24 C          -5.8470   -5.6522    0.1962 C.ar    1  LIG1        0.0496
     25 C          -4.5485   -6.0316    0.4795 C.ar    1  LIG1        0.0793
     26 N          -3.7832   -4.9010    0.5046 N.ar    1  LIG1       -0.3499
     27 H          -2.8017   -4.8768    0.7567 H       1  LIG1        0.1661
     28 N          -7.7904   -2.7094   -0.6632 N.1     1  LIG1       -0.1908
     29 C          -6.9291   -3.3964   -0.3403 C.1     1  LIG1        0.1025
     30 S          -7.2714   -6.6968    0.1186 S.3     1  LIG1       -0.1393
     31 H          -7.2516   -6.9129   -1.2027 H       1  LIG1        0.1072
     32 C          -3.9467   -7.3421    0.7068 C.ar    1  LIG1        0.0827
     33 C          -2.6086   -7.7132    0.6561 C.ar    1  LIG1        0.0915
     34 C          -2.5282   -9.1042    0.9564 C.ar    1  LIG1        0.0401
     35 C          -3.8168   -9.5248    1.1705 C.ar    1  LIG1        0.0167
     36 N          -4.6518   -8.4518    1.0141 N.ar    1  LIG1       -0.3574
     37 H          -5.6614   -8.4612    1.0874 H       1  LIG1        0.1654
     38 H          -4.1964  -10.4987    1.4252 H       1  LIG1        0.0818
     39 N          -0.7754   -6.0007    0.0621 N.1     1  LIG1       -0.1908
     40 C          -1.5509   -6.8081    0.3269 C.1     1  LIG1        0.1024
     41 S          -1.0114  -10.0055    1.0260 S.3     1  LIG1       -0.1399
     42 H          -1.5888  -11.2031    1.1742 H       1  LIG1        0.1072
@<TRIPOS>BOND
     1     7     1    1
     2     6     5    1
     3     1     5   ar
     4     1     2   ar
     5     5     4   ar
     6     2     9    1
     7     2     3   ar
     8     9     8    3
     9    31    30    1
    10    17    16    1
    11     4     3   ar
    12     4    12    1
    13    28    29    3
    14    16    12   ar
    15    16    15   ar
    16     3    10    1
    17    12    13   ar
    18    29    23    1
    19    23    24   ar
    20    23    22   ar
    21    39    40    3
    22    30    24    1
    23    15    22    1
    24    15    14   ar
    25    24    25   ar
    26    22    26   ar
    27    40    33    1
    28    13    14   ar
    29    13    19    1
    30    25    26   ar
    31    25    32    1
    32    26    27    1
    33    33    32   ar
    34    33    34   ar
    35    32    36   ar
    36    14    20    1
    37    19    18    3
    38    21    20    1
    39    34    41    1
    40    34    35   ar
    41    36    37    1
    42    36    35   ar
    43    41    42    1
    44    35    38    1
    45    10    11    1
