@<TRIPOS>MOLECULE
mol_data/opt/m06hf/geoms/mol2/13dg13dg13dg-.out
 32 34 0 0 0
SMALL
GASTEIGER

@<TRIPOS>ATOM
      1 C           0.2305   -0.0562    2.0004 C.ar    1  LIG1        0.0208
      2 C           0.5215    0.8256    0.9822 C.ar    1  LIG1        0.0828
      3 C          -0.5069    0.7164   -0.0045 C.ar    1  LIG1        0.0489
      4 C          -1.3938   -0.2245    0.4688 C.ar    1  LIG1        0.0788
      5 N          -0.9275   -0.6760    1.6833 N.ar    1  LIG1       -0.3574
      6 H          -1.4117   -1.3376    2.2738 H       1  LIG1        0.1654
      7 H           0.7669   -0.2630    2.9100 H       1  LIG1        0.0820
      8 N           2.6006    2.3487    0.8323 N.1     1  LIG1       -0.1908
      9 C           1.6750    1.6740    0.9092 C.1     1  LIG1        0.1018
     10 S          -0.6233    1.6028   -1.5253 S.3     1  LIG1       -0.1393
     11 H           0.6629    1.4208   -1.8514 H       1  LIG1        0.1072
     12 C          -2.6134   -0.7794   -0.1082 C.ar    1  LIG1        0.0831
     13 C          -3.6760   -0.1904   -0.7678 C.ar    1  LIG1        0.0922
     14 C          -4.6183   -1.2157   -1.0747 C.ar    1  LIG1        0.0496
     15 C          -4.0982   -2.3965   -0.5811 C.ar    1  LIG1        0.0793
     16 N          -2.8893   -2.1071   -0.0137 N.ar    1  LIG1       -0.3499
     17 H          -2.2458   -2.7998    0.3505 H       1  LIG1        0.1661
     18 N          -3.9877    2.3317   -1.2133 N.1     1  LIG1       -0.1908
     19 C          -3.8394    1.2100   -1.0195 C.1     1  LIG1        0.1025
     20 S          -6.1269   -1.0069   -1.9731 S.3     1  LIG1       -0.1393
     21 H          -6.8738   -0.5735   -0.9496 H       1  LIG1        0.1072
     22 C          -4.6209   -3.7606   -0.5651 C.ar    1  LIG1        0.0827
     23 C          -4.1809   -4.8672    0.1468 C.ar    1  LIG1        0.0915
     24 C          -5.0322   -5.9652   -0.1804 C.ar    1  LIG1        0.0401
     25 C          -5.9516   -5.4833   -1.0774 C.ar    1  LIG1        0.0167
     26 N          -5.6895   -4.1631   -1.2969 N.ar    1  LIG1       -0.3574
     27 H          -6.2104   -3.5342   -1.8966 H       1  LIG1        0.1654
     28 H          -6.7604   -5.9952   -1.5689 H       1  LIG1        0.0818
     29 N          -2.1873   -4.7034    1.7735 N.1     1  LIG1       -0.1908
     30 C          -3.0806   -4.8383    1.0612 C.1     1  LIG1        0.1024
     31 S          -4.8783   -7.6422    0.3506 S.3     1  LIG1       -0.1399
     32 H          -5.3478   -7.4636    1.5915 H       1  LIG1        0.1072
@<TRIPOS>BOND
     1    20    14    1
     2    20    21    1
     3    27    26    1
     4    11    10    1
     5    28    25    1
     6    10     3    1
     7    26    25   ar
     8    26    22   ar
     9    18    19    3
    10    25    24   ar
    11    14    13   ar
    12    14    15   ar
    13    19    13    1
    14    13    12   ar
    15    15    22    1
    16    15    16   ar
    17    22    23   ar
    18    24    23   ar
    19    24    31    1
    20    12    16   ar
    21    12     4    1
    22    16    17    1
    23     3     4   ar
    24     3     2   ar
    25    23    30    1
    26    31    32    1
    27     4     5   ar
    28     8     9    3
    29     9     2    1
    30     2     1   ar
    31    30    29    3
    32     5     1   ar
    33     5     6    1
    34     1     7    1
