@<TRIPOS>MOLECULE
mol_data/opt/m06hf/geoms/mol2/13dg13dg.out
 22 23 0 0 0
SMALL
GASTEIGER

@<TRIPOS>ATOM
      1 C           1.1179   -0.2388    0.6114 C.ar    1  LIG1        0.0208
      2 C           0.7966    0.9264   -0.0486 C.ar    1  LIG1        0.0828
      3 C          -0.5810    0.8540   -0.4245 C.ar    1  LIG1        0.0489
      4 C          -1.0384   -0.3657    0.0228 C.ar    1  LIG1        0.0788
      5 N           0.0025   -1.0070    0.6465 N.ar    1  LIG1       -0.3574
      6 H          -0.0858   -1.8824    1.1403 H       1  LIG1        0.1654
      7 H           2.0491   -0.5509    1.0512 H       1  LIG1        0.0820
      8 N           2.4482    2.8551   -0.5215 N.1     1  LIG1       -0.1908
      9 C           1.7073    2.0038   -0.3130 C.1     1  LIG1        0.1018
     10 S          -1.4761    2.0410   -1.3798 S.3     1  LIG1       -0.1393
     11 H          -2.1492    2.5850   -0.3571 H       1  LIG1        0.1072
     12 C          -2.3659   -0.9727   -0.0758 C.ar    1  LIG1        0.0827
     13 C          -3.5956   -0.4816    0.3192 C.ar    1  LIG1        0.0915
     14 C          -4.5825   -1.4639    0.0070 C.ar    1  LIG1        0.0401
     15 C          -3.9145   -2.5181   -0.5607 C.ar    1  LIG1        0.0167
     16 N          -2.5805   -2.2065   -0.6002 N.ar    1  LIG1       -0.3574
     17 H          -1.8674   -2.7600   -1.0502 H       1  LIG1        0.1654
     18 H          -4.2859   -3.4544   -0.9397 H       1  LIG1        0.0818
     19 N          -3.9342    1.8126    1.4496 N.1     1  LIG1       -0.1908
     20 C          -3.7916    0.7883    0.9501 C.1     1  LIG1        0.1024
     21 S          -6.3039   -1.2671    0.3490 S.3     1  LIG1       -0.1399
     22 H          -6.6700   -2.4260   -0.2067 H       1  LIG1        0.1072
@<TRIPOS>BOND
     1    10     3    1
     2    10    11    1
     3    17    16    1
     4    18    15    1
     5    16    15   ar
     6    16    12   ar
     7    15    14   ar
     8     8     9    3
     9     3     2   ar
    10     3     4   ar
    11     9     2    1
    12    22    21    1
    13    12     4    1
    14    12    13   ar
    15     2     1   ar
    16    14    13   ar
    17    14    21    1
    18     4     5   ar
    19    13    20    1
    20     1     5   ar
    21     1     7    1
    22     5     6    1
    23    20    19    3
