@<TRIPOS>MOLECULE
mol_data/opt/m06hf/geoms/mol2/13dg13dg13dg.out
 32 34 0 0 0
SMALL
GASTEIGER

@<TRIPOS>ATOM
      1 C           1.2066   -0.0164    0.3523 C.ar    1  LIG1        0.0208
      2 C           0.7562    0.9781   -0.4868 C.ar    1  LIG1        0.0828
      3 C          -0.6528    0.8089   -0.6555 C.ar    1  LIG1        0.0489
      4 C          -0.9988   -0.2956    0.0915 C.ar    1  LIG1        0.0788
      5 N           0.1380   -0.7783    0.6908 N.ar    1  LIG1       -0.3574
      6 H           0.1495   -1.5231    1.3707 H       1  LIG1        0.1654
      7 H           2.1979   -0.2143    0.7216 H       1  LIG1        0.0820
      8 N           2.2566    2.7952   -1.5422 N.1     1  LIG1       -0.1908
      9 C           1.5809    1.9924   -1.0786 C.1     1  LIG1        0.1018
     10 S          -1.7052    1.7554   -1.7136 S.3     1  LIG1       -0.1393
     11 H          -2.2515    2.5056   -0.7492 H       1  LIG1        0.1072
     12 C          -2.3041   -0.9238    0.2953 C.ar    1  LIG1        0.0831
     13 C          -3.4959   -0.3729    0.7214 C.ar    1  LIG1        0.0922
     14 C          -4.4829   -1.4033    0.7431 C.ar    1  LIG1        0.0496
     15 C          -3.8445   -2.5545    0.3325 C.ar    1  LIG1        0.0793
     16 N          -2.5328   -2.2475    0.0716 N.ar    1  LIG1       -0.3499
     17 H          -1.8910   -2.8573   -0.4151 H       1  LIG1        0.1661
     18 N          -3.7275    2.1106    1.3837 N.1     1  LIG1       -0.1908
     19 C          -3.6484    1.0015    1.0977 C.1     1  LIG1        0.1025
     20 S          -6.1408   -1.2466    1.3341 S.3     1  LIG1       -0.1393
     21 H          -6.7293   -1.2295    0.1311 H       1  LIG1        0.1072
     22 C          -4.3636   -3.9090    0.1456 C.ar    1  LIG1        0.0827
     23 C          -5.4564   -4.3444   -0.5800 C.ar    1  LIG1        0.0915
     24 C          -5.5317   -5.7632   -0.4518 C.ar    1  LIG1        0.0401
     25 C          -4.4781   -6.1382    0.3417 C.ar    1  LIG1        0.0167
     26 N          -3.7809   -5.0096    0.6870 N.ar    1  LIG1       -0.3574
     27 H          -3.0170   -4.9788    1.3448 H       1  LIG1        0.1654
     28 H          -4.1784   -7.1125    0.6863 H       1  LIG1        0.0818
     29 N          -7.0082   -2.7845   -1.9268 N.1     1  LIG1       -0.1908
     30 C          -6.3190   -3.4871   -1.3346 C.1     1  LIG1        0.1024
     31 S          -6.7830   -6.7523   -1.2113 S.3     1  LIG1       -0.1399
     32 H          -6.2787   -7.9172   -0.7909 H       1  LIG1        0.1072
@<TRIPOS>BOND
     1    29    30    3
     2    10    11    1
     3    10     3    1
     4     8     9    3
     5    30    23    1
     6    31    32    1
     7    31    24    1
     8     9     2    1
     9     3     2   ar
    10     3     4   ar
    11    23    24   ar
    12    23    22   ar
    13     2     1   ar
    14    24    25   ar
    15    17    16    1
    16    16    12   ar
    17    16    15   ar
    18     4    12    1
    19     4     5   ar
    20    21    20    1
    21    22    15    1
    22    22    26   ar
    23    12    13   ar
    24    15    14   ar
    25    25    28    1
    26    25    26   ar
    27     1     5   ar
    28     1     7    1
    29    26    27    1
    30     5     6    1
    31    13    14   ar
    32    13    19    1
    33    14    20    1
    34    19    18    3
