@<TRIPOS>MOLECULE
mol_data/opt/m06hf/geoms/mol2/13dg13dg-13dg.out
 32 34 0 0 0
SMALL
GASTEIGER

@<TRIPOS>ATOM
      1 C           0.2676    0.0487   -2.0132 C.ar    1  LIG1        0.0208
      2 C           0.6155    0.8270   -0.9315 C.ar    1  LIG1        0.0828
      3 C          -0.3745    0.6414    0.0826 C.ar    1  LIG1        0.0489
      4 C          -1.2906   -0.2482   -0.4356 C.ar    1  LIG1        0.0788
      5 N          -0.8830   -0.5932   -1.7000 N.ar    1  LIG1       -0.3574
      6 H          -1.3958   -1.2020   -2.3228 H       1  LIG1        0.1654
      7 H           0.7580   -0.0773   -2.9625 H       1  LIG1        0.0820
      8 N           2.7098    2.3329   -0.8017 N.1     1  LIG1       -0.1908
      9 C           1.7786    1.6641   -0.8525 C.1     1  LIG1        0.1018
     10 S          -0.3189    1.2816    1.7284 S.3     1  LIG1       -0.1393
     11 H          -1.1244    2.3285    1.5197 H       1  LIG1        0.1072
     12 C          -2.5030   -0.8236    0.1397 C.ar    1  LIG1        0.0831
     13 C          -3.5436   -0.2524    0.8479 C.ar    1  LIG1        0.0922
     14 C          -4.4977   -1.2760    1.1199 C.ar    1  LIG1        0.0496
     15 C          -4.0065   -2.4375    0.5556 C.ar    1  LIG1        0.0793
     16 N          -2.8027   -2.1391   -0.0179 N.ar    1  LIG1       -0.3499
     17 H          -2.1815   -2.8206   -0.4381 H       1  LIG1        0.1661
     18 N          -3.7862    2.2579    1.3891 N.1     1  LIG1       -0.1908
     19 C          -3.6731    1.1387    1.1603 C.1     1  LIG1        0.1025
     20 S          -5.9874   -1.0932    2.0547 S.3     1  LIG1       -0.1393
     21 H          -6.7435   -0.5887    1.0717 H       1  LIG1        0.1072
     22 C          -4.5589   -3.7867    0.4664 C.ar    1  LIG1        0.0827
     23 C          -4.1828   -4.8377   -0.3623 C.ar    1  LIG1        0.0915
     24 C          -5.0334   -5.9456   -0.0783 C.ar    1  LIG1        0.0401
     25 C          -5.8940   -5.5262    0.9043 C.ar    1  LIG1        0.0167
     26 N          -5.5918   -4.2278    1.2156 N.ar    1  LIG1       -0.3574
     27 H          -6.0743   -3.6422    1.8862 H       1  LIG1        0.1654
     28 H          -6.6902   -6.0524    1.4007 H       1  LIG1        0.0818
     29 N          -2.2745   -4.5746   -2.0758 N.1     1  LIG1       -0.1908
     30 C          -3.1353   -4.7462   -1.3317 C.1     1  LIG1        0.1024
     31 S          -4.9162   -7.5064   -0.8949 S.3     1  LIG1       -0.1399
     32 H          -5.9798   -8.0384   -0.2886 H       1  LIG1        0.1072
@<TRIPOS>BOND
     1     7     1    1
     2     6     5    1
     3    29    30    3
     4     1     5   ar
     5     1     2   ar
     6     5     4   ar
     7    30    23    1
     8     2     9    1
     9     2     3   ar
    10    31    32    1
    11    31    24    1
    12     9     8    3
    13    17    16    1
    14     4     3   ar
    15     4    12    1
    16    23    24   ar
    17    23    22   ar
    18    24    25   ar
    19    16    12   ar
    20    16    15   ar
    21     3    10    1
    22    12    13   ar
    23    22    15    1
    24    22    26   ar
    25    15    14   ar
    26    13    14   ar
    27    13    19    1
    28    25    26   ar
    29    25    28    1
    30    21    20    1
    31    14    20    1
    32    19    18    3
    33    26    27    1
    34    11    10    1
