@<TRIPOS>MOLECULE
mol_data/opt/m06hf/geoms/mol2/13dg13dg-.out
 22 23 0 0 0
SMALL
GASTEIGER

@<TRIPOS>ATOM
      1 C           1.1134   -0.2316   -0.6284 C.ar    1  LIG1        0.0208
      2 C           0.8004    0.9178    0.0625 C.ar    1  LIG1        0.0828
      3 C          -0.5744    0.8396    0.4473 C.ar    1  LIG1        0.0489
      4 C          -1.0386   -0.3675   -0.0262 C.ar    1  LIG1        0.0788
      5 N          -0.0043   -0.9960   -0.6734 N.ar    1  LIG1       -0.3574
      6 H          -0.0988   -1.8589   -1.1878 H       1  LIG1        0.1654
      7 H           2.0403   -0.5352   -1.0830 H       1  LIG1        0.0820
      8 N           2.4606    2.8303    0.5697 N.1     1  LIG1       -0.1908
      9 C           1.7160    1.9861    0.3462 C.1     1  LIG1        0.1018
     10 S          -1.4591    2.0048    1.4386 S.3     1  LIG1       -0.1393
     11 H          -2.1374    2.5768    0.4346 H       1  LIG1        0.1072
     12 C          -2.3670   -0.9734    0.0678 C.ar    1  LIG1        0.0827
     13 C          -3.5983   -0.4693   -0.3052 C.ar    1  LIG1        0.0915
     14 C          -4.5856   -1.4563   -0.0094 C.ar    1  LIG1        0.0401
     15 C          -3.9162   -2.5260    0.5268 C.ar    1  LIG1        0.0167
     16 N          -2.5811   -2.2191    0.5635 N.ar    1  LIG1       -0.3574
     17 H          -1.8660   -2.7854    0.9941 H       1  LIG1        0.1654
     18 H          -4.2873   -3.4703    0.8856 H       1  LIG1        0.0818
     19 N          -3.9390    1.8529   -1.3763 N.1     1  LIG1       -0.1908
     20 C          -3.7956    0.8163   -0.9032 C.1     1  LIG1        0.1024
     21 S          -6.3091   -1.2465   -0.3327 S.3     1  LIG1       -0.1399
     22 H          -6.6742   -2.4173    0.1980 H       1  LIG1        0.1072
@<TRIPOS>BOND
     1    19    20    3
     2     6     5    1
     3     7     1    1
     4    20    13    1
     5     5     1   ar
     6     5     4   ar
     7     1     2   ar
     8    21    14    1
     9    21    22    1
    10    13    14   ar
    11    13    12   ar
    12     4    12    1
    13     4     3   ar
    14    14    15   ar
    15     2     9    1
    16     2     3   ar
    17    12    16   ar
    18     9     8    3
    19    11    10    1
    20     3    10    1
    21    15    16   ar
    22    15    18    1
    23    16    17    1
