@<TRIPOS>MOLECULE
mol_data/opt/m06hf/geoms/mol2/13dh13dh.out
 24 25 0 0 0
SMALL
GASTEIGER

@<TRIPOS>ATOM
      1 C           1.1610   -0.3276   -0.5307 C.ar    1  LIG1        0.0215
      2 C           0.8203    0.9301   -0.0762 C.ar    1  LIG1        0.0903
      3 C          -0.5889    0.9484    0.1812 C.ar    1  LIG1        0.0693
      4 C          -1.0471   -0.3174   -0.1276 C.ar    1  LIG1        0.0864
      5 N           0.0359   -1.0662   -0.5589 N.ar    1  LIG1       -0.3568
      6 H          -0.0409   -1.9886   -0.9582 H       1  LIG1        0.1655
      7 H           2.1170   -0.7117   -0.8415 H       1  LIG1        0.0820
      8 N           2.3729    2.9590    0.2800 N.1     1  LIG1       -0.1908
      9 C           1.7019    2.0412    0.1151 C.1     1  LIG1        0.1025
     10 N          -1.2986    2.0127    0.7180 N.pl3   1  LIG1       -0.3553
     11 H          -0.7450    2.8553    0.8040 H       1  LIG1        0.1424
     12 H          -2.1934    2.1962    0.2806 H       1  LIG1        0.1424
     13 C          -2.3752   -0.9025   -0.0073 C.ar    1  LIG1        0.0841
     14 C          -3.6172   -0.3836   -0.3386 C.ar    1  LIG1        0.0990
     15 C          -4.6137   -1.3573   -0.0105 C.ar    1  LIG1        0.0604
     16 C          -3.9402   -2.4393    0.4960 C.ar    1  LIG1        0.0243
     17 N          -2.5915   -2.1435    0.4875 N.ar    1  LIG1       -0.3568
     18 H          -1.8771   -2.7030    0.9256 H       1  LIG1        0.1655
     19 H          -4.3101   -3.3767    0.8702 H       1  LIG1        0.0826
     20 N          -4.0073    1.9373   -1.3883 N.1     1  LIG1       -0.1907
     21 C          -3.8387    0.8948   -0.9317 C.1     1  LIG1        0.1032
     22 N          -5.9902   -1.1699   -0.1451 N.pl3   1  LIG1       -0.3558
     23 H          -6.2352   -0.4812   -0.8451 H       1  LIG1        0.1424
     24 H          -6.5132   -2.0255   -0.2712 H       1  LIG1        0.1424
@<TRIPOS>BOND
     1    20    21    3
     2     6     5    1
     3    21    14    1
     4    23    22    1
     5     7     1    1
     6     5     1   ar
     7     5     4   ar
     8     1     2   ar
     9    14    15   ar
    10    14    13   ar
    11    24    22    1
    12    22    15    1
    13     4    13    1
    14     4     3   ar
    15     2     9    1
    16     2     3   ar
    17    15    16   ar
    18    13    17   ar
    19     9     8    3
    20     3    10    1
    21    12    10    1
    22    17    16   ar
    23    17    18    1
    24    16    19    1
    25    10    11    1
