@<TRIPOS>MOLECULE
mol_data/opt/m06hf/geoms/mol2/13dh13dh-13dh-13dh-.out
 46 49 0 0 0
SMALL
GASTEIGER

@<TRIPOS>ATOM
      1 C           1.2839   -0.2677   -0.3101 C.ar    1  LIG1        0.0215
      2 C           0.8009    0.9241   -0.8109 C.ar    1  LIG1        0.0903
      3 C          -0.6236    0.8624   -0.7637 C.ar    1  LIG1        0.0693
      4 C          -0.9465   -0.3652   -0.2330 C.ar    1  LIG1        0.0864
      5 N           0.2210   -1.0308    0.0312 N.ar    1  LIG1       -0.3568
      6 H           0.2715   -1.9638    0.4222 H       1  LIG1        0.1655
      7 H           2.2974   -0.6042   -0.1797 H       1  LIG1        0.0820
      8 N           2.1316    2.9594   -1.6753 N.1     1  LIG1       -0.1908
      9 C           1.5614    2.0404   -1.2890 C.1     1  LIG1        0.1025
     10 N          -1.5825    1.8376   -1.1756 N.pl3   1  LIG1       -0.3553
     11 H          -1.4111    2.7233   -0.7046 H       1  LIG1        0.1424
     12 H          -1.5027    2.0095   -2.1761 H       1  LIG1        0.1424
     13 C          -2.2689   -0.9102    0.0308 C.ar    1  LIG1        0.0846
     14 C          -2.6714   -2.1478    0.5197 C.ar    1  LIG1        0.0997
     15 C          -4.0994   -2.1685    0.5569 C.ar    1  LIG1        0.0699
     16 C          -4.5067   -0.9311    0.0845 C.ar    1  LIG1        0.0869
     17 N          -3.3773   -0.1977   -0.2263 N.ar    1  LIG1       -0.3493
     18 H          -3.3127    0.7129   -0.6789 H       1  LIG1        0.1661
     19 N          -0.9994   -3.9844    1.2048 N.1     1  LIG1       -0.1907
     20 C          -1.7738   -3.1866    0.9079 C.1     1  LIG1        0.1032
     21 N          -4.8790   -3.1948    1.0650 N.pl3   1  LIG1       -0.3553
     22 H          -5.7173   -3.4078    0.5378 H       1  LIG1        0.1424
     23 H          -4.3535   -4.0297    1.2874 H       1  LIG1        0.1424
     24 C          -5.8361   -0.3500   -0.0202 C.ar    1  LIG1        0.0846
     25 C          -7.0345   -0.9042   -0.4493 C.ar    1  LIG1        0.0997
     26 C          -8.0564    0.0941   -0.3682 C.ar    1  LIG1        0.0699
     27 C          -7.4357    1.2336    0.1043 C.ar    1  LIG1        0.0869
     28 N          -6.0963    0.9359    0.3009 N.ar    1  LIG1       -0.3493
     29 H          -5.4065    1.5944    0.6288 H       1  LIG1        0.1661
     30 N          -7.3267   -3.3285   -1.2714 N.1     1  LIG1       -0.1907
     31 C          -7.1986   -2.2408   -0.9191 C.1     1  LIG1        0.1032
     32 N          -9.4004   -0.1002   -0.6441 N.pl3   1  LIG1       -0.3553
     33 H          -9.8482    0.6482   -1.1589 H       1  LIG1        0.1424
     34 H          -9.6010   -1.0054   -1.0482 H       1  LIG1        0.1424
     35 C          -7.9831    2.5386    0.4467 C.ar    1  LIG1        0.0842
     36 C          -8.8923    3.3354   -0.2318 C.ar    1  LIG1        0.0990
     37 C          -9.1132    4.5217    0.5375 C.ar    1  LIG1        0.0604
     38 C          -8.3186    4.4100    1.6498 C.ar    1  LIG1        0.0243
     39 N          -7.6445    3.2080    1.5735 N.ar    1  LIG1       -0.3568
     40 H          -7.1013    2.8064    2.3218 H       1  LIG1        0.1655
     41 H          -8.1963    5.0733    2.4869 H       1  LIG1        0.0826
     42 N          -9.9608    2.7325   -2.4981 N.1     1  LIG1       -0.1907
     43 C          -9.4769    3.0152   -1.4934 C.1     1  LIG1        0.1032
     44 N         -10.0098    5.5394    0.2081 N.pl3   1  LIG1       -0.3558
     45 H          -9.7388    6.4522    0.5468 H       1  LIG1        0.1424
     46 H         -10.2444    5.5676   -0.7760 H       1  LIG1        0.1424
@<TRIPOS>BOND
     1    42    43    3
     2    12    10    1
     3     8     9    3
     4    43    36    1
     5     9     2    1
     6    30    31    3
     7    10     3    1
     8    10    11    1
     9    33    32    1
    10    34    32    1
    11    31    25    1
    12     2     3   ar
    13     2     1   ar
    14    46    44    1
    15     3     4   ar
    16    18    17    1
    17    32    26    1
    18    25    26   ar
    19    25    24   ar
    20    26    27   ar
    21     1     7    1
    22     1     5   ar
    23     4    13    1
    24     4     5   ar
    25    36    35   ar
    26    36    37   ar
    27    17    13   ar
    28    17    16   ar
    29    24    16    1
    30    24    28   ar
    31    13    14   ar
    32     5     6    1
    33    16    15   ar
    34    27    28   ar
    35    27    35    1
    36    44    37    1
    37    44    45    1
    38    28    29    1
    39    35    39   ar
    40    14    15   ar
    41    14    20    1
    42    37    38   ar
    43    22    21    1
    44    15    21    1
    45    20    19    3
    46    21    23    1
    47    39    38   ar
    48    39    40    1
    49    38    41    1
