@<TRIPOS>MOLECULE
mol_data/opt/m06hf/geoms/mol2/13dh13dh-13dh.out
 35 37 0 0 0
SMALL
GASTEIGER

@<TRIPOS>ATOM
      1 C           1.2437   -0.3186   -0.0849 C.ar    1  LIG1        0.0215
      2 C           0.7887    0.9843   -0.0757 C.ar    1  LIG1        0.0903
      3 C          -0.6382    0.9407   -0.0673 C.ar    1  LIG1        0.0693
      4 C          -0.9876   -0.3902   -0.0719 C.ar    1  LIG1        0.0864
      5 N           0.1627   -1.1333   -0.0824 N.ar    1  LIG1       -0.3568
      6 H           0.1932   -2.1451   -0.0880 H       1  LIG1        0.1655
      7 H           2.2490   -0.7011   -0.0930 H       1  LIG1        0.0820
      8 N           2.2030    3.1438   -0.0762 N.1     1  LIG1       -0.1908
      9 C           1.5877    2.1743   -0.0757 C.1     1  LIG1        0.1025
     10 N          -1.5922    1.9969   -0.0558 N.pl3   1  LIG1       -0.3553
     11 H          -1.5012    2.5857    0.7678 H       1  LIG1        0.1424
     12 H          -1.5185    2.5893   -0.8786 H       1  LIG1        0.1424
     13 C          -2.3294   -0.9533   -0.0656 C.ar    1  LIG1        0.0846
     14 C          -2.7836   -2.2650   -0.0645 C.ar    1  LIG1        0.0997
     15 C          -4.2100   -2.2215   -0.0556 C.ar    1  LIG1        0.0699
     16 C          -4.5594   -0.8885   -0.0524 C.ar    1  LIG1        0.0869
     17 N          -3.4129   -0.1463   -0.0583 N.ar    1  LIG1       -0.3493
     18 H          -3.3008    0.8743   -0.0546 H       1  LIG1        0.1661
     19 N          -1.2191   -4.3145   -0.0779 N.1     1  LIG1       -0.1907
     20 C          -1.9409   -3.4185   -0.0714 C.1     1  LIG1        0.1032
     21 N          -5.1462   -3.2984   -0.0491 N.pl3   1  LIG1       -0.3553
     22 H          -5.0251   -3.8863   -0.8702 H       1  LIG1        0.1424
     23 H          -5.0177   -3.8820    0.7740 H       1  LIG1        0.1424
     24 C          -5.8902   -0.3010   -0.0450 C.ar    1  LIG1        0.0842
     25 C          -6.3038    1.0265   -0.0571 C.ar    1  LIG1        0.0990
     26 C          -7.7323    1.0346   -0.0495 C.ar    1  LIG1        0.0604
     27 C          -8.1256   -0.2832   -0.0342 C.ar    1  LIG1        0.0243
     28 N          -6.9963   -1.0660   -0.0326 N.ar    1  LIG1       -0.3568
     29 H          -6.9241   -2.0802   -0.0275 H       1  LIG1        0.1655
     30 H          -9.1110   -0.7118   -0.0130 H       1  LIG1        0.0826
     31 N          -4.7131    3.0548   -0.1209 N.1     1  LIG1       -0.1907
     32 C          -5.4360    2.1598   -0.0870 C.1     1  LIG1        0.1032
     33 N          -8.5322    2.1809    0.0025 N.pl3   1  LIG1       -0.3558
     34 H          -8.0662    3.0057   -0.3538 H       1  LIG1        0.1424
     35 H          -9.4364    2.0619   -0.4344 H       1  LIG1        0.1424
@<TRIPOS>BOND
     1    12    10    1
     2    22    21    1
     3    35    33    1
     4    34    33    1
     5    31    32    3
     6     7     1    1
     7     6     5    1
     8    32    25    1
     9     1     5   ar
    10     1     2   ar
    11     5     4   ar
    12    19    20    3
    13     8     9    3
    14     2     9    1
    15     2     3   ar
    16     4     3   ar
    17     4    13    1
    18    20    14    1
    19     3    10    1
    20    13    14   ar
    21    13    17   ar
    22    14    15   ar
    23    17    18    1
    24    17    16   ar
    25    25    26   ar
    26    25    24   ar
    27    10    11    1
    28    15    16   ar
    29    15    21    1
    30    16    24    1
    31    26    27   ar
    32    26    33    1
    33    21    23    1
    34    24    28   ar
    35    27    28   ar
    36    27    30    1
    37    28    29    1
