@<TRIPOS>MOLECULE
mol_data/opt/m06hf/geoms/mol2/13dh13dh-13dh13dh-.out
 46 49 0 0 0
SMALL
GASTEIGER

@<TRIPOS>ATOM
      1 C           1.3074   -0.3251   -0.0638 C.ar    1  LIG1        0.0215
      2 C           0.8643    0.9821   -0.0930 C.ar    1  LIG1        0.0903
      3 C          -0.5625    0.9509   -0.0974 C.ar    1  LIG1        0.0693
      4 C          -0.9237   -0.3769   -0.0711 C.ar    1  LIG1        0.0864
      5 N           0.2198   -1.1296   -0.0507 N.ar    1  LIG1       -0.3568
      6 H           0.2373   -2.1418   -0.0284 H       1  LIG1        0.1655
      7 H           2.3102   -0.7145   -0.0519 H       1  LIG1        0.0820
      8 N           2.2762    3.1415   -0.1360 N.1     1  LIG1       -0.1908
      9 C           1.6671    2.1685   -0.1162 C.1     1  LIG1        0.1025
     10 N          -1.5042    2.0191   -0.1230 N.pl3   1  LIG1       -0.3553
     11 H          -1.4153    2.6229    0.6904 H       1  LIG1        0.1424
     12 H          -1.4031    2.5941   -0.9555 H       1  LIG1        0.1424
     13 C          -2.2706   -0.9272   -0.0637 C.ar    1  LIG1        0.0846
     14 C          -2.7375   -2.2354   -0.0380 C.ar    1  LIG1        0.0997
     15 C          -4.1634   -2.1776   -0.0406 C.ar    1  LIG1        0.0699
     16 C          -4.4951   -0.8389   -0.0678 C.ar    1  LIG1        0.0869
     17 N          -3.3432   -0.1071   -0.0824 N.ar    1  LIG1       -0.3493
     18 H          -3.2167    0.9109   -0.1038 H       1  LIG1        0.1661
     19 N          -1.1501   -4.2653    0.0081 N.1     1  LIG1       -0.1907
     20 C          -1.8921   -3.3865   -0.0123 C.1     1  LIG1        0.1032
     21 N          -5.1320   -3.2181   -0.0177 N.pl3   1  LIG1       -0.3553
     22 H          -5.0917   -3.8113   -0.8418 H       1  LIG1        0.1424
     23 H          -5.0581   -3.8040    0.8092 H       1  LIG1        0.1424
     24 C          -5.8264   -0.2559   -0.0760 C.ar    1  LIG1        0.0846
     25 C          -6.2553    1.0648   -0.0972 C.ar    1  LIG1        0.0997
     26 C          -7.6820    1.0461   -0.0904 C.ar    1  LIG1        0.0699
     27 C          -8.0565   -0.2802   -0.0661 C.ar    1  LIG1        0.0869
     28 N          -6.9244   -1.0427   -0.0583 N.ar    1  LIG1       -0.3493
     29 H          -6.8344   -2.0645   -0.0352 H       1  LIG1        0.1661
     30 N          -4.6891    3.1133   -0.1398 N.1     1  LIG1       -0.1907
     31 C          -5.4019    2.2108   -0.1207 C.1     1  LIG1        0.1032
     32 N          -8.5994    2.1394   -0.1038 N.pl3   1  LIG1       -0.3553
     33 H          -8.4407    2.7496    0.6948 H       1  LIG1        0.1424
     34 H          -8.4814    2.6964   -0.9470 H       1  LIG1        0.1424
     35 C          -9.3967   -0.8445   -0.0486 C.ar    1  LIG1        0.0842
     36 C          -9.8304   -2.1659   -0.0449 C.ar    1  LIG1        0.0990
     37 C         -11.2589   -2.1514   -0.0296 C.ar    1  LIG1        0.0604
     38 C         -11.6312   -0.8273   -0.0260 C.ar    1  LIG1        0.0243
     39 N         -10.4897   -0.0623   -0.0373 N.ar    1  LIG1       -0.3568
     40 H         -10.4014    0.9506   -0.0416 H       1  LIG1        0.1655
     41 H         -12.6106   -0.3840   -0.0044 H       1  LIG1        0.0826
     42 N          -8.2597   -4.2098   -0.0981 N.1     1  LIG1       -0.1907
     43 C          -8.9768   -3.3098   -0.0683 C.1     1  LIG1        0.1032
     44 N         -12.0755   -3.2855    0.0408 N.pl3   1  LIG1       -0.3558
     45 H         -12.9905   -3.1481   -0.3671 H       1  LIG1        0.1424
     46 H         -11.6341   -4.1131   -0.3399 H       1  LIG1        0.1424
@<TRIPOS>BOND
     1    12    10    1
     2    34    32    1
     3    22    21    1
     4    45    44    1
     5    46    44    1
     6    30    31    3
     7     8     9    3
     8    10     3    1
     9    10    11    1
    10    31    25    1
    11     9     2    1
    12    18    17    1
    13    32    26    1
    14    32    33    1
    15    42    43    3
    16     3     2   ar
    17     3     4   ar
    18    25    26   ar
    19    25    24   ar
    20     2     1   ar
    21    26    27   ar
    22    17    16   ar
    23    17    13   ar
    24    24    16    1
    25    24    28   ar
    26     4    13    1
    27     4     5   ar
    28    43    36    1
    29    16    15   ar
    30    27    28   ar
    31    27    35    1
    32     1     7    1
    33     1     5   ar
    34    13    14   ar
    35    28    29    1
    36     5     6    1
    37    35    36   ar
    38    35    39   ar
    39    36    37   ar
    40    40    39    1
    41    15    14   ar
    42    15    21    1
    43    14    20    1
    44    39    38   ar
    45    37    38   ar
    46    37    44    1
    47    38    41    1
    48    21    23    1
    49    20    19    3
