@<TRIPOS>MOLECULE
mol_data/opt/m06hf/geoms/mol2/13dh13dh-.out
 24 25 0 0 0
SMALL
GASTEIGER

@<TRIPOS>ATOM
      1 C           1.1908   -0.3317   -0.0236 C.ar    1  LIG1        0.0215
      2 C           0.7696    0.9807   -0.0787 C.ar    1  LIG1        0.0903
      3 C          -0.6580    0.9724   -0.0954 C.ar    1  LIG1        0.0693
      4 C          -1.0448   -0.3468   -0.0500 C.ar    1  LIG1        0.0864
      5 N           0.0882   -1.1157   -0.0071 N.ar    1  LIG1       -0.3568
      6 H           0.0892   -2.1279    0.0324 H       1  LIG1        0.1655
      7 H           2.1857   -0.7397    0.0042 H       1  LIG1        0.0820
      8 N           2.1993    3.1284   -0.1435 N.1     1  LIG1       -0.1908
      9 C           1.5852    2.1582   -0.1140 C.1     1  LIG1        0.1025
     10 N          -1.5651    2.0737   -0.1468 N.pl3   1  LIG1       -0.3553
     11 H          -1.4298    2.6841    0.6559 H       1  LIG1        0.1424
     12 H          -1.4040    2.6294   -0.9837 H       1  LIG1        0.1424
     13 C          -2.3944   -0.8935   -0.0442 C.ar    1  LIG1        0.0841
     14 C          -2.8524   -2.2058   -0.0046 C.ar    1  LIG1        0.0990
     15 C          -4.2800   -2.1684   -0.0254 C.ar    1  LIG1        0.0604
     16 C          -4.6281   -0.8390   -0.0770 C.ar    1  LIG1        0.0243
     17 N          -3.4734   -0.0936   -0.0856 N.ar    1  LIG1       -0.3568
     18 H          -3.3658    0.9175   -0.1210 H       1  LIG1        0.1655
     19 H          -5.5992   -0.3789   -0.0965 H       1  LIG1        0.0826
     20 N          -1.2641   -4.2331    0.0663 N.1     1  LIG1       -0.1907
     21 C          -2.0038   -3.3514    0.0401 C.1     1  LIG1        0.1032
     22 N          -5.1167   -3.2859    0.0656 N.pl3   1  LIG1       -0.3558
     23 H          -6.0370   -3.1307   -0.3235 H       1  LIG1        0.1424
     24 H          -4.7018   -4.1260   -0.3174 H       1  LIG1        0.1424
@<TRIPOS>BOND
     1    12    10    1
     2    23    22    1
     3    24    22    1
     4    10     3    1
     5    10    11    1
     6     8     9    3
     7    18    17    1
     8     9     2    1
     9    19    16    1
    10     3     2   ar
    11     3     4   ar
    12    17    16   ar
    13    17    13   ar
    14     2     1   ar
    15    16    15   ar
    16     4    13    1
    17     4     5   ar
    18    13    14   ar
    19    15    14   ar
    20    15    22    1
    21     1     5   ar
    22     1     7    1
    23     5     6    1
    24    14    21    1
    25    21    20    3
