@<TRIPOS>MOLECULE
mol_data/opt/m06hf/geoms/mol2/13dh13dh13dh.out
 35 37 0 0 0
SMALL
GASTEIGER

@<TRIPOS>ATOM
      1 C           1.0489   -0.1214   -1.1863 C.ar    1  LIG1        0.0215
      2 C           0.8741    0.9199   -0.2981 C.ar    1  LIG1        0.0903
      3 C          -0.4730    0.8754    0.1875 C.ar    1  LIG1        0.0693
      4 C          -1.0617   -0.2107   -0.4297 C.ar    1  LIG1        0.0864
      5 N          -0.1160   -0.7939   -1.2580 N.ar    1  LIG1       -0.3568
      6 H          -0.3247   -1.5150   -1.9310 H       1  LIG1        0.1655
      7 H           1.9130   -0.3935   -1.7668 H       1  LIG1        0.0820
      8 N           2.6029    2.6889    0.4350 N.1     1  LIG1       -0.1908
      9 C           1.8520    1.8895    0.0929 C.1     1  LIG1        0.1025
     10 N          -1.0166    1.7120    1.1512 N.pl3   1  LIG1       -0.3553
     11 H          -0.3916    2.4591    1.4264 H       1  LIG1        0.1424
     12 H          -1.9435    2.0618    0.9383 H       1  LIG1        0.1424
     13 C          -2.3867   -0.7892   -0.2596 C.ar    1  LIG1        0.0846
     14 C          -3.6311   -0.1792   -0.1977 C.ar    1  LIG1        0.0997
     15 C          -4.6288   -1.1894   -0.0240 C.ar    1  LIG1        0.0699
     16 C          -3.9492   -2.3914    0.0080 C.ar    1  LIG1        0.0869
     17 N          -2.5984   -2.1184   -0.1417 N.ar    1  LIG1       -0.3493
     18 H          -1.8699   -2.8159   -0.1418 H       1  LIG1        0.1661
     19 N          -4.0285    2.3616   -0.3715 N.1     1  LIG1       -0.1907
     20 C          -3.8579    1.2258   -0.3076 C.1     1  LIG1        0.1032
     21 N          -5.9850   -0.9668    0.1475 N.pl3   1  LIG1       -0.3553
     22 H          -6.2633   -0.0105   -0.0288 H       1  LIG1        0.1424
     23 H          -6.5932   -1.6280   -0.3189 H       1  LIG1        0.1424
     24 C          -4.4342   -3.7468    0.2268 C.ar    1  LIG1        0.0842
     25 C          -5.5183   -4.4105   -0.3261 C.ar    1  LIG1        0.0990
     26 C          -5.5721   -5.7269    0.2325 C.ar    1  LIG1        0.0604
     27 C          -4.5096   -5.8204    1.0956 C.ar    1  LIG1        0.0243
     28 N          -3.8371   -4.6155    1.0757 N.ar    1  LIG1       -0.3568
     29 H          -3.0996   -4.3578    1.7128 H       1  LIG1        0.1655
     30 H          -4.1927   -6.6340    1.7229 H       1  LIG1        0.0826
     31 N          -7.1312   -3.3982   -2.0631 N.1     1  LIG1       -0.1907
     32 C          -6.4059   -3.8599   -1.2987 C.1     1  LIG1        0.1032
     33 N          -6.5629   -6.6724   -0.0379 N.pl3   1  LIG1       -0.3558
     34 H          -7.0047   -6.5442   -0.9393 H       1  LIG1        0.1424
     35 H          -6.2628   -7.6290    0.0897 H       1  LIG1        0.1424
@<TRIPOS>BOND
     1    31    32    3
     2     6     5    1
     3     7     1    1
     4    32    25    1
     5     5     1   ar
     6     5     4   ar
     7     1     2   ar
     8    34    33    1
     9     4    13    1
    10     4     3   ar
    11    19    20    3
    12    25    24   ar
    13    25    26   ar
    14    23    21    1
    15    20    14    1
    16     2     9    1
    17     2     3   ar
    18    13    14   ar
    19    13    17   ar
    20    14    15   ar
    21    18    17    1
    22    17    16   ar
    23    33    35    1
    24    33    26    1
    25    22    21    1
    26    15    16   ar
    27    15    21    1
    28    16    24    1
    29     9     8    3
    30     3    10    1
    31    24    28   ar
    32    26    27   ar
    33    12    10    1
    34    28    27   ar
    35    28    29    1
    36    27    30    1
    37    10    11    1
