@<TRIPOS>MOLECULE
mol_data/opt/m06hf/geoms/mol2/13dh13dh13dh13dh.out
 46 49 0 0 0
SMALL
GASTEIGER

@<TRIPOS>ATOM
      1 C           0.6383    0.3195   -2.0153 C.ar    1  LIG1        0.0215
      2 C           0.7996    1.0186   -0.8364 C.ar    1  LIG1        0.0903
      3 C          -0.3504    0.7852   -0.0153 C.ar    1  LIG1        0.0693
      4 C          -1.1655   -0.0631   -0.7379 C.ar    1  LIG1        0.0864
      5 N          -0.5410   -0.3271   -1.9465 N.ar    1  LIG1       -0.3568
      6 H          -0.9816   -0.8046   -2.7176 H       1  LIG1        0.1655
      7 H           1.2763    0.2715   -2.8805 H       1  LIG1        0.0820
      8 N           2.7917    2.4983   -0.1316 N.1     1  LIG1       -0.1908
      9 C           1.9159    1.8355   -0.4683 C.1     1  LIG1        0.1025
     10 N          -0.5352    1.2556    1.2768 N.pl3   1  LIG1       -0.3553
     11 H           0.1844    1.9057    1.5666 H       1  LIG1        0.1424
     12 H          -1.4615    1.6191    1.4694 H       1  LIG1        0.1424
     13 C          -2.4217   -0.7015   -0.3714 C.ar    1  LIG1        0.0846
     14 C          -3.5613   -0.1681    0.2130 C.ar    1  LIG1        0.0997
     15 C          -4.5310   -1.2087    0.3596 C.ar    1  LIG1        0.0699
     16 C          -3.9404   -2.3498   -0.1475 C.ar    1  LIG1        0.0869
     17 N          -2.6692   -2.0123   -0.5847 N.ar    1  LIG1       -0.3493
     18 H          -2.0150   -2.6549   -1.0040 H       1  LIG1        0.1661
     19 N          -3.8162    2.2958    0.9234 N.1     1  LIG1       -0.1907
     20 C          -3.7164    1.1989    0.5924 C.1     1  LIG1        0.1032
     21 N          -5.7714   -1.0833    0.9631 N.pl3   1  LIG1       -0.3553
     22 H          -6.0311   -0.1245    1.1548 H       1  LIG1        0.1424
     23 H          -6.5220   -1.5918    0.5118 H       1  LIG1        0.1424
     24 C          -4.4240   -3.7229   -0.1824 C.ar    1  LIG1        0.0846
     25 C          -5.6477   -4.2312   -0.5931 C.ar    1  LIG1        0.0997
     26 C          -5.6323   -5.6520   -0.4287 C.ar    1  LIG1        0.0699
     27 C          -4.3839   -5.9604    0.0770 C.ar    1  LIG1        0.0869
     28 N          -3.6756   -4.7774    0.2095 N.ar    1  LIG1       -0.3493
     29 H          -2.7382   -4.7111    0.5754 H       1  LIG1        0.1661
     30 N          -7.6022   -2.7890   -1.4542 N.1     1  LIG1       -0.1907
     31 C          -6.7281   -3.4419   -1.0900 C.1     1  LIG1        0.1032
     32 N          -6.6946   -6.5079   -0.6671 N.pl3   1  LIG1       -0.3553
     33 H          -7.4737   -6.0652   -1.1362 H       1  LIG1        0.1424
     34 H          -6.4498   -7.3921   -1.0956 H       1  LIG1        0.1424
     35 C          -3.8274   -7.2351    0.5102 C.ar    1  LIG1        0.0842
     36 C          -3.8504   -8.4776   -0.1034 C.ar    1  LIG1        0.0990
     37 C          -3.1766   -9.4114    0.7458 C.ar    1  LIG1        0.0604
     38 C          -2.7562   -8.6985    1.8405 C.ar    1  LIG1        0.0243
     39 N          -3.1579   -7.3888    1.6766 N.ar    1  LIG1       -0.3568
     40 H          -3.1093   -6.6800    2.3922 H       1  LIG1        0.1655
     41 H          -2.2248   -9.0200    2.7179 H       1  LIG1        0.0826
     42 N          -4.9438   -8.9660   -2.3863 N.1     1  LIG1       -0.1907
     43 C          -4.4409   -8.7509   -1.3740 C.1     1  LIG1        0.1032
     44 N          -3.0493  -10.7779    0.4947 N.pl3   1  LIG1       -0.3558
     45 H          -3.1188  -11.0170   -0.4862 H       1  LIG1        0.1424
     46 H          -2.2371  -11.2024    0.9206 H       1  LIG1        0.1424
@<TRIPOS>BOND
     1     7     1    1
     2     6     5    1
     3    42    43    3
     4     1     5   ar
     5     1     2   ar
     6     5     4   ar
     7    30    31    3
     8    43    36    1
     9    33    32    1
    10    34    32    1
    11    31    25    1
    12    18    17    1
    13     2     9    1
    14     2     3   ar
    15     4    13    1
    16     4     3   ar
    17    32    26    1
    18    25    26   ar
    19    25    24   ar
    20    17    13   ar
    21    17    16   ar
    22    45    44    1
    23     9     8    3
    24    26    27   ar
    25    13    14   ar
    26    24    16    1
    27    24    28   ar
    28    16    15   ar
    29    36    35   ar
    30    36    37   ar
    31     3    10    1
    32    27    28   ar
    33    27    35    1
    34    28    29    1
    35    14    15   ar
    36    14    20    1
    37    15    21    1
    38    44    37    1
    39    44    46    1
    40    35    39   ar
    41    23    21    1
    42    20    19    3
    43    37    38   ar
    44    21    22    1
    45    10    12    1
    46    10    11    1
    47    39    38   ar
    48    39    40    1
    49    38    41    1
