@<TRIPOS>MOLECULE
mol_data/opt/m06hf/geoms/mol2/13dh13dh13dh-13dh.out
 46 49 0 0 0
SMALL
GASTEIGER

@<TRIPOS>ATOM
      1 C           1.2283   -0.1352   -0.6745 C.ar    1  LIG1        0.0215
      2 C           0.8889    1.0040    0.0273 C.ar    1  LIG1        0.0903
      3 C          -0.5249    0.9872    0.2541 C.ar    1  LIG1        0.0693
      4 C          -0.9880   -0.1780   -0.3292 C.ar    1  LIG1        0.0864
      5 N           0.0985   -0.8341   -0.8853 N.ar    1  LIG1       -0.3568
      6 H           0.0321   -1.6647   -1.4544 H       1  LIG1        0.1655
      7 H           2.1874   -0.4622   -1.0357 H       1  LIG1        0.0820
      8 N           2.4414    2.8902    0.8533 N.1     1  LIG1       -0.1908
      9 C           1.7727    2.0366    0.4741 C.1     1  LIG1        0.1025
     10 N          -1.2339    1.9156    1.0002 N.pl3   1  LIG1       -0.3553
     11 H          -0.6608    2.6820    1.3290 H       1  LIG1        0.1424
     12 H          -2.0968    2.2432    0.5842 H       1  LIG1        0.1424
     13 C          -2.3098   -0.7816   -0.3278 C.ar    1  LIG1        0.0846
     14 C          -3.5715   -0.2175   -0.4471 C.ar    1  LIG1        0.0997
     15 C          -4.5331   -1.2700   -0.3604 C.ar    1  LIG1        0.0699
     16 C          -3.8205   -2.4352   -0.2070 C.ar    1  LIG1        0.0869
     17 N          -2.4860   -2.1229   -0.1853 N.ar    1  LIG1       -0.3493
     18 H          -1.7445   -2.7788    0.0283 H       1  LIG1        0.1661
     19 N          -4.0510    2.2872   -0.8224 N.1     1  LIG1       -0.1907
     20 C          -3.8443    1.1673   -0.6642 C.1     1  LIG1        0.1032
     21 N          -5.9532   -1.2307   -0.4236 N.pl3   1  LIG1       -0.3553
     22 H          -6.3577   -0.6951    0.3400 H       1  LIG1        0.1424
     23 H          -6.2911   -0.8435   -1.3006 H       1  LIG1        0.1424
     24 C          -4.3401   -3.7872   -0.0902 C.ar    1  LIG1        0.0846
     25 C          -3.6956   -5.0122    0.0186 C.ar    1  LIG1        0.0997
     26 C          -4.7050   -6.0184    0.0966 C.ar    1  LIG1        0.0699
     27 C          -5.9152   -5.3617    0.0299 C.ar    1  LIG1        0.0869
     28 N          -5.6701   -4.0226   -0.0810 N.ar    1  LIG1       -0.3493
     29 H          -6.3383   -3.2492   -0.1721 H       1  LIG1        0.1661
     30 N          -1.1271   -5.2252   -0.0013 N.1     1  LIG1       -0.1907
     31 C          -2.2767   -5.1736    0.0164 C.1     1  LIG1        0.1032
     32 N          -4.5653   -7.4326    0.2188 N.pl3   1  LIG1       -0.3553
     33 H          -4.0325   -7.8126   -0.5596 H       1  LIG1        0.1424
     34 H          -4.0804   -7.6756    1.0793 H       1  LIG1        0.1424
     35 C          -7.2558   -5.9253    0.0611 C.ar    1  LIG1        0.0842
     36 C          -8.5033   -5.3142   -0.0044 C.ar    1  LIG1        0.0990
     37 C          -9.4927   -6.3425    0.0600 C.ar    1  LIG1        0.0604
     38 C          -8.8070   -7.5307    0.1614 C.ar    1  LIG1        0.0243
     39 N          -7.4622   -7.2504    0.1590 N.ar    1  LIG1       -0.3568
     40 H          -6.6780   -7.8940    0.2195 H       1  LIG1        0.1655
     41 H          -9.1762   -8.5366    0.2456 H       1  LIG1        0.0826
     42 N          -8.8639   -2.7698   -0.2170 N.1     1  LIG1       -0.1907
     43 C          -8.7232   -3.9082   -0.1196 C.1     1  LIG1        0.1032
     44 N         -10.8751   -6.1321    0.0853 N.pl3   1  LIG1       -0.3558
     45 H         -11.1509   -5.2557   -0.3396 H       1  LIG1        0.1424
     46 H         -11.4069   -6.9015   -0.2987 H       1  LIG1        0.1424
@<TRIPOS>BOND
     1     6     5    1
     2    23    21    1
     3     7     1    1
     4     5     1   ar
     5     5     4   ar
     6    19    20    3
     7     1     2   ar
     8    20    14    1
     9    33    32    1
    10    14    15   ar
    11    14    13   ar
    12    21    15    1
    13    21    22    1
    14    15    16   ar
    15    45    44    1
    16     4    13    1
    17     4     3   ar
    18    13    17   ar
    19    46    44    1
    20    42    43    3
    21    16    17   ar
    22    16    24    1
    23    17    18    1
    24    29    28    1
    25    43    36    1
    26    24    28   ar
    27    24    25   ar
    28    28    27   ar
    29    36    37   ar
    30    36    35   ar
    31    30    31    3
    32    31    25    1
    33    25    26   ar
    34     2     3   ar
    35     2     9    1
    36    27    35    1
    37    27    26   ar
    38    37    44    1
    39    37    38   ar
    40    35    39   ar
    41    26    32    1
    42    39    38   ar
    43    39    40    1
    44    38    41    1
    45    32    34    1
    46     3    10    1
    47     9     8    3
    48    12    10    1
    49    10    11    1
