@<TRIPOS>MOLECULE
mol_data/opt/m06hf/geoms/mol2/13dh13dh-13dh-13dh.out
 46 49 0 0 0
SMALL
GASTEIGER

@<TRIPOS>ATOM
      1 C           1.1521   -0.0579   -0.0317 C.ar    1  LIG1        0.0215
      2 C           0.5953    1.1501    0.3396 C.ar    1  LIG1        0.0903
      3 C          -0.8220    0.9861    0.3475 C.ar    1  LIG1        0.0693
      4 C          -1.0634   -0.3198   -0.0182 C.ar    1  LIG1        0.0864
      5 N           0.1409   -0.9290   -0.2484 N.ar    1  LIG1       -0.3568
      6 H           0.2465   -1.8925   -0.5404 H       1  LIG1        0.1655
      7 H           2.1849   -0.3337   -0.1543 H       1  LIG1        0.0820
      8 N           1.8182    3.3431    0.9343 N.1     1  LIG1       -0.1908
      9 C           1.2925    2.3584    0.6659 C.1     1  LIG1        0.1025
     10 N          -1.8465    1.9240    0.6659 N.pl3   1  LIG1       -0.3553
     11 H          -1.6055    2.4677    1.4902 H       1  LIG1        0.1424
     12 H          -2.0313    2.5745   -0.0967 H       1  LIG1        0.1424
     13 C          -2.3558   -0.9710   -0.1488 C.ar    1  LIG1        0.0846
     14 C          -2.7276   -2.2541   -0.5380 C.ar    1  LIG1        0.0997
     15 C          -4.1546   -2.3379   -0.4821 C.ar    1  LIG1        0.0699
     16 C          -4.5883   -1.0937   -0.0496 C.ar    1  LIG1        0.0869
     17 N          -3.4759   -0.2985    0.1468 N.ar    1  LIG1       -0.3493
     18 H          -3.4112    0.6400    0.5521 H       1  LIG1        0.1661
     19 N          -1.0129   -4.0480   -1.2291 N.1     1  LIG1       -0.1907
     20 C          -1.8059   -3.2698   -0.9283 C.1     1  LIG1        0.1032
     21 N          -4.9114   -3.4185   -0.8966 N.pl3   1  LIG1       -0.3553
     22 H          -5.7422   -3.6180   -0.3548 H       1  LIG1        0.1424
     23 H          -4.3701   -4.2488   -1.0945 H       1  LIG1        0.1424
     24 C          -5.9016   -0.4851    0.0444 C.ar    1  LIG1        0.0846
     25 C          -7.1677   -0.9714    0.3403 C.ar    1  LIG1        0.0997
     26 C          -8.0822    0.1284    0.2808 C.ar    1  LIG1        0.0699
     27 C          -7.3393    1.2393   -0.0319 C.ar    1  LIG1        0.0869
     28 N          -6.0353    0.8478   -0.1753 N.ar    1  LIG1       -0.3493
     29 H          -5.2881    1.4532   -0.4921 H       1  LIG1        0.1661
     30 N          -7.7297   -3.4039    0.9802 N.1     1  LIG1       -0.1907
     31 C          -7.4848   -2.3159    0.6984 C.1     1  LIG1        0.1032
     32 N          -9.4903    0.1518    0.5054 N.pl3   1  LIG1       -0.3553
     33 H          -9.9599   -0.5132   -0.1048 H       1  LIG1        0.1424
     34 H          -9.7067   -0.1071    1.4654 H       1  LIG1        0.1424
     35 C          -7.7581    2.6221   -0.1856 C.ar    1  LIG1        0.0842
     36 C          -7.0058    3.7748   -0.3968 C.ar    1  LIG1        0.0990
     37 C          -7.9141    4.8759   -0.4712 C.ar    1  LIG1        0.0604
     38 C          -9.1718    4.3477   -0.2992 C.ar    1  LIG1        0.0243
     39 N          -9.0481    2.9883   -0.1274 N.ar    1  LIG1       -0.3568
     40 H          -9.7753    2.3004    0.0475 H       1  LIG1        0.1655
     41 H         -10.1288    4.8371   -0.2758 H       1  LIG1        0.0826
     42 N          -4.4344    3.7122   -0.5617 N.1     1  LIG1       -0.1907
     43 C          -5.5818    3.7899   -0.4909 C.1     1  LIG1        0.1032
     44 N          -7.5425    6.2163   -0.6117 N.pl3   1  LIG1       -0.3558
     45 H          -6.6981    6.3419   -1.1556 H       1  LIG1        0.1424
     46 H          -8.2857    6.8062   -0.9606 H       1  LIG1        0.1424
@<TRIPOS>BOND
     1    19    20    3
     2    45    44    1
     3    23    21    1
     4    46    44    1
     5    20    14    1
     6    21    15    1
     7    21    22    1
     8    44    37    1
     9    42    43    3
    10     6     5    1
    11    14    15   ar
    12    14    13   ar
    13    29    28    1
    14    43    36    1
    15    15    16   ar
    16    37    36   ar
    17    37    38   ar
    18    36    35   ar
    19    38    41    1
    20    38    39   ar
    21     5     1   ar
    22     5     4   ar
    23    35    39   ar
    24    35    27    1
    25    28    27   ar
    26    28    24   ar
    27     7     1    1
    28    13     4    1
    29    13    17   ar
    30    39    40    1
    31    33    32    1
    32    12    10    1
    33    16    24    1
    34    16    17   ar
    35    27    26   ar
    36     1     2   ar
    37     4     3   ar
    38    24    25   ar
    39    17    18    1
    40    26    25   ar
    41    26    32    1
    42     2     3   ar
    43     2     9    1
    44    25    31    1
    45     3    10    1
    46    32    34    1
    47    10    11    1
    48     9     8    3
    49    31    30    3
