@<TRIPOS>MOLECULE
mol_data/opt/m06hf/geoms/mol2/13dh13dh13dh-13dh-.out
 46 49 0 0 0
SMALL
GASTEIGER

@<TRIPOS>ATOM
      1 C           1.2594   -0.1730   -0.3840 C.ar    1  LIG1        0.0215
      2 C           0.8523    1.0488    0.1131 C.ar    1  LIG1        0.0903
      3 C          -0.5778    1.0518    0.1809 C.ar    1  LIG1        0.0693
      4 C          -0.9813   -0.1848   -0.2887 C.ar    1  LIG1        0.0864
      5 N           0.1554   -0.9026   -0.6249 N.ar    1  LIG1       -0.3568
      6 H           0.1496   -1.8079   -1.0709 H       1  LIG1        0.1655
      7 H           2.2506   -0.5384   -0.5873 H       1  LIG1        0.0820
      8 N           2.3059    3.0486    0.8461 N.1     1  LIG1       -0.1908
      9 C           1.6848    2.1420    0.5121 C.1     1  LIG1        0.1025
     10 N          -1.3579    2.0667    0.7143 N.pl3   1  LIG1       -0.3553
     11 H          -0.8150    2.8650    1.0178 H       1  LIG1        0.1424
     12 H          -2.1566    2.3453    0.1580 H       1  LIG1        0.1424
     13 C          -2.3000   -0.7898   -0.3537 C.ar    1  LIG1        0.0846
     14 C          -3.5431   -0.2482   -0.6475 C.ar    1  LIG1        0.0997
     15 C          -4.5118   -1.2924   -0.5432 C.ar    1  LIG1        0.0699
     16 C          -3.8240   -2.4330   -0.2088 C.ar    1  LIG1        0.0869
     17 N          -2.4964   -2.1092   -0.0954 N.ar    1  LIG1       -0.3493
     18 H          -1.7820   -2.7446    0.2403 H       1  LIG1        0.1661
     19 N          -4.0199    2.1840   -1.3570 N.1     1  LIG1       -0.1907
     20 C          -3.8043    1.0982   -1.0447 C.1     1  LIG1        0.1032
     21 N          -5.9224   -1.2417   -0.7526 N.pl3   1  LIG1       -0.3553
     22 H          -6.3434   -0.5307   -0.1589 H       1  LIG1        0.1424
     23 H          -6.1333   -0.9974   -1.7180 H       1  LIG1        0.1424
     24 C          -4.3368   -3.7770   -0.0082 C.ar    1  LIG1        0.0846
     25 C          -3.6712   -4.9831    0.1847 C.ar    1  LIG1        0.0997
     26 C          -4.6502   -6.0192    0.2860 C.ar    1  LIG1        0.0699
     27 C          -5.8778   -5.3929    0.1455 C.ar    1  LIG1        0.0869
     28 N          -5.6524   -4.0406   -0.0318 N.ar    1  LIG1       -0.3493
     29 H          -6.3236   -3.3142   -0.2740 H       1  LIG1        0.1661
     30 N          -1.0989   -5.0964    0.2630 N.1     1  LIG1       -0.1907
     31 C          -2.2500   -5.0966    0.2378 C.1     1  LIG1        0.1032
     32 N          -4.3911   -7.3510    0.5647 N.pl3   1  LIG1       -0.3553
     33 H          -4.9739   -8.0189    0.0756 H       1  LIG1        0.1424
     34 H          -3.4118   -7.5957    0.5083 H       1  LIG1        0.1424
     35 C          -7.2291   -5.9261    0.2365 C.ar    1  LIG1        0.0842
     36 C          -7.7754   -7.0967   -0.2689 C.ar    1  LIG1        0.0990
     37 C          -9.1535   -7.1502    0.1135 C.ar    1  LIG1        0.0604
     38 C          -9.3986   -6.0039    0.8261 C.ar    1  LIG1        0.0243
     39 N          -8.2244   -5.2818    0.8865 N.ar    1  LIG1       -0.3568
     40 H          -8.0848   -4.4503    1.4389 H       1  LIG1        0.1655
     41 H         -10.3003   -5.6571    1.2975 H       1  LIG1        0.0826
     42 N          -6.4953   -8.8318   -1.6800 N.1     1  LIG1       -0.1907
     43 C          -7.0761   -8.0547   -1.0611 C.1     1  LIG1        0.1032
     44 N         -10.0213   -8.2091   -0.1620 N.pl3   1  LIG1       -0.3558
     45 H         -10.9942   -7.9389   -0.2065 H       1  LIG1        0.1424
     46 H          -9.7533   -8.7435   -0.9787 H       1  LIG1        0.1424
@<TRIPOS>BOND
     1    23    21    1
     2    42    43    3
     3    19    20    3
     4     6     5    1
     5    43    36    1
     6    20    14    1
     7    46    44    1
     8    21    15    1
     9    21    22    1
    10    14    15   ar
    11    14    13   ar
    12     5     1   ar
    13     5     4   ar
    14     7     1    1
    15    15    16   ar
    16     1     2   ar
    17    13     4    1
    18    13    17   ar
    19     4     3   ar
    20    29    28    1
    21    36    37   ar
    22    36    35   ar
    23    16    17   ar
    24    16    24    1
    25    45    44    1
    26    44    37    1
    27    17    18    1
    28    28    24   ar
    29    28    27   ar
    30    24    25   ar
    31    33    32    1
    32     2     3   ar
    33     2     9    1
    34    37    38   ar
    35    27    35    1
    36    27    26   ar
    37    12    10    1
    38     3    10    1
    39    25    31    1
    40    25    26   ar
    41    35    39   ar
    42    31    30    3
    43    26    32    1
    44    34    32    1
    45     9     8    3
    46    10    11    1
    47    38    39   ar
    48    38    41    1
    49    39    40    1
