@<TRIPOS>MOLECULE
mol_data/opt/m06hf/geoms/mol2/13dh13dh13dh13dh-.out
 46 49 0 0 0
SMALL
GASTEIGER

@<TRIPOS>ATOM
      1 C           1.1544   -0.6232    0.0143 C.ar    1  LIG1        0.0215
      2 C           0.8860    0.6719   -0.3836 C.ar    1  LIG1        0.0903
      3 C          -0.5351    0.8501   -0.4037 C.ar    1  LIG1        0.0693
      4 C          -1.0729   -0.3624   -0.0102 C.ar    1  LIG1        0.0864
      5 N          -0.0214   -1.2349    0.2352 N.ar    1  LIG1       -0.3568
      6 H          -0.1249   -2.1622    0.6229 H       1  LIG1        0.1655
      7 H           2.0991   -1.1160    0.1657 H       1  LIG1        0.0820
      8 N           2.5571    2.5323   -1.0113 N.1     1  LIG1       -0.1908
      9 C           1.8357    1.6847   -0.7276 C.1     1  LIG1        0.1025
     10 N          -1.1914    1.9871   -0.8372 N.pl3   1  LIG1       -0.3553
     11 H          -0.5719    2.7640   -1.0262 H       1  LIG1        0.1424
     12 H          -2.0061    2.2639   -0.3041 H       1  LIG1        0.1424
     13 C          -2.4438   -0.8299    0.0707 C.ar    1  LIG1        0.0846
     14 C          -3.6224   -0.1990    0.4421 C.ar    1  LIG1        0.0997
     15 C          -4.7013   -1.1409    0.3353 C.ar    1  LIG1        0.0699
     16 C          -4.1294   -2.3222   -0.0926 C.ar    1  LIG1        0.0869
     17 N          -2.7632   -2.1047   -0.2452 N.ar    1  LIG1       -0.3493
     18 H          -2.1553   -2.7050   -0.7862 H       1  LIG1        0.1661
     19 N          -3.8036    2.2248    1.2973 N.1     1  LIG1       -0.1907
     20 C          -3.7267    1.1385    0.9257 C.1     1  LIG1        0.1032
     21 N          -6.0021   -0.9044    0.7234 N.pl3   1  LIG1       -0.3553
     22 H          -6.2155    0.0658    0.9089 H       1  LIG1        0.1424
     23 H          -6.7271   -1.3792    0.2015 H       1  LIG1        0.1424
     24 C          -4.6206   -3.6804   -0.2068 C.ar    1  LIG1        0.0846
     25 C          -5.8391   -4.2523   -0.5463 C.ar    1  LIG1        0.0997
     26 C          -5.6796   -5.6760   -0.4995 C.ar    1  LIG1        0.0699
     27 C          -4.3733   -5.9122   -0.1504 C.ar    1  LIG1        0.0869
     28 N          -3.7609   -4.7022    0.0308 N.ar    1  LIG1       -0.3493
     29 H          -2.8288   -4.5813    0.4047 H       1  LIG1        0.1661
     30 N          -7.9573   -2.9383   -1.2030 N.1     1  LIG1       -0.1907
     31 C          -7.0162   -3.5353   -0.9176 C.1     1  LIG1        0.1032
     32 N          -6.6254   -6.7093   -0.7638 N.pl3   1  LIG1       -0.3553
     33 H          -7.4039   -6.6569   -0.1106 H       1  LIG1        0.1424
     34 H          -7.0056   -6.6200   -1.7032 H       1  LIG1        0.1424
     35 C          -3.6513   -7.1639   -0.0070 C.ar    1  LIG1        0.0842
     36 C          -2.2985   -7.3939    0.2344 C.ar    1  LIG1        0.0990
     37 C          -2.0991   -8.8091    0.2579 C.ar    1  LIG1        0.0604
     38 C          -3.3314   -9.3734    0.0279 C.ar    1  LIG1        0.0243
     39 N          -4.2497   -8.3591   -0.1223 N.ar    1  LIG1       -0.3568
     40 H          -5.2404   -8.4255   -0.3369 H       1  LIG1        0.1655
     41 H          -3.6166  -10.4086   -0.0291 H       1  LIG1        0.0826
     42 N          -0.6618   -5.4202    0.4899 N.1     1  LIG1       -0.1907
     43 C          -1.3424   -6.3452    0.3907 C.1     1  LIG1        0.1032
     44 N          -0.8854   -9.4432    0.5393 N.pl3   1  LIG1       -0.3558
     45 H          -0.8743  -10.4227    0.2889 H       1  LIG1        0.1424
     46 H          -0.0822   -8.9633    0.1530 H       1  LIG1        0.1424
@<TRIPOS>BOND
     1    34    32    1
     2    30    31    3
     3    11    10    1
     4     8     9    3
     5    31    25    1
     6    10     3    1
     7    10    12    1
     8    18    17    1
     9    32    26    1
    10    32    33    1
    11     9     2    1
    12    25    26   ar
    13    25    24   ar
    14    26    27   ar
    15     3     2   ar
    16     3     4   ar
    17     2     1   ar
    18    40    39    1
    19    17    16   ar
    20    17    13   ar
    21    24    16    1
    22    24    28   ar
    23    27    35    1
    24    27    28   ar
    25    39    35   ar
    26    39    38   ar
    27    16    15   ar
    28    41    38    1
    29     4    13    1
    30     4     5   ar
    31    35    36   ar
    32     1     7    1
    33     1     5   ar
    34    38    37   ar
    35    28    29    1
    36    13    14   ar
    37    46    44    1
    38    23    21    1
    39    36    37   ar
    40    36    43    1
    41     5     6    1
    42    37    44    1
    43    45    44    1
    44    15    14   ar
    45    15    21    1
    46    43    42    3
    47    14    20    1
    48    21    22    1
    49    20    19    3
