@<TRIPOS>MOLECULE
mol_data/opt/m06hf/geoms/mol2/13dh12ha6hi6ei.out
 50 53 0 0 0
SMALL
GASTEIGER

@<TRIPOS>ATOM
      1 C           1.1862   -0.0758   -0.8113 C.ar    1  LIG1        0.0216
      2 C           0.7359    1.2236   -0.8809 C.ar    1  LIG1        0.0903
      3 C          -0.6709    1.2175   -0.6134 C.ar    1  LIG1        0.0709
      4 C          -1.0177   -0.0942   -0.3807 C.ar    1  LIG1        0.1061
      5 N           0.1178   -0.8534   -0.5149 N.ar    1  LIG1       -0.3555
      6 H           0.1278   -1.8538   -0.3776 H       1  LIG1        0.1655
      7 H           2.1738   -0.4775   -0.9526 H       1  LIG1        0.0820
      8 N           2.0899    3.3569   -1.4068 N.1     1  LIG1       -0.1908
      9 C           1.5084    2.3936   -1.1759 C.1     1  LIG1        0.1025
     10 N          -1.5614    2.3298   -0.6124 N.pl3   1  LIG1       -0.3552
     11 H          -1.1310    3.1277   -0.1518 H       1  LIG1        0.1424
     12 H          -1.7870    2.6086   -1.5643 H       1  LIG1        0.1424
     13 C          -2.2758   -0.7304   -0.0399 C.ar    1  LIG1        0.1741
     14 C          -3.4656   -0.2923    0.4666 C.ar    1  LIG1        0.0731
     15 C          -4.2809   -1.4746    0.6074 C.ar    1  LIG1        0.0057
     16 C          -3.5227   -2.5298    0.2052 C.ar    1  LIG1        0.1409
     17 O          -2.3065   -2.0907   -0.1955 O.2     1  LIG1       -0.4513
     18 N          -3.8080    0.9922    0.8460 N.pl3   1  LIG1       -0.3550
     19 H          -3.2197    1.7080    0.4188 H       1  LIG1        0.1424
     20 H          -4.7975    1.1888    0.8037 H       1  LIG1        0.1424
     21 H          -5.2974   -1.5108    0.9623 H       1  LIG1        0.0674
     22 C          -3.1588   -4.8462   -0.7542 C.ar    1  LIG1        0.1276
     23 C          -3.7825   -3.9745    0.1725 C.ar    1  LIG1        0.0571
     24 C          -4.7005   -4.5327    1.0524 C.ar    1  LIG1       -0.0428
     25 C          -4.9999   -5.8930    1.0416 C.ar    1  LIG1       -0.0236
     26 C          -4.3013   -6.6569    0.1014 C.ar    1  LIG1        0.0787
     27 N          -3.4368   -6.1476   -0.7740 N.ar    1  LIG1       -0.2314
     28 H          -5.1878   -3.8862    1.7737 H       1  LIG1        0.0629
     29 N          -2.2299   -4.4175   -1.6633 N.pl3   1  LIG1       -0.3426
     30 H          -2.0221   -5.0734   -2.3995 H       1  LIG1        0.1437
     31 H          -2.1523   -3.4325   -1.8556 H       1  LIG1        0.1437
     32 C          -6.0335   -6.4764    1.9853 C.3     1  LIG1       -0.0377
     33 H          -5.5541   -6.8975    2.8697 H       1  LIG1        0.0278
     34 H          -6.5982   -7.2683    1.4924 H       1  LIG1        0.0278
     35 H          -6.7271   -5.6947    2.2957 H       1  LIG1        0.0278
     36 C          -4.1991   -9.0330    0.9998 C.ar    1  LIG1        0.1223
     37 C          -4.5245   -8.1321   -0.0243 C.ar    1  LIG1        0.0347
     38 C          -5.0414   -8.6565   -1.2046 C.ar    1  LIG1       -0.0455
     39 C          -5.2573  -10.0256   -1.3277 C.ar    1  LIG1       -0.0316
     40 C          -4.9235  -10.8181   -0.2270 C.ar    1  LIG1        0.0319
     41 N          -4.4012  -10.3475    0.8986 N.ar    1  LIG1       -0.2458
     42 H          -5.2698   -7.9829   -2.0231 H       1  LIG1        0.0628
     43 H          -5.0776  -11.8910   -0.2648 H       1  LIG1        0.0832
     44 C          -3.5714   -8.5659    2.2226 C.1     1  LIG1       -0.0491
     45 C          -3.0349   -8.1773    3.2246 C.1     1  LIG1       -0.1124
     46 H          -2.5503   -7.8405    4.1115 H       1  LIG1        0.1232
     47 C          -5.8193  -10.6303   -2.5979 C.3     1  LIG1       -0.0383
     48 H          -5.9843  -11.6996   -2.4718 H       1  LIG1        0.0278
     49 H          -5.1238  -10.4805   -3.4250 H       1  LIG1        0.0278
     50 H          -6.7680  -10.1578   -2.8554 H       1  LIG1        0.0278
@<TRIPOS>BOND
     1    49    47    1
     2    50    47    1
     3    47    48    1
     4    47    39    1
     5    30    29    1
     6    42    38    1
     7    31    29    1
     8    29    22    1
     9    12    10    1
    10     8     9    3
    11    39    38   ar
    12    39    40   ar
    13    38    37   ar
    14     9     2    1
    15     7     1    1
    16     2     1   ar
    17     2     3   ar
    18     1     5   ar
    19    27    22   ar
    20    27    26   ar
    21    22    23   ar
    22     3    10    1
    23     3     4   ar
    24    10    11    1
    25     5     4   ar
    26     5     6    1
    27     4    13    1
    28    43    40    1
    29    40    41   ar
    30    17    13   ar
    31    17    16   ar
    32    13    14   ar
    33    37    26    1
    34    37    36   ar
    35    26    25   ar
    36    23    16    1
    37    23    24   ar
    38    16    15   ar
    39    19    18    1
    40    14    15   ar
    41    14    18    1
    42    15    21    1
    43    20    18    1
    44    41    36   ar
    45    36    44    1
    46    25    24   ar
    47    25    32    1
    48    24    28    1
    49    34    32    1
    50    32    35    1
    51    32    33    1
    52    44    45    3
    53    45    46    1
