@<TRIPOS>MOLECULE
mol_data/opt/m06hf/geoms/mol2/13dh13dh-4dh13dh.out
 48 51 0 0 0
SMALL
GASTEIGER

@<TRIPOS>ATOM
      1 C           1.3554   -0.4372    0.2703 C.ar    1  LIG1        0.0215
      2 C           0.9114    0.8456    0.5260 C.ar    1  LIG1        0.0903
      3 C          -0.5098    0.8422    0.4006 C.ar    1  LIG1        0.0693
      4 C          -0.8684   -0.4475    0.0777 C.ar    1  LIG1        0.0864
      5 N           0.2744   -1.2001   -0.0054 N.ar    1  LIG1       -0.3568
      6 H           0.2990   -2.1822   -0.2481 H       1  LIG1        0.1655
      7 H           2.3548   -0.8354    0.2666 H       1  LIG1        0.0820
      8 N           2.3172    2.9220    1.1360 N.1     1  LIG1       -0.1908
      9 C           1.7107    1.9862    0.8620 C.1     1  LIG1        0.1025
     10 N          -1.4382    1.9030    0.5662 N.pl3   1  LIG1       -0.3553
     11 H          -1.1370    2.5565    1.2829 H       1  LIG1        0.1424
     12 H          -1.5984    2.4192   -0.2977 H       1  LIG1        0.1424
     13 C          -2.2096   -0.9624   -0.1414 C.ar    1  LIG1        0.0846
     14 C          -2.6668   -2.2146   -0.5449 C.ar    1  LIG1        0.0996
     15 C          -4.0864   -2.1508   -0.6164 C.ar    1  LIG1        0.0685
     16 C          -4.4439   -0.8630   -0.2523 C.ar    1  LIG1        0.0705
     17 N          -3.2824   -0.1746    0.0202 N.ar    1  LIG1       -0.3504
     18 H          -3.1747    0.7888    0.3461 H       1  LIG1        0.1660
     19 N          -1.1119   -4.1991   -1.0775 N.1     1  LIG1       -0.1907
     20 C          -1.8282   -3.3283   -0.8463 C.1     1  LIG1        0.1032
     21 N          -4.9462   -3.1989   -0.9825 N.pl3   1  LIG1       -0.3553
     22 H          -5.5996   -2.9225   -1.7092 H       1  LIG1        0.1424
     23 H          -4.4352   -4.0252   -1.2723 H       1  LIG1        0.1424
     24 C          -6.0356    1.0960   -0.3919 C.ar    1  LIG1        0.0616
     25 C          -7.3275    1.6076   -0.2821 C.ar    1  LIG1       -0.0328
     26 C          -5.7834   -0.2696   -0.1652 C.ar    1  LIG1        0.0193
     27 C          -8.4010    0.7806    0.0263 C.ar    1  LIG1        0.0215
     28 H          -7.4914    2.6665   -0.4347 H       1  LIG1        0.0638
     29 C          -6.8656   -1.0955    0.1398 C.ar    1  LIG1       -0.0300
     30 C          -8.1658   -0.5977    0.2201 C.ar    1  LIG1        0.0345
     31 H          -6.6798   -2.1486    0.3188 H       1  LIG1        0.0643
     32 N          -4.1040    2.7229   -0.9897 N.1     1  LIG1       -0.1908
     33 C          -4.9656    2.0067   -0.7360 C.1     1  LIG1        0.0998
     34 N          -9.2253   -1.4482    0.5473 N.pl3   1  LIG1       -0.3574
     35 H         -10.0806   -1.2567    0.0366 H       1  LIG1        0.1423
     36 H          -8.9849   -2.4304    0.5266 H       1  LIG1        0.1423
     37 C          -9.7495    1.3573    0.1793 C.ar    1  LIG1        0.0677
     38 C         -10.3564    2.4182   -0.4817 C.ar    1  LIG1        0.0976
     39 C         -11.6439    2.6296    0.0997 C.ar    1  LIG1        0.0603
     40 C         -11.7784    1.6866    1.0907 C.ar    1  LIG1        0.0243
     41 N         -10.6325    0.9285    1.1111 N.ar    1  LIG1       -0.3579
     42 H         -10.4250    0.1770    1.7557 H       1  LIG1        0.1654
     43 H         -12.5891    1.5062    1.7734 H       1  LIG1        0.0826
     44 N          -9.4164    3.7778   -2.4620 N.1     1  LIG1       -0.1907
     45 C          -9.8210    3.1611   -1.5801 C.1     1  LIG1        0.1031
     46 N         -12.5395    3.6394   -0.2612 N.pl3   1  LIG1       -0.3558
     47 H         -12.3081    4.0762   -1.1449 H       1  LIG1        0.1424
     48 H         -13.5096    3.3559   -0.2376 H       1  LIG1        0.1424
@<TRIPOS>BOND
     1    44    45    3
     2    22    21    1
     3    45    38    1
     4    23    21    1
     5    47    46    1
     6    19    20    3
     7    32    33    3
     8    21    15    1
     9    20    14    1
    10    33    24    1
    11    15    14   ar
    12    15    16   ar
    13    14    13   ar
    14    38    39   ar
    15    38    37   ar
    16    28    25    1
    17    24    25   ar
    18    24    26   ar
    19    12    10    1
    20    25    27   ar
    21    46    48    1
    22    46    39    1
    23    16    26    1
    24    16    17   ar
    25     6     5    1
    26    26    29   ar
    27    13    17   ar
    28    13     4    1
    29     5     4   ar
    30     5     1   ar
    31    17    18    1
    32    27    37    1
    33    27    30   ar
    34    35    34    1
    35     4     3   ar
    36    39    40   ar
    37    29    30   ar
    38    29    31    1
    39    37    41   ar
    40    30    34    1
    41     7     1    1
    42     1     2   ar
    43     3     2   ar
    44     3    10    1
    45     2     9    1
    46    36    34    1
    47    10    11    1
    48     9     8    3
    49    40    41   ar
    50    40    43    1
    51    41    42    1
