@<TRIPOS>MOLECULE
mol_data/opt/m06hf/geoms/mol2/13dh6ie-13al-4fd.out
 51 54 0 0 0
SMALL
GASTEIGER

@<TRIPOS>ATOM
      1 C           1.1348    0.0286    1.1772 C.ar    1  LIG1        0.0215
      2 C           0.9481    0.9531    0.1678 C.ar    1  LIG1        0.0902
      3 C          -0.3750    0.7802   -0.3432 C.ar    1  LIG1        0.0678
      4 C          -0.9441   -0.2513    0.3719 C.ar    1  LIG1        0.0705
      5 N           0.0003   -0.6883    1.2824 N.ar    1  LIG1       -0.3579
      6 H          -0.1684   -1.4030    1.9721 H       1  LIG1        0.1654
      7 H           1.9930   -0.1466    1.8017 H       1  LIG1        0.0820
      8 N           2.6125    2.7021   -0.7389 N.1     1  LIG1       -0.1908
      9 C           1.8922    1.9147   -0.3128 C.1     1  LIG1        0.1025
     10 N          -0.9793    1.5501   -1.3406 N.pl3   1  LIG1       -0.3553
     11 H          -0.3139    2.1072   -1.8630 H       1  LIG1        0.1424
     12 H          -1.5717    1.0095   -1.9599 H       1  LIG1        0.1424
     13 C          -2.6011   -2.1677    0.2582 C.ar    1  LIG1        0.0482
     14 C          -2.3111   -0.7907    0.2769 C.ar    1  LIG1        0.0223
     15 C          -3.3805    0.0954    0.1726 C.ar    1  LIG1       -0.0333
     16 C          -4.6877   -0.3791    0.0716 C.ar    1  LIG1        0.0527
     17 C          -4.8853   -1.7713    0.0949 C.ar    1  LIG1        0.1028
     18 N          -3.8484   -2.6131    0.1803 N.ar    1  LIG1       -0.2485
     19 H          -3.1939    1.1629    0.1650 H       1  LIG1        0.0637
     20 C          -1.5187   -3.2274    0.3117 C.3     1  LIG1       -0.0217
     21 H          -1.2729   -3.4732    1.3486 H       1  LIG1        0.0293
     22 H          -0.6172   -2.8873   -0.1975 H       1  LIG1        0.0293
     23 H          -1.9021   -4.1271   -0.1640 H       1  LIG1        0.0293
     24 C          -5.7614    0.5743   -0.0452 C.1     1  LIG1       -0.0675
     25 C          -6.6045    1.4256   -0.1429 C.1     1  LIG1       -0.1138
     26 H          -7.3542    2.1777   -0.2324 H       1  LIG1        0.1232
     27 C          -6.1932   -2.4321    0.0162 C.ar    1  LIG1        0.0702
     28 C          -7.5092   -1.9872   -0.0329 C.ar    1  LIG1        0.0076
     29 C          -8.3196   -3.1472   -0.0626 C.ar    1  LIG1        0.1460
     30 C          -7.4875   -4.2570   -0.0292 C.ar    1  LIG1        0.0927
     31 N          -6.2097   -3.7892    0.0079 N.ar    1  LIG1       -0.3499
     32 H          -5.3588   -4.3278    0.0988 H       1  LIG1        0.1661
     33 H          -7.8242   -0.9602   -0.0485 H       1  LIG1        0.0676
     34 O          -9.6675   -3.2445   -0.1568 O.3     1  LIG1       -0.4930
     35 C         -10.3635   -2.0142   -0.1473 C.3     1  LIG1        0.0789
     36 H         -11.4200   -2.2612   -0.2100 H       1  LIG1        0.0660
     37 H         -10.1630   -1.4675    0.7780 H       1  LIG1        0.0660
     38 H         -10.0749   -1.4029   -1.0070 H       1  LIG1        0.0660
     39 C          -8.7462   -6.2730    0.7558 C.ar    1  LIG1        0.1261
     40 C          -9.0280   -7.6382    0.6793 C.ar    1  LIG1       -0.0183
     41 C          -7.7939   -5.6943   -0.1010 C.ar    1  LIG1        0.0445
     42 C          -8.3542   -8.4446   -0.2259 C.ar    1  LIG1       -0.0409
     43 H          -9.7660   -8.0703    1.3445 H       1  LIG1        0.0655
     44 C          -7.1252   -6.5128   -1.0059 C.ar    1  LIG1       -0.0316
     45 C          -7.3941   -7.8811   -1.0654 C.ar    1  LIG1        0.0526
     46 H          -6.4037   -6.0765   -1.6847 H       1  LIG1        0.0638
     47 H          -8.5663   -9.5032   -0.2825 H       1  LIG1        0.0631
     48 O          -9.3420   -5.4690    1.6583 O.3     1  LIG1       -0.5061
     49 H         -10.0111   -5.9474    2.1585 H       1  LIG1        0.2922
     50 N          -6.1183   -9.3698   -2.7660 N.1     1  LIG1       -0.1909
     51 C          -6.6844   -8.7119   -2.0146 C.1     1  LIG1        0.0992
@<TRIPOS>BOND
     1    50    51    3
     2    51    45    1
     3    12    10    1
     4    11    10    1
     5    46    44    1
     6    10     3    1
     7    45    44   ar
     8    45    42   ar
     9    38    35    1
    10    44    41   ar
    11     8     9    3
    12     3     2   ar
    13     3     4   ar
    14     9     2    1
    15    47    42    1
    16    26    25    1
    17    42    40   ar
    18    36    35    1
    19    22    20    1
    20    23    20    1
    21    34    35    1
    22    34    29    1
    23    35    37    1
    24    25    24    3
    25    41    30    1
    26    41    39   ar
    27    29    28   ar
    28    29    30   ar
    29    33    28    1
    30    24    16    1
    31    28    27   ar
    32    30    31   ar
    33    31    27   ar
    34    31    32    1
    35    27    17    1
    36    16    17   ar
    37    16    15   ar
    38    17    18   ar
    39    19    15    1
    40     2     1   ar
    41    15    14   ar
    42    18    13   ar
    43    13    14   ar
    44    13    20    1
    45    14     4    1
    46    20    21    1
    47     4     5   ar
    48    40    39   ar
    49    40    43    1
    50    39    48    1
    51     1     5   ar
    52     1     7    1
    53     5     6    1
    54    48    49    1
