@<TRIPOS>MOLECULE
mol_data/opt/m06hf/geoms/mol2/13di13di13di-13di.out
 50 53 0 0 0
SMALL
GASTEIGER

@<TRIPOS>ATOM
      1 C           1.2422   -0.2652   -0.2433 C.ar    1  LIG1        0.0199
      2 C           0.9037    0.9267    0.3629 C.ar    1  LIG1        0.0725
      3 C          -0.5186    0.9861    0.4933 C.ar    1  LIG1       -0.0064
      4 C          -0.9840   -0.1883   -0.0525 C.ar    1  LIG1        0.0684
      5 N           0.0931   -0.9322   -0.4865 N.ar    1  LIG1       -0.3581
      6 H           0.0225   -1.8130   -0.9770 H       1  LIG1        0.1654
      7 H           2.2071   -0.6605   -0.5086 H       1  LIG1        0.0820
      8 N           2.5554    2.7311    1.1918 N.1     1  LIG1       -0.1908
      9 C           1.8295    1.9251    0.8152 C.1     1  LIG1        0.1009
     10 C          -1.3138    2.0980    1.1270 C.3     1  LIG1       -0.0364
     11 H          -2.2446    1.7058    1.5374 H       1  LIG1        0.0279
     12 H          -1.5591    2.8622    0.3886 H       1  LIG1        0.0279
     13 H          -0.7311    2.5520    1.9283 H       1  LIG1        0.0279
     14 C          -2.3387   -0.7137   -0.1873 C.ar    1  LIG1        0.0815
     15 C          -3.5329   -0.1206   -0.5697 C.ar    1  LIG1        0.0819
     16 C          -4.5513   -1.1197   -0.5996 C.ar    1  LIG1       -0.0057
     17 C          -3.9269   -2.2936   -0.2312 C.ar    1  LIG1        0.0688
     18 N          -2.6043   -2.0242    0.0186 N.ar    1  LIG1       -0.3506
     19 H          -1.9338   -2.6942    0.3712 H       1  LIG1        0.1660
     20 N          -3.8297    2.3441   -1.2787 N.1     1  LIG1       -0.1908
     21 C          -3.6889    1.2493   -0.9601 C.1     1  LIG1        0.1016
     22 C          -5.9888   -0.9154   -1.0097 C.3     1  LIG1       -0.0364
     23 H          -6.6380   -0.7946   -0.1402 H       1  LIG1        0.0279
     24 H          -6.3474   -1.7614   -1.5982 H       1  LIG1        0.0279
     25 H          -6.0671   -0.0141   -1.6167 H       1  LIG1        0.0279
     26 C          -4.4191   -3.6616   -0.1537 C.ar    1  LIG1        0.0815
     27 C          -3.7227   -4.8569   -0.2927 C.ar    1  LIG1        0.0819
     28 C          -4.6406   -5.9381   -0.1656 C.ar    1  LIG1       -0.0057
     29 C          -5.8713   -5.3543    0.0547 C.ar    1  LIG1        0.0688
     30 N          -5.7111   -3.9884    0.0599 N.ar    1  LIG1       -0.3506
     31 H          -6.4572   -3.3205    0.2158 H       1  LIG1        0.1660
     32 N          -1.1778   -4.8932   -0.7161 N.1     1  LIG1       -0.1908
     33 C          -2.3147   -4.9223   -0.5419 C.1     1  LIG1        0.1016
     34 C          -4.3015   -7.4028   -0.2911 C.3     1  LIG1       -0.0364
     35 H          -3.3383   -7.5121   -0.7885 H       1  LIG1        0.0279
     36 H          -5.0538   -7.9192   -0.8902 H       1  LIG1        0.0279
     37 H          -4.2248   -7.8777    0.6904 H       1  LIG1        0.0279
     38 C          -7.1862   -5.9537    0.2543 C.ar    1  LIG1        0.0810
     39 C          -8.4513   -5.3942    0.1551 C.ar    1  LIG1        0.0813
     40 C          -9.4223   -6.4005    0.4511 C.ar    1  LIG1       -0.0151
     41 C          -8.7051   -7.5353    0.7188 C.ar    1  LIG1        0.0064
     42 N          -7.3674   -7.2528    0.5986 N.ar    1  LIG1       -0.3582
     43 H          -6.6168   -7.8965    0.7939 H       1  LIG1        0.1654
     44 H          -9.0458   -8.5202    0.9874 H       1  LIG1        0.0810
     45 N          -8.8290   -2.9075   -0.4213 N.1     1  LIG1       -0.1908
     46 C          -8.6957   -4.0238   -0.1758 C.1     1  LIG1        0.1016
     47 C         -10.9181   -6.2197    0.4532 C.3     1  LIG1       -0.0371
     48 H         -11.4061   -7.1544    0.7250 H       1  LIG1        0.0278
     49 H         -11.2641   -5.9156   -0.5351 H       1  LIG1        0.0278
     50 H         -11.2050   -5.4501    1.1707 H       1  LIG1        0.0278
@<TRIPOS>BOND
     1    25    22    1
     2    24    22    1
     3    20    21    3
     4    22    16    1
     5    22    23    1
     6     6     5    1
     7    21    15    1
     8    36    34    1
     9    35    34    1
    10    32    33    3
    11    16    15   ar
    12    16    17   ar
    13    15    14   ar
    14    33    27    1
    15    49    47    1
    16     7     1    1
    17     5     1   ar
    18     5     4   ar
    19    45    46    3
    20    27    28   ar
    21    27    26   ar
    22    34    28    1
    23    34    37    1
    24     1     2   ar
    25    17    26    1
    26    17    18   ar
    27    14     4    1
    28    14    18   ar
    29    46    39    1
    30    28    29   ar
    31    26    30   ar
    32     4     3   ar
    33    18    19    1
    34    29    30   ar
    35    29    38    1
    36    30    31    1
    37    39    38   ar
    38    39    40   ar
    39    38    42   ar
    40     2     3   ar
    41     2     9    1
    42    12    10    1
    43    40    47    1
    44    40    41   ar
    45    47    48    1
    46    47    50    1
    47     3    10    1
    48    42    41   ar
    49    42    43    1
    50    41    44    1
    51     9     8    3
    52    10    11    1
    53    10    13    1
