@<TRIPOS>MOLECULE
mol_data/opt/m06hf/geoms/mol2/13di13di-13di13di-.out
 50 53 0 0 0
SMALL
GASTEIGER

@<TRIPOS>ATOM
      1 C           1.3242   -0.3388    0.0108 C.ar    1  LIG1        0.0199
      2 C           0.9204    0.9529   -0.2626 C.ar    1  LIG1        0.0725
      3 C          -0.5046    0.9871   -0.2773 C.ar    1  LIG1       -0.0064
      4 C          -0.9087   -0.3059   -0.0052 C.ar    1  LIG1        0.0684
      5 N           0.2119   -1.0845    0.1630 N.ar    1  LIG1       -0.3581
      6 H           0.1998   -2.0761    0.3657 H       1  LIG1        0.1654
      7 H           2.3131   -0.7525    0.1021 H       1  LIG1        0.0820
      8 N           2.4498    2.9909   -0.6831 N.1     1  LIG1       -0.1908
      9 C           1.7836    2.0745   -0.4949 C.1     1  LIG1        0.1009
     10 C          -1.3518    2.2064   -0.5471 C.3     1  LIG1       -0.0364
     11 H          -1.9049    2.5174    0.3425 H       1  LIG1        0.0279
     12 H          -2.0564    2.0221   -1.3620 H       1  LIG1        0.0279
     13 H          -0.7064    3.0328   -0.8426 H       1  LIG1        0.0279
     14 C          -2.2490   -0.8685    0.1038 C.ar    1  LIG1        0.0815
     15 C          -2.6726   -2.1869    0.2422 C.ar    1  LIG1        0.0819
     16 C          -4.0936   -2.2119    0.3110 C.ar    1  LIG1       -0.0057
     17 C          -4.4891   -0.8945    0.2060 C.ar    1  LIG1        0.0688
     18 N          -3.3657   -0.1087    0.0842 N.ar    1  LIG1       -0.3506
     19 H          -3.3702    0.9019    0.0249 H       1  LIG1        0.1660
     20 N          -1.0465   -4.1842    0.3875 N.1     1  LIG1       -0.1908
     21 C          -1.7957   -3.3139    0.3179 C.1     1  LIG1        0.1016
     22 C          -4.9469   -3.4459    0.4759 C.3     1  LIG1       -0.0364
     23 H          -4.3137   -4.2882    0.7524 H       1  LIG1        0.0279
     24 H          -5.4636   -3.7044   -0.4513 H       1  LIG1        0.0279
     25 H          -5.6849   -3.3032    1.2684 H       1  LIG1        0.0279
     26 C          -5.8218   -0.3092    0.2183 C.ar    1  LIG1        0.0815
     27 C          -6.2276    1.0142    0.3484 C.ar    1  LIG1        0.0819
     28 C          -7.6492    1.0669    0.2926 C.ar    1  LIG1       -0.0057
     29 C          -8.0631   -0.2396    0.1351 C.ar    1  LIG1        0.0688
     30 N          -6.9491   -1.0443    0.0907 N.ar    1  LIG1       -0.3506
     31 H          -6.9693   -2.0430   -0.0773 H       1  LIG1        0.1660
     32 N          -4.5849    2.9879    0.5929 N.1     1  LIG1       -0.1908
     33 C          -5.3373    2.1230    0.4949 C.1     1  LIG1        0.1016
     34 C          -8.4827    2.3214    0.3782 C.3     1  LIG1       -0.0364
     35 H          -9.0206    2.3749    1.3283 H       1  LIG1        0.0279
     36 H          -9.1917    2.3721   -0.4511 H       1  LIG1        0.0279
     37 H          -7.8325    3.1936    0.3187 H       1  LIG1        0.0279
     38 C          -9.4030   -0.8042    0.0167 C.ar    1  LIG1        0.0810
     39 C          -9.8145   -2.0839   -0.3294 C.ar    1  LIG1        0.0813
     40 C         -11.2428   -2.1314   -0.3005 C.ar    1  LIG1       -0.0151
     41 C         -11.6443   -0.8749    0.0634 C.ar    1  LIG1        0.0064
     42 N         -10.5329   -0.0910    0.2504 N.ar    1  LIG1       -0.3582
     43 H         -10.5447    0.8688    0.5559 H       1  LIG1        0.1654
     44 H         -12.6356   -0.4803    0.2048 H       1  LIG1        0.0810
     45 N          -8.1524   -3.9757   -0.8891 N.1     1  LIG1       -0.1908
     46 C          -8.9221   -3.1540   -0.6505 C.1     1  LIG1        0.1016
     47 C         -12.0995   -3.3308   -0.6125 C.3     1  LIG1       -0.0371
     48 H         -11.8940   -4.1376    0.0919 H       1  LIG1        0.0278
     49 H         -11.8921   -3.6919   -1.6202 H       1  LIG1        0.0278
     50 H         -13.1531   -3.0638   -0.5442 H       1  LIG1        0.0278
@<TRIPOS>BOND
     1    49    47    1
     2    12    10    1
     3    45    46    3
     4    13    10    1
     5     8     9    3
     6    46    39    1
     7    47    50    1
     8    47    40    1
     9    47    48    1
    10    10     3    1
    11    10    11    1
    12     9     2    1
    13    24    22    1
    14    36    34    1
    15    39    40   ar
    16    39    38   ar
    17    40    41   ar
    18     3     2   ar
    19     3     4   ar
    20     2     1   ar
    21    31    30    1
    22     4    14    1
    23     4     5   ar
    24     1     7    1
    25     1     5   ar
    26    38    29    1
    27    38    42   ar
    28    19    18    1
    29    41    44    1
    30    41    42   ar
    31    18    14   ar
    32    18    17   ar
    33    30    29   ar
    34    30    26   ar
    35    14    15   ar
    36    29    28   ar
    37     5     6    1
    38    17    26    1
    39    17    16   ar
    40    26    27   ar
    41    15    16   ar
    42    15    21    1
    43    42    43    1
    44    28    27   ar
    45    28    34    1
    46    16    22    1
    47    21    20    3
    48    37    34    1
    49    27    33    1
    50    34    35    1
    51    22    23    1
    52    22    25    1
    53    33    32    3
