@<TRIPOS>MOLECULE
mol_data/opt/m06hf/geoms/mol2/13di13di-.out
 26 27 0 0 0
SMALL
GASTEIGER

@<TRIPOS>ATOM
      1 C           1.2000   -0.3647   -0.0223 C.ar    1  LIG1        0.0199
      2 C           0.8208    0.9618    0.0036 C.ar    1  LIG1        0.0725
      3 C          -0.6035    1.0218    0.0167 C.ar    1  LIG1       -0.0064
      4 C          -1.0342   -0.2903   -0.0022 C.ar    1  LIG1        0.0684
      5 N           0.0725   -1.1042   -0.0256 N.ar    1  LIG1       -0.3581
      6 H           0.0409   -2.1164   -0.0427 H       1  LIG1        0.1654
      7 H           2.1801   -0.8076   -0.0382 H       1  LIG1        0.0820
      8 N           2.3678    3.0291    0.0260 N.1     1  LIG1       -0.1908
      9 C           1.6982    2.0959    0.0156 C.1     1  LIG1        0.1009
     10 C          -1.4218    2.2894    0.0456 C.3     1  LIG1       -0.0364
     11 H          -2.0395    2.3385    0.9460 H       1  LIG1        0.0279
     12 H          -2.0542    2.3696   -0.8423 H       1  LIG1        0.0279
     13 H          -0.7523    3.1489    0.0550 H       1  LIG1        0.0279
     14 C          -2.3846   -0.8454   -0.0004 C.ar    1  LIG1        0.0810
     15 C          -2.8248   -2.1617   -0.0190 C.ar    1  LIG1        0.0813
     16 C          -4.2545   -2.1696   -0.0073 C.ar    1  LIG1       -0.0151
     17 C          -4.6285   -0.8538    0.0180 C.ar    1  LIG1        0.0064
     18 N          -3.4995   -0.0729    0.0219 N.ar    1  LIG1       -0.3582
     19 H          -3.4910    0.9341    0.0388 H       1  LIG1        0.1654
     20 H          -5.6105   -0.4139    0.0335 H       1  LIG1        0.0810
     21 N          -1.2181   -4.1796   -0.0665 N.1     1  LIG1       -0.1908
     22 C          -1.9614   -3.3015   -0.0454 C.1     1  LIG1        0.1016
     23 C          -5.1375   -3.3903   -0.0206 C.3     1  LIG1       -0.0371
     24 H          -4.9376   -4.0124    0.8523 H       1  LIG1        0.0278
     25 H          -4.9512   -3.9832   -0.9166 H       1  LIG1        0.0278
     26 H          -6.1848   -3.0917   -0.0076 H       1  LIG1        0.0278
@<TRIPOS>BOND
     1    25    23    1
     2    12    10    1
     3    21    22    3
     4    22    15    1
     5     6     5    1
     6     7     1    1
     7     5     1   ar
     8     5     4   ar
     9     1     2   ar
    10    23    26    1
    11    23    16    1
    12    23    24    1
    13    15    16   ar
    14    15    14   ar
    15    16    17   ar
    16     4    14    1
    17     4     3   ar
    18    14    18   ar
    19     2     9    1
    20     2     3   ar
    21     9     8    3
    22     3    10    1
    23    17    18   ar
    24    17    20    1
    25    18    19    1
    26    10    13    1
    27    10    11    1
