@<TRIPOS>MOLECULE
mol_data/opt/m06hf/geoms/mol2/13di13di-13di.out
 38 40 0 0 0
SMALL
GASTEIGER

@<TRIPOS>ATOM
      1 C           1.2578   -0.3421    0.1608 C.ar    1  LIG1        0.0199
      2 C           0.8602    0.9678   -0.0180 C.ar    1  LIG1        0.0725
      3 C          -0.5624    1.0006   -0.1070 C.ar    1  LIG1       -0.0064
      4 C          -0.9713   -0.3124    0.0264 C.ar    1  LIG1        0.0684
      5 N           0.1439   -1.1007    0.1859 N.ar    1  LIG1       -0.3581
      6 H           0.1288   -2.1064    0.3002 H       1  LIG1        0.1654
      7 H           2.2427   -0.7618    0.2683 H       1  LIG1        0.0820
      8 N           2.4038    3.0322   -0.1747 N.1     1  LIG1       -0.1908
      9 C           1.7293    2.1055   -0.1034 C.1     1  LIG1        0.1009
     10 C          -1.4024    2.2375   -0.3106 C.3     1  LIG1       -0.0364
     11 H          -2.0157    2.4570    0.5667 H       1  LIG1        0.0279
     12 H          -2.0511    2.1316   -1.1839 H       1  LIG1        0.0279
     13 H          -0.7475    3.0912   -0.4814 H       1  LIG1        0.0279
     14 C          -2.3104   -0.8879    0.0136 C.ar    1  LIG1        0.0815
     15 C          -2.7280   -2.2145    0.0356 C.ar    1  LIG1        0.0819
     16 C          -4.1513   -2.2497    0.0222 C.ar    1  LIG1       -0.0057
     17 C          -4.5544   -0.9320   -0.0179 C.ar    1  LIG1        0.0688
     18 N          -3.4332   -0.1354   -0.0198 N.ar    1  LIG1       -0.3506
     19 H          -3.4480    0.8774   -0.0004 H       1  LIG1        0.1660
     20 N          -1.1083   -4.2204    0.1264 N.1     1  LIG1       -0.1908
     21 C          -1.8510   -3.3428    0.0798 C.1     1  LIG1        0.1016
     22 C          -4.9972   -3.4982    0.0656 C.3     1  LIG1       -0.0364
     23 H          -4.3813   -4.3438    0.3695 H       1  LIG1        0.0279
     24 H          -5.4150   -3.7290   -0.9181 H       1  LIG1        0.0279
     25 H          -5.8052   -3.3899    0.7920 H       1  LIG1        0.0279
     26 C          -5.8921   -0.3514   -0.0504 C.ar    1  LIG1        0.0810
     27 C          -6.3161    0.9522    0.1636 C.ar    1  LIG1        0.0813
     28 C          -7.7372    1.0042    0.0119 C.ar    1  LIG1       -0.0151
     29 C          -8.1212   -0.2741   -0.2893 C.ar    1  LIG1        0.0064
     30 N          -7.0064   -1.0746   -0.3247 N.ar    1  LIG1       -0.3582
     31 H          -7.0014   -2.0512   -0.5731 H       1  LIG1        0.1654
     32 H          -9.1011   -0.6752   -0.4829 H       1  LIG1        0.0810
     33 N          -4.6869    2.8827    0.6871 N.1     1  LIG1       -0.1908
     34 C          -5.4405    2.0412    0.4675 C.1     1  LIG1        0.1016
     35 C          -8.6025    2.2280    0.1642 C.3     1  LIG1       -0.0371
     36 H          -9.6476    1.9678    0.0033 H       1  LIG1        0.0278
     37 H          -8.3128    2.9892   -0.5611 H       1  LIG1        0.0278
     38 H          -8.4928    2.6468    1.1649 H       1  LIG1        0.0278
@<TRIPOS>BOND
     1    12    10    1
     2    24    22    1
     3    31    30    1
     4    37    35    1
     5    32    29    1
     6    13    10    1
     7    30    29   ar
     8    30    26   ar
     9    10     3    1
    10    10    11    1
    11    29    28   ar
    12     8     9    3
    13     3     2   ar
    14     3     4   ar
    15     9     2    1
    16    26    17    1
    17    26    27   ar
    18    18    17   ar
    19    18    19    1
    20    18    14   ar
    21     2     1   ar
    22    17    16   ar
    23    36    35    1
    24    28    27   ar
    25    28    35    1
    26    14     4    1
    27    14    15   ar
    28    16    15   ar
    29    16    22    1
    30     4     5   ar
    31    15    21    1
    32    22    23    1
    33    22    25    1
    34    21    20    3
    35     1     5   ar
    36     1     7    1
    37    27    34    1
    38    35    38    1
    39     5     6    1
    40    34    33    3
