@<TRIPOS>MOLECULE
mol_data/opt/m06hf/geoms/mol2/13di13di13di13di.out
 50 53 0 0 0
SMALL
GASTEIGER

@<TRIPOS>ATOM
      1 C           0.4335    0.4972   -2.3027 C.ar    1  LIG1        0.0199
      2 C           0.6870    1.1470   -1.1136 C.ar    1  LIG1        0.0725
      3 C          -0.3571    0.8309   -0.1899 C.ar    1  LIG1       -0.0064
      4 C          -1.2067   -0.0102   -0.8688 C.ar    1  LIG1        0.0684
      5 N          -0.7113   -0.2037   -2.1409 N.ar    1  LIG1       -0.3581
      6 H          -1.1999   -0.6938   -2.8748 H       1  LIG1        0.1654
      7 H           0.9833    0.5009   -3.2274 H       1  LIG1        0.0820
      8 N           2.7338    2.6369   -0.5994 N.1     1  LIG1       -0.1908
      9 C           1.8246    1.9781   -0.8402 C.1     1  LIG1        0.1009
     10 C          -0.4786    1.3252    1.2277 C.3     1  LIG1       -0.0364
     11 H          -1.1293    0.6639    1.7997 H       1  LIG1        0.0279
     12 H          -0.9090    2.3273    1.2393 H       1  LIG1        0.0279
     13 H           0.5061    1.3571    1.6936 H       1  LIG1        0.0279
     14 C          -2.4417   -0.6559   -0.4239 C.ar    1  LIG1        0.0815
     15 C          -3.5724   -0.1186    0.1664 C.ar    1  LIG1        0.0819
     16 C          -4.5133   -1.1662    0.3985 C.ar    1  LIG1       -0.0057
     17 C          -3.9107   -2.3133   -0.0657 C.ar    1  LIG1        0.0688
     18 N          -2.6658   -1.9887   -0.5551 N.ar    1  LIG1       -0.3506
     19 H          -2.0126   -2.6414   -0.9617 H       1  LIG1        0.1660
     20 N          -3.8881    2.3778    0.7451 N.1     1  LIG1       -0.1908
     21 C          -3.7479    1.2700    0.4774 C.1     1  LIG1        0.1016
     22 C          -5.8819   -1.0239    1.0107 C.3     1  LIG1       -0.0364
     23 H          -6.2195   -1.9861    1.3957 H       1  LIG1        0.0279
     24 H          -6.5954   -0.6826    0.2597 H       1  LIG1        0.0279
     25 H          -5.8489   -0.2991    1.8239 H       1  LIG1        0.0279
     26 C          -4.4110   -3.6883   -0.0902 C.ar    1  LIG1        0.0815
     27 C          -5.5861   -4.1973   -0.6147 C.ar    1  LIG1        0.0819
     28 C          -5.6140   -5.6077   -0.3999 C.ar    1  LIG1       -0.0057
     29 C          -4.4387   -5.9053    0.2529 C.ar    1  LIG1        0.0688
     30 N          -3.7282   -4.7401    0.4309 N.ar    1  LIG1       -0.3506
     31 H          -2.8293   -4.6758    0.8847 H       1  LIG1        0.1660
     32 N          -7.4014   -2.7741   -1.7756 N.1     1  LIG1       -0.1908
     33 C          -6.5907   -3.4083   -1.2663 C.1     1  LIG1        0.1016
     34 C          -6.7068   -6.5569   -0.8166 C.3     1  LIG1       -0.0364
     35 H          -6.6725   -7.4573   -0.2036 H       1  LIG1        0.0279
     36 H          -6.5782   -6.8443   -1.8607 H       1  LIG1        0.0279
     37 H          -7.6768   -6.0746   -0.6974 H       1  LIG1        0.0279
     38 C          -3.9266   -7.1928    0.7239 C.ar    1  LIG1        0.0810
     39 C          -3.7756   -8.3901    0.0507 C.ar    1  LIG1        0.0813
     40 C          -3.2359   -9.3568    0.9558 C.ar    1  LIG1       -0.0151
     41 C          -3.0759   -8.6998    2.1478 C.ar    1  LIG1        0.0064
     42 N          -3.4899   -7.4015    1.9958 N.ar    1  LIG1       -0.3582
     43 H          -3.5761   -6.7266    2.7404 H       1  LIG1        0.1654
     44 H          -2.7040   -9.0606    3.0913 H       1  LIG1        0.0810
     45 N          -4.3397   -8.7628   -2.4415 N.1     1  LIG1       -0.1908
     46 C          -4.0858   -8.5930   -1.3343 C.1     1  LIG1        0.1016
     47 C          -2.9064  -10.7913    0.6320 C.3     1  LIG1       -0.0371
     48 H          -2.5303  -11.2981    1.5197 H       1  LIG1        0.0278
     49 H          -2.1480  -10.8378   -0.1501 H       1  LIG1        0.0278
     50 H          -3.7965  -11.3121    0.2781 H       1  LIG1        0.0278
@<TRIPOS>BOND
     1     7     1    1
     2     6     5    1
     3    45    46    3
     4     1     5   ar
     5     1     2   ar
     6     5     4   ar
     7    36    34    1
     8    32    33    3
     9    46    39    1
    10    33    27    1
    11     2     9    1
    12     2     3   ar
    13    19    18    1
    14     4    14    1
    15     4     3   ar
    16     9     8    3
    17    34    37    1
    18    34    28    1
    19    34    35    1
    20    27    28   ar
    21    27    26   ar
    22    18    14   ar
    23    18    17   ar
    24    14    15   ar
    25    28    29   ar
    26     3    10    1
    27    49    47    1
    28    26    17    1
    29    26    30   ar
    30    17    16   ar
    31    39    38   ar
    32    39    40   ar
    33    15    16   ar
    34    15    21    1
    35    29    30   ar
    36    29    38    1
    37    24    22    1
    38    50    47    1
    39    16    22    1
    40    30    31    1
    41    21    20    3
    42    47    40    1
    43    47    48    1
    44    38    42   ar
    45    40    41   ar
    46    22    23    1
    47    22    25    1
    48    10    12    1
    49    10    13    1
    50    10    11    1
    51    42    41   ar
    52    42    43    1
    53    41    44    1
