@<TRIPOS>MOLECULE
mol_data/opt/m06hf/geoms/mol2/13di13di-13di-13di.out
 50 53 0 0 0
SMALL
GASTEIGER

@<TRIPOS>ATOM
      1 C           1.2424   -0.3504   -0.3032 C.ar    1  LIG1        0.0199
      2 C           0.8217    0.9524   -0.4822 C.ar    1  LIG1        0.0725
      3 C          -0.5978    0.9898   -0.3549 C.ar    1  LIG1       -0.0064
      4 C          -0.9814   -0.3138   -0.1052 C.ar    1  LIG1        0.0684
      5 N           0.1459   -1.1004   -0.0788 N.ar    1  LIG1       -0.3581
      6 H           0.1503   -2.0953    0.1072 H       1  LIG1        0.1654
      7 H           2.2329   -0.7703   -0.3212 H       1  LIG1        0.0820
      8 N           2.3129    3.0067   -0.9564 N.1     1  LIG1       -0.1908
      9 C           1.6647    2.0825   -0.7449 C.1     1  LIG1        0.1009
     10 C          -1.4572    2.2257   -0.4613 C.3     1  LIG1       -0.0364
     11 H          -2.1355    2.3130    0.3892 H       1  LIG1        0.0279
     12 H          -2.0398    2.2308   -1.3867 H       1  LIG1        0.0279
     13 H          -0.8185    3.1083   -0.4729 H       1  LIG1        0.0279
     14 C          -2.3066   -0.8805    0.1101 C.ar    1  LIG1        0.0815
     15 C          -2.6961   -2.1430    0.5427 C.ar    1  LIG1        0.0819
     16 C          -4.1210   -2.2048    0.5808 C.ar    1  LIG1       -0.0057
     17 C          -4.5491   -0.9683    0.1594 C.ar    1  LIG1        0.0688
     18 N          -3.4464   -0.1852   -0.1142 N.ar    1  LIG1       -0.3506
     19 H          -3.4818    0.7390   -0.5227 H       1  LIG1        0.1660
     20 N          -1.0078   -3.9970    1.1486 N.1     1  LIG1       -0.1908
     21 C          -1.7853   -3.1884    0.8940 C.1     1  LIG1        0.1016
     22 C          -4.9515   -3.3795    1.0289 C.3     1  LIG1       -0.0364
     23 H          -4.4273   -3.9168    1.8190 H       1  LIG1        0.0279
     24 H          -5.1344   -4.0590    0.1959 H       1  LIG1        0.0279
     25 H          -5.9128   -3.0335    1.4088 H       1  LIG1        0.0279
     26 C          -5.8892   -0.4161    0.0001 C.ar    1  LIG1        0.0815
     27 C          -7.0597   -0.9501   -0.5180 C.ar    1  LIG1        0.0819
     28 C          -8.0623    0.0652   -0.5166 C.ar    1  LIG1       -0.0057
     29 C          -7.4557    1.1884    0.0059 C.ar    1  LIG1        0.0688
     30 N          -6.1579    0.8723    0.3171 N.ar    1  LIG1       -0.3506
     31 H          -5.5051    1.5023    0.7646 H       1  LIG1        0.1660
     32 N          -7.3587   -3.3236   -1.4863 N.1     1  LIG1       -0.1908
     33 C          -7.2108   -2.2704   -1.0521 C.1     1  LIG1        0.1016
     34 C          -9.4668   -0.0798   -1.0470 C.3     1  LIG1       -0.0364
     35 H          -9.5024   -0.9052   -1.7575 H       1  LIG1        0.0279
     36 H          -9.7752    0.8318   -1.5616 H       1  LIG1        0.0279
     37 H         -10.1717   -0.2999   -0.2418 H       1  LIG1        0.0279
     38 C          -7.9362    2.5524    0.1931 C.ar    1  LIG1        0.0810
     39 C          -7.2168    3.7381    0.2417 C.ar    1  LIG1        0.0813
     40 C          -8.1310    4.8195    0.4370 C.ar    1  LIG1       -0.0151
     41 C          -9.3722    4.2440    0.4950 C.ar    1  LIG1        0.0064
     42 N          -9.2397    2.8847    0.3492 N.ar    1  LIG1       -0.3582
     43 H          -9.9905    2.2139    0.4018 H       1  LIG1        0.1654
     44 H         -10.3379    4.6995    0.6330 H       1  LIG1        0.0810
     45 N          -4.6451    3.7315    0.0342 N.1     1  LIG1       -0.1908
     46 C          -5.7917    3.7908    0.1143 C.1     1  LIG1        0.1016
     47 C          -7.7766    6.2800    0.5443 C.3     1  LIG1       -0.0371
     48 H          -8.6790    6.8732    0.6837 H       1  LIG1        0.0278
     49 H          -7.2717    6.6147   -0.3622 H       1  LIG1        0.0278
     50 H          -7.1114    6.4472    1.3921 H       1  LIG1        0.0278
@<TRIPOS>BOND
     1    35    34    1
     2    36    34    1
     3    32    33    3
     4    12    10    1
     5    33    27    1
     6    34    28    1
     7    34    37    1
     8     8     9    3
     9     9     2    1
    10    19    18    1
    11    27    28   ar
    12    27    26   ar
    13    28    29   ar
    14     2     3   ar
    15     2     1   ar
    16    13    10    1
    17    10     3    1
    18    10    11    1
    19    49    47    1
    20     3     4   ar
    21     7     1    1
    22     1     5   ar
    23    18    14   ar
    24    18    17   ar
    25     4     5   ar
    26     4    14    1
    27     5     6    1
    28    26    17    1
    29    26    30   ar
    30    29    38    1
    31    29    30   ar
    32    45    46    3
    33    14    15   ar
    34    46    39    1
    35    17    16   ar
    36    38    39   ar
    37    38    42   ar
    38    24    22    1
    39    39    40   ar
    40    30    31    1
    41    42    43    1
    42    42    41   ar
    43    40    41   ar
    44    40    47    1
    45    41    44    1
    46    15    16   ar
    47    15    21    1
    48    47    48    1
    49    47    50    1
    50    16    22    1
    51    21    20    3
    52    22    25    1
    53    22    23    1
