@<TRIPOS>MOLECULE
mol_data/opt/m06hf/geoms/mol2/13di13di-13di-13di-.out
 50 53 0 0 0
SMALL
GASTEIGER

@<TRIPOS>ATOM
      1 C           1.3078   -0.4764   -0.6902 C.ar    1  LIG1        0.0199
      2 C           0.9139    0.8257   -0.9241 C.ar    1  LIG1        0.0725
      3 C          -0.4921    0.9151   -0.7087 C.ar    1  LIG1       -0.0064
      4 C          -0.8967   -0.3565   -0.3520 C.ar    1  LIG1        0.0684
      5 N           0.2069   -1.1748   -0.3487 N.ar    1  LIG1       -0.3581
      6 H           0.1952   -2.1563   -0.1006 H       1  LIG1        0.1654
      7 H           2.2823   -0.9295   -0.7451 H       1  LIG1        0.0820
      8 N           2.4188    2.8106   -1.6040 N.1     1  LIG1       -0.1908
      9 C           1.7660    1.9147   -1.3039 C.1     1  LIG1        0.1009
     10 C          -1.3190    2.1703   -0.8407 C.3     1  LIG1       -0.0364
     11 H          -1.9532    2.3106    0.0376 H       1  LIG1        0.0279
     12 H          -1.9380    2.1456   -1.7419 H       1  LIG1        0.0279
     13 H          -0.6554    3.0307   -0.9205 H       1  LIG1        0.0279
     14 C          -2.2200   -0.8635   -0.0098 C.ar    1  LIG1        0.0815
     15 C          -2.6129   -2.0754    0.5435 C.ar    1  LIG1        0.0819
     16 C          -4.0340   -2.0885    0.6755 C.ar    1  LIG1       -0.0057
     17 C          -4.4564   -0.8728    0.1940 C.ar    1  LIG1        0.0688
     18 N          -3.3537   -0.1488   -0.2100 N.ar    1  LIG1       -0.3506
     19 H          -3.3958    0.7189   -0.7230 H       1  LIG1        0.1660
     20 N          -0.9300   -3.9247    1.1789 N.1     1  LIG1       -0.1908
     21 C          -1.7060   -3.1181    0.9145 C.1     1  LIG1        0.1016
     22 C          -4.8715   -3.2072    1.2384 C.3     1  LIG1       -0.0364
     23 H          -4.3376   -3.6941    2.0543 H       1  LIG1        0.0279
     24 H          -5.0883   -3.9425    0.4627 H       1  LIG1        0.0279
     25 H          -5.8165   -2.8124    1.6114 H       1  LIG1        0.0279
     26 C          -5.8056   -0.3220    0.0869 C.ar    1  LIG1        0.0815
     27 C          -6.9590   -0.8757   -0.4413 C.ar    1  LIG1        0.0819
     28 C          -8.0219    0.0690   -0.3188 C.ar    1  LIG1       -0.0057
     29 C          -7.4651    1.1764    0.2806 C.ar    1  LIG1        0.0688
     30 N          -6.1329    0.9234    0.5182 N.ar    1  LIG1       -0.3506
     31 H          -5.4900    1.5710    0.9489 H       1  LIG1        0.1660
     32 N          -7.1125   -3.2332   -1.4832 N.1     1  LIG1       -0.1908
     33 C          -7.0408   -2.1820   -1.0265 C.1     1  LIG1        0.1016
     34 C          -9.4465   -0.1232   -0.7689 C.3     1  LIG1       -0.0364
     35 H          -9.7452   -1.1591   -0.6084 H       1  LIG1        0.0279
     36 H          -9.5427    0.1154   -1.8288 H       1  LIG1        0.0279
     37 H         -10.1073    0.5356   -0.2056 H       1  LIG1        0.0279
     38 C          -8.0784    2.4531    0.6468 C.ar    1  LIG1        0.0810
     39 C          -8.8514    3.3169   -0.1057 C.ar    1  LIG1        0.0813
     40 C          -9.2119    4.4343    0.7109 C.ar    1  LIG1       -0.0151
     41 C          -8.6340    4.2035    1.9314 C.ar    1  LIG1        0.0064
     42 N          -7.9536    3.0139    1.8805 N.ar    1  LIG1       -0.3582
     43 H          -7.5216    2.5565    2.6684 H       1  LIG1        0.1654
     44 H          -8.6596    4.7944    2.8308 H       1  LIG1        0.0810
     45 N          -9.4824    2.9611   -2.5844 N.1     1  LIG1       -0.1908
     46 C          -9.1952    3.1185   -1.4834 C.1     1  LIG1        0.1016
     47 C         -10.0451    5.6149    0.2833 C.3     1  LIG1       -0.0371
     48 H         -11.0328    5.2828   -0.0378 H       1  LIG1        0.0278
     49 H          -9.5691    6.1315   -0.5508 H       1  LIG1        0.0278
     50 H         -10.1593    6.3121    1.1123 H       1  LIG1        0.0278
@<TRIPOS>BOND
     1    45    46    3
     2    36    34    1
     3    12    10    1
     4     8     9    3
     5    46    39    1
     6    32    33    3
     7     9     2    1
     8    33    27    1
     9     2     3   ar
    10     2     1   ar
    11    13    10    1
    12    10     3    1
    13    10    11    1
    14    34    35    1
    15    34    28    1
    16    34    37    1
    17     7     1    1
    18    19    18    1
    19     3     4   ar
    20     1     5   ar
    21    49    47    1
    22    27    28   ar
    23    27    26   ar
    24     4     5   ar
    25     4    14    1
    26     5     6    1
    27    28    29   ar
    28    18    14   ar
    29    18    17   ar
    30    39    38   ar
    31    39    40   ar
    32    48    47    1
    33    14    15   ar
    34    26    17    1
    35    26    30   ar
    36    17    16   ar
    37    29    30   ar
    38    29    38    1
    39    47    40    1
    40    47    50    1
    41    24    22    1
    42    30    31    1
    43    15    16   ar
    44    15    21    1
    45    38    42   ar
    46    16    22    1
    47    40    41   ar
    48    21    20    3
    49    22    25    1
    50    22    23    1
    51    42    41   ar
    52    42    43    1
    53    41    44    1
