@<TRIPOS>MOLECULE
mol_data/opt/m06hf/geoms/mol2/13di13di13di-13di-.out
 50 53 0 0 0
SMALL
GASTEIGER

@<TRIPOS>ATOM
      1 C           1.2446   -0.2676   -0.1936 C.ar    1  LIG1        0.0199
      2 C           0.8836    0.9875    0.2505 C.ar    1  LIG1        0.0725
      3 C          -0.5421    1.0574    0.3137 C.ar    1  LIG1       -0.0064
      4 C          -0.9871   -0.1751   -0.1061 C.ar    1  LIG1        0.0684
      5 N           0.1058   -0.9624   -0.4027 N.ar    1  LIG1       -0.3581
      6 H           0.0555   -1.8956   -0.7883 H       1  LIG1        0.1654
      7 H           2.2190   -0.6883   -0.3698 H       1  LIG1        0.0820
      8 N           2.5056    2.8846    0.9170 N.1     1  LIG1       -0.1908
      9 C           1.7920    2.0370    0.6148 C.1     1  LIG1        0.1009
     10 C          -1.3561    2.2373    0.7782 C.3     1  LIG1       -0.0364
     11 H          -2.3091    1.8999    1.1856 H       1  LIG1        0.0279
     12 H          -1.5571    2.9148   -0.0523 H       1  LIG1        0.0279
     13 H          -0.8066    2.7759    1.5502 H       1  LIG1        0.0279
     14 C          -2.3358   -0.7158   -0.2394 C.ar    1  LIG1        0.0815
     15 C          -3.5137   -0.1695   -0.7285 C.ar    1  LIG1        0.0819
     16 C          -4.5272   -1.1729   -0.7003 C.ar    1  LIG1       -0.0057
     17 C          -3.9201   -2.3022   -0.1905 C.ar    1  LIG1        0.0688
     18 N          -2.6109   -1.9999    0.0874 N.ar    1  LIG1       -0.3506
     19 H          -1.9528   -2.6345    0.5205 H       1  LIG1        0.1660
     20 N          -3.8159    2.2060   -1.6905 N.1     1  LIG1       -0.1908
     21 C          -3.6655    1.1521   -1.2594 C.1     1  LIG1        0.1016
     22 C          -5.9428   -1.0151   -1.1968 C.3     1  LIG1       -0.0364
     23 H          -6.6300   -0.8123   -0.3717 H       1  LIG1        0.0279
     24 H          -6.2640   -1.9135   -1.7270 H       1  LIG1        0.0279
     25 H          -5.9938   -0.1735   -1.8869 H       1  LIG1        0.0279
     26 C          -4.4128   -3.6594    0.0046 C.ar    1  LIG1        0.0815
     27 C          -3.7108   -4.8582    0.0171 C.ar    1  LIG1        0.0819
     28 C          -4.6294   -5.9308    0.2193 C.ar    1  LIG1       -0.0057
     29 C          -5.8673   -5.3379    0.3185 C.ar    1  LIG1        0.0688
     30 N          -5.7148   -3.9729    0.1928 N.ar    1  LIG1       -0.3506
     31 H          -6.4722   -3.3056    0.1898 H       1  LIG1        0.1660
     32 N          -1.1432   -4.8800   -0.2378 N.1     1  LIG1       -0.1908
     33 C          -2.2885   -4.9266   -0.1373 C.1     1  LIG1        0.1016
     34 C          -4.2958   -7.3976    0.2998 C.3     1  LIG1       -0.0364
     35 H          -3.3566   -7.5341    0.8357 H       1  LIG1        0.0279
     36 H          -4.2011   -7.8181   -0.7020 H       1  LIG1        0.0279
     37 H          -5.0905   -7.9295    0.8222 H       1  LIG1        0.0279
     38 C          -7.1837   -5.9432    0.5128 C.ar    1  LIG1        0.0810
     39 C          -7.7854   -6.9938   -0.1545 C.ar    1  LIG1        0.0813
     40 C          -9.0839   -7.2043    0.4056 C.ar    1  LIG1       -0.0151
     41 C          -9.2199   -6.2632    1.3919 C.ar    1  LIG1        0.0064
     42 N          -8.0748   -5.5101    1.4453 N.ar    1  LIG1       -0.3582
     43 H          -7.8691   -4.8108    2.1422 H       1  LIG1        0.1654
     44 H         -10.0436   -6.0761    2.0598 H       1  LIG1        0.0810
     45 N          -6.7112   -8.2950   -2.1092 N.1     1  LIG1       -0.1908
     46 C          -7.1920   -7.7122   -1.2439 C.1     1  LIG1        0.1016
     47 C         -10.0821   -8.2453   -0.0312 C.3     1  LIG1       -0.0371
     48 H          -9.6620   -9.2444    0.0878 H       1  LIG1        0.0278
     49 H         -10.3399   -8.1043   -1.0813 H       1  LIG1        0.0278
     50 H         -10.9882   -8.1690    0.5683 H       1  LIG1        0.0278
@<TRIPOS>BOND
     1    45    46    3
     2    25    22    1
     3    24    22    1
     4    20    21    3
     5    21    15    1
     6    46    39    1
     7    22    16    1
     8    22    23    1
     9    49    47    1
    10     6     5    1
    11    15    16   ar
    12    15    14   ar
    13    36    34    1
    14    16    17   ar
    15     5     1   ar
    16     5     4   ar
    17     7     1    1
    18    14     4    1
    19    14    18   ar
    20    32    33    3
    21     1     2   ar
    22    17    26    1
    23    17    18   ar
    24    39    40   ar
    25    39    38   ar
    26    33    27    1
    27     4     3   ar
    28    12    10    1
    29    47    48    1
    30    47    40    1
    31    47    50    1
    32    26    27   ar
    33    26    30   ar
    34    27    28   ar
    35    18    19    1
    36    31    30    1
    37    30    29   ar
    38    28    34    1
    39    28    29   ar
    40     2     3   ar
    41     2     9    1
    42    34    37    1
    43    34    35    1
    44     3    10    1
    45    29    38    1
    46    40    41   ar
    47    38    42   ar
    48     9     8    3
    49    10    11    1
    50    10    13    1
    51    41    42   ar
    52    41    44    1
    53    42    43    1
