@<TRIPOS>MOLECULE
mol_data/opt/m06hf/geoms/mol2/13di13di13di13di-.out
 50 53 0 0 0
SMALL
GASTEIGER

@<TRIPOS>ATOM
      1 C           1.1776   -0.6257   -0.1020 C.ar    1  LIG1        0.0199
      2 C           0.8788    0.6277    0.3896 C.ar    1  LIG1        0.0725
      3 C          -0.5421    0.7800    0.4211 C.ar    1  LIG1       -0.0064
      4 C          -1.0477   -0.4042   -0.0670 C.ar    1  LIG1        0.0684
      5 N           0.0059   -1.2409   -0.3718 N.ar    1  LIG1       -0.3581
      6 H          -0.0839   -2.1594   -0.7821 H       1  LIG1        0.1654
      7 H           2.1292   -1.0985   -0.2720 H       1  LIG1        0.0820
      8 N           2.5843    2.3899    1.2014 N.1     1  LIG1       -0.1908
      9 C           1.8354    1.6017    0.8318 C.1     1  LIG1        0.1009
     10 C          -1.2962    1.9827    0.9261 C.3     1  LIG1       -0.0364
     11 H          -2.2693    1.6811    1.3140 H       1  LIG1        0.0279
     12 H          -1.4547    2.7014    0.1214 H       1  LIG1        0.0279
     13 H          -0.7247    2.4598    1.7220 H       1  LIG1        0.0279
     14 C          -2.4247   -0.8576   -0.2358 C.ar    1  LIG1        0.0815
     15 C          -3.5691   -0.2127   -0.6781 C.ar    1  LIG1        0.0819
     16 C          -4.6600   -1.1382   -0.6558 C.ar    1  LIG1       -0.0057
     17 C          -4.1270   -2.3212   -0.2040 C.ar    1  LIG1        0.0688
     18 N          -2.7822   -2.1365    0.0416 N.ar    1  LIG1       -0.3506
     19 H          -2.1921   -2.7966    0.5324 H       1  LIG1        0.1660
     20 N          -3.6765    2.2051   -1.5779 N.1     1  LIG1       -0.1908
     21 C          -3.6220    1.1315   -1.1726 C.1     1  LIG1        0.1016
     22 C          -6.0774   -0.8677   -1.0887 C.3     1  LIG1       -0.0364
     23 H          -6.6661   -0.4946   -0.2500 H       1  LIG1        0.0279
     24 H          -6.5393   -1.7860   -1.4512 H       1  LIG1        0.0279
     25 H          -6.0824   -0.1233   -1.8844 H       1  LIG1        0.0279
     26 C          -4.6728   -3.6615   -0.0282 C.ar    1  LIG1        0.0815
     27 C          -5.8492   -4.1741    0.4977 C.ar    1  LIG1        0.0819
     28 C          -5.7443   -5.5989    0.5370 C.ar    1  LIG1       -0.0057
     29 C          -4.4964   -5.8971    0.0270 C.ar    1  LIG1        0.0688
     30 N          -3.8862   -4.7214   -0.3189 N.ar    1  LIG1       -0.3506
     31 H          -2.9914   -4.6491   -0.7839 H       1  LIG1        0.1660
     32 N          -7.8315   -2.7882    1.3977 N.1     1  LIG1       -0.1908
     33 C          -6.9437   -3.3963    0.9960 C.1     1  LIG1        0.1016
     34 C          -6.7792   -6.5468    1.0897 C.3     1  LIG1       -0.0364
     35 H          -6.3058   -7.3063    1.7148 H       1  LIG1        0.0279
     36 H          -7.3380   -7.0326    0.2864 H       1  LIG1        0.0279
     37 H          -7.4890   -5.9922    1.7024 H       1  LIG1        0.0279
     38 C          -3.7474   -7.1409   -0.1059 C.ar    1  LIG1        0.0810
     39 C          -2.3724   -7.3249   -0.2024 C.ar    1  LIG1        0.0813
     40 C          -2.1069   -8.7263   -0.3082 C.ar    1  LIG1       -0.0151
     41 C          -3.3321   -9.3356   -0.2687 C.ar    1  LIG1        0.0064
     42 N          -4.3048   -8.3727   -0.1482 N.ar    1  LIG1       -0.3582
     43 H          -5.2988   -8.5419   -0.1373 H       1  LIG1        0.1654
     44 H          -3.5840  -10.3809   -0.3184 H       1  LIG1        0.0810
     45 N          -0.7670   -5.3034   -0.2145 N.1     1  LIG1       -0.1908
     46 C          -1.4336   -6.2429   -0.1968 C.1     1  LIG1        0.1016
     47 C          -0.7510   -9.3728   -0.4272 C.3     1  LIG1       -0.0371
     48 H          -0.1488   -9.1572    0.4558 H       1  LIG1        0.0278
     49 H          -0.2265   -8.9945   -1.3053 H       1  LIG1        0.0278
     50 H          -0.8606  -10.4521   -0.5225 H       1  LIG1        0.0278
@<TRIPOS>BOND
     1    25    22    1
     2    20    21    3
     3    24    22    1
     4    49    47    1
     5    21    15    1
     6    22    16    1
     7    22    23    1
     8    31    30    1
     9     6     5    1
    10    15    16   ar
    11    15    14   ar
    12    16    17   ar
    13    50    47    1
    14    47    40    1
    15    47    48    1
    16     5     1   ar
    17     5     4   ar
    18    30    26   ar
    19    30    29   ar
    20    44    41    1
    21    40    41   ar
    22    40    39   ar
    23     7     1    1
    24    41    42   ar
    25    14     4    1
    26    14    18   ar
    27    45    46    3
    28    17    26    1
    29    17    18   ar
    30    39    46    1
    31    39    38   ar
    32    42    43    1
    33    42    38   ar
    34    38    29    1
    35     1     2   ar
    36     4     3   ar
    37    26    27   ar
    38    29    28   ar
    39    18    19    1
    40    12    10    1
    41    36    34    1
    42     2     3   ar
    43     2     9    1
    44     3    10    1
    45    27    28   ar
    46    27    33    1
    47    28    34    1
    48     9     8    3
    49    10    11    1
    50    10    13    1
    51    33    32    3
    52    34    37    1
    53    34    35    1
