@<TRIPOS>MOLECULE
mol_data/opt/m06hf/geoms/mol2/13di13di13di.out
 38 40 0 0 0
SMALL
GASTEIGER

@<TRIPOS>ATOM
      1 C           0.9763   -0.0146   -1.4129 C.ar    1  LIG1        0.0199
      2 C           0.8452    0.9845   -0.4725 C.ar    1  LIG1        0.0725
      3 C          -0.4504    0.8834    0.1229 C.ar    1  LIG1       -0.0064
      4 C          -1.0544   -0.1890   -0.4904 C.ar    1  LIG1        0.0684
      5 N          -0.1764   -0.7218   -1.4103 N.ar    1  LIG1       -0.3581
      6 H          -0.4111   -1.4513   -2.0659 H       1  LIG1        0.1654
      7 H           1.7981   -0.2498   -2.0665 H       1  LIG1        0.0820
      8 N           2.6462    2.7261    0.1566 N.1     1  LIG1       -0.1908
      9 C           1.8513    1.9500   -0.1335 C.1     1  LIG1        0.1009
     10 C          -1.0144    1.7742    1.1984 C.3     1  LIG1       -0.0364
     11 H          -1.8135    1.2584    1.7307 H       1  LIG1        0.0279
     12 H          -1.4261    2.6821    0.7561 H       1  LIG1        0.0279
     13 H          -0.2274    2.0467    1.9014 H       1  LIG1        0.0279
     14 C          -2.3828   -0.7629   -0.2787 C.ar    1  LIG1        0.0815
     15 C          -3.6272   -0.1574   -0.2562 C.ar    1  LIG1        0.0819
     16 C          -4.6202   -1.1530   -0.0111 C.ar    1  LIG1       -0.0057
     17 C          -3.9335   -2.3406    0.1024 C.ar    1  LIG1        0.0688
     18 N          -2.5901   -2.0872   -0.0608 N.ar    1  LIG1       -0.3506
     19 H          -1.8602   -2.7832   -0.0228 H       1  LIG1        0.1660
     20 N          -4.0464    2.3682   -0.5960 N.1     1  LIG1       -0.1908
     21 C          -3.8559    1.2444   -0.4543 C.1     1  LIG1        0.1016
     22 C          -6.1065   -0.9317    0.0893 C.3     1  LIG1       -0.0364
     23 H          -6.5675   -1.7492    0.6433 H       1  LIG1        0.0279
     24 H          -6.5497   -0.8956   -0.9065 H       1  LIG1        0.0279
     25 H          -6.3048    0.0103    0.6002 H       1  LIG1        0.0279
     26 C          -4.4313   -3.6909    0.3635 C.ar    1  LIG1        0.0810
     27 C          -5.4342   -4.4094   -0.2597 C.ar    1  LIG1        0.0813
     28 C          -5.5435   -5.6852    0.3771 C.ar    1  LIG1       -0.0151
     29 C          -4.5931   -5.6900    1.3644 C.ar    1  LIG1        0.0064
     30 N          -3.9303   -4.4898    1.3444 N.ar    1  LIG1       -0.3582
     31 H          -3.2492   -4.1877    2.0244 H       1  LIG1        0.1654
     32 H          -4.3430   -6.4556    2.0786 H       1  LIG1        0.0810
     33 N          -6.8181   -3.5765   -2.2752 N.1     1  LIG1       -0.1908
     34 C          -6.1985   -3.9445   -1.3804 C.1     1  LIG1        0.1016
     35 C          -6.5074   -6.7832    0.0085 C.3     1  LIG1       -0.0371
     36 H          -6.3740   -7.6361    0.6727 H       1  LIG1        0.0278
     37 H          -6.3395   -7.1062   -1.0194 H       1  LIG1        0.0278
     38 H          -7.5343   -6.4268    0.0924 H       1  LIG1        0.0278
@<TRIPOS>BOND
     1    33    34    3
     2     7     1    1
     3     6     5    1
     4     1     5   ar
     5     1     2   ar
     6     5     4   ar
     7    34    27    1
     8    37    35    1
     9    24    22    1
    10    20    21    3
    11     4    14    1
    12     4     3   ar
    13     2     9    1
    14     2     3   ar
    15    21    15    1
    16    14    15   ar
    17    14    18   ar
    18    27    26   ar
    19    27    28   ar
    20    15    16   ar
    21     9     8    3
    22    18    19    1
    23    18    17   ar
    24    16    22    1
    25    16    17   ar
    26    35    38    1
    27    35    28    1
    28    35    36    1
    29    22    25    1
    30    22    23    1
    31    17    26    1
    32     3    10    1
    33    26    30   ar
    34    28    29   ar
    35    12    10    1
    36    10    11    1
    37    10    13    1
    38    30    29   ar
    39    30    31    1
    40    29    32    1
