@<TRIPOS>MOLECULE
mol_data/opt/m06hf/geoms/mol2/13di13di.out
 26 27 0 0 0
SMALL
GASTEIGER

@<TRIPOS>ATOM
      1 C           1.1537   -0.3042   -0.6505 C.ar    1  LIG1        0.0199
      2 C           0.8286    0.9478   -0.1744 C.ar    1  LIG1        0.0725
      3 C          -0.5563    0.9545    0.1827 C.ar    1  LIG1       -0.0064
      4 C          -1.0153   -0.3112   -0.0971 C.ar    1  LIG1        0.0684
      5 N           0.0320   -1.0573   -0.5945 N.ar    1  LIG1       -0.3581
      6 H          -0.0601   -1.9910   -0.9639 H       1  LIG1        0.1654
      7 H           2.0901   -0.6854   -1.0187 H       1  LIG1        0.0820
      8 N           2.4532    2.9414    0.0713 N.1     1  LIG1       -0.1908
      9 C           1.7368    2.0512   -0.0429 C.1     1  LIG1        0.1009
     10 C          -1.3278    2.1152    0.7538 C.3     1  LIG1       -0.0364
     11 H          -2.2146    1.7534    1.2738 H       1  LIG1        0.0279
     12 H          -1.6461    2.7858   -0.0452 H       1  LIG1        0.0279
     13 H          -0.6984    2.6680    1.4510 H       1  LIG1        0.0279
     14 C          -2.3503   -0.8866    0.0624 C.ar    1  LIG1        0.0810
     15 C          -3.5860   -0.4069   -0.3296 C.ar    1  LIG1        0.0813
     16 C          -4.5867   -1.3504    0.0638 C.ar    1  LIG1       -0.0151
     17 C          -3.9126   -2.3736    0.6765 C.ar    1  LIG1        0.0064
     18 N          -2.5715   -2.0852    0.6672 N.ar    1  LIG1       -0.3582
     19 H          -1.8558   -2.6194    1.1347 H       1  LIG1        0.1654
     20 H          -4.2871   -3.2804    1.1197 H       1  LIG1        0.0810
     21 N          -3.9921    1.8021   -1.6031 N.1     1  LIG1       -0.1908
     22 C          -3.8041    0.8183   -1.0408 C.1     1  LIG1        0.1016
     23 C          -6.0690   -1.2233   -0.1746 C.3     1  LIG1       -0.0371
     24 H          -6.5922   -2.0768    0.2546 H       1  LIG1        0.0278
     25 H          -6.2788   -1.1805   -1.2439 H       1  LIG1        0.0278
     26 H          -6.4469   -0.3093    0.2846 H       1  LIG1        0.0278
@<TRIPOS>BOND
     1    21    22    3
     2    25    23    1
     3    22    15    1
     4     7     1    1
     5     6     5    1
     6     1     5   ar
     7     1     2   ar
     8     5     4   ar
     9    15    14   ar
    10    15    16   ar
    11    23    16    1
    12    23    24    1
    13    23    26    1
    14     2     9    1
    15     2     3   ar
    16     4    14    1
    17     4     3   ar
    18    12    10    1
    19     9     8    3
    20    14    18   ar
    21    16    17   ar
    22     3    10    1
    23    18    17   ar
    24    18    19    1
    25    17    20    1
    26    10    11    1
    27    10    13    1
