@<TRIPOS>MOLECULE
mol_data/opt/m06hf/geoms/mol2/13di13di-4di13di.out
 52 55 0 0 0
SMALL
GASTEIGER

@<TRIPOS>ATOM
      1 C           1.4037   -0.5402   -0.1589 C.ar    1  LIG1        0.0199
      2 C           1.0490    0.7126   -0.6175 C.ar    1  LIG1        0.0725
      3 C          -0.3714    0.8229   -0.5759 C.ar    1  LIG1       -0.0064
      4 C          -0.8235   -0.3886   -0.0890 C.ar    1  LIG1        0.0684
      5 N           0.2659   -1.1911    0.1539 N.ar    1  LIG1       -0.3581
      6 H           0.2194   -2.1312    0.5263 H       1  LIG1        0.1654
      7 H           2.3743   -0.9885   -0.0399 H       1  LIG1        0.0820
      8 N           2.6498    2.5689   -1.4298 N.1     1  LIG1       -0.1908
      9 C           1.9517    1.7337   -1.0639 C.1     1  LIG1        0.1009
     10 C          -1.1688    2.0382   -0.9818 C.3     1  LIG1       -0.0364
     11 H          -1.7495    2.4310   -0.1430 H       1  LIG1        0.0279
     12 H          -1.8365    1.8070   -1.8166 H       1  LIG1        0.0279
     13 H          -0.4859    2.8202   -1.3117 H       1  LIG1        0.0279
     14 C          -2.1816   -0.8539    0.1639 C.ar    1  LIG1        0.0814
     15 C          -2.6490   -2.0665    0.6601 C.ar    1  LIG1        0.0819
     16 C          -4.0704   -2.0201    0.7257 C.ar    1  LIG1       -0.0071
     17 C          -4.4264   -0.7719    0.2568 C.ar    1  LIG1        0.0524
     18 N          -3.2729   -0.0935   -0.0699 N.ar    1  LIG1       -0.3517
     19 H          -3.2396    0.8582   -0.4071 H       1  LIG1        0.1660
     20 N          -1.0991   -4.0137    1.3390 N.1     1  LIG1       -0.1908
     21 C          -1.8140   -3.1614    1.0452 C.1     1  LIG1        0.1016
     22 C          -4.9471   -3.1232    1.2643 C.3     1  LIG1       -0.0365
     23 H          -4.4095   -3.6614    2.0449 H       1  LIG1        0.0279
     24 H          -5.2078   -3.8358    0.4788 H       1  LIG1        0.0279
     25 H          -5.8609   -2.7094    1.6900 H       1  LIG1        0.0279
     26 C          -6.0558    1.1670    0.3283 C.ar    1  LIG1        0.0615
     27 C          -7.3458    1.6670    0.1759 C.ar    1  LIG1       -0.0343
     28 C          -5.7703   -0.1888    0.0939 C.ar    1  LIG1        0.0162
     29 C          -8.3876    0.8231   -0.2049 C.ar    1  LIG1        0.0037
     30 H          -7.5384    2.7159    0.3594 H       1  LIG1        0.0637
     31 C          -6.8298   -1.0105   -0.2977 C.ar    1  LIG1       -0.0478
     32 C          -8.1341   -0.5396   -0.4344 C.ar    1  LIG1       -0.0406
     33 H          -6.6223   -2.0514   -0.5111 H       1  LIG1        0.0627
     34 N          -4.1528    2.8099    0.9769 N.1     1  LIG1       -0.1908
     35 C          -5.0052    2.0866    0.7147 C.1     1  LIG1        0.0998
     36 C          -9.2397   -1.5096   -0.8130 C.3     1  LIG1       -0.0391
     37 H          -8.9629   -2.5176   -0.5083 H       1  LIG1        0.0278
     38 H          -9.3973   -1.5177   -1.8946 H       1  LIG1        0.0278
     39 H         -10.1741   -1.2335   -0.3247 H       1  LIG1        0.0278
     40 C          -9.7428    1.4030   -0.3280 C.ar    1  LIG1        0.0646
     41 C         -10.4513    2.1920    0.5611 C.ar    1  LIG1        0.0798
     42 C         -11.7123    2.5237   -0.0263 C.ar    1  LIG1       -0.0152
     43 C         -11.7164    1.9220   -1.2573 C.ar    1  LIG1        0.0063
     44 N         -10.5335    1.2497   -1.4220 N.ar    1  LIG1       -0.3594
     45 H         -10.2479    0.7715   -2.2620 H       1  LIG1        0.1654
     46 H         -12.4701    1.9251   -2.0260 H       1  LIG1        0.0810
     47 N          -9.6386    2.9264    2.9004 N.1     1  LIG1       -0.1908
     48 C          -9.9956    2.5901    1.8615 C.1     1  LIG1        0.1015
     49 C         -12.7942    3.3596    0.6072 C.3     1  LIG1       -0.0371
     50 H         -13.6247    3.4852   -0.0862 H       1  LIG1        0.0278
     51 H         -12.4033    4.3421    0.8731 H       1  LIG1        0.0278
     52 H         -13.1612    2.8797    1.5150 H       1  LIG1        0.0278
@<TRIPOS>BOND
     1    45    44    1
     2    46    43    1
     3    38    36    1
     4    12    10    1
     5     8     9    3
     6    44    43   ar
     7    44    40   ar
     8    13    10    1
     9    43    42   ar
    10     9     2    1
    11    10     3    1
    12    10    11    1
    13    36    37    1
    14    36    32    1
    15    36    39    1
    16     2     3   ar
    17     2     1   ar
    18     3     4   ar
    19    33    31    1
    20    32    31   ar
    21    32    29   ar
    22    19    18    1
    23    40    29    1
    24    40    41   ar
    25    31    28   ar
    26    29    27   ar
    27     1     7    1
    28     1     5   ar
    29     4     5   ar
    30     4    14    1
    31    50    49    1
    32    18    14   ar
    33    18    17   ar
    34    42    41   ar
    35    42    49    1
    36    28    17    1
    37    28    26   ar
    38     5     6    1
    39    14    15   ar
    40    27    26   ar
    41    27    30    1
    42    17    16   ar
    43    26    35    1
    44    24    22    1
    45    41    48    1
    46    49    51    1
    47    49    52    1
    48    15    16   ar
    49    15    21    1
    50    35    34    3
    51    16    22    1
    52    21    20    3
    53    22    25    1
    54    22    23    1
    55    48    47    3
