@<TRIPOS>MOLECULE
mol_data/opt/m06hf/geoms/mol2/13di13ae12il6hi-.out
 52 55 0 0 0
SMALL
GASTEIGER

@<TRIPOS>ATOM
      1 C           1.2450    0.0787   -0.3424 C.ar    1  LIG1        0.0199
      2 C           0.8504    1.1757    0.3925 C.ar    1  LIG1        0.0725
      3 C          -0.5685    1.1187    0.5663 C.ar    1  LIG1       -0.0064
      4 C          -0.9788   -0.0208   -0.0838 C.ar    1  LIG1        0.0671
      5 N           0.1310   -0.6356   -0.6222 N.ar    1  LIG1       -0.3581
      6 H           0.0981   -1.4584   -1.2044 H       1  LIG1        0.1654
      7 H           2.2240   -0.2197   -0.6739 H       1  LIG1        0.0820
      8 N           2.4009    3.0156    1.3315 N.1     1  LIG1       -0.1908
      9 C           1.7201    2.1929    0.9093 C.1     1  LIG1        0.1009
     10 C          -1.4173    2.1041    1.3257 C.3     1  LIG1       -0.0364
     11 H          -2.3861    1.6598    1.5526 H       1  LIG1        0.0279
     12 H          -1.5718    3.0096    0.7368 H       1  LIG1        0.0279
     13 H          -0.9210    2.3818    2.2556 H       1  LIG1        0.0279
     14 C          -2.3189   -0.5874   -0.2473 C.ar    1  LIG1        0.0649
     15 C          -3.5002    0.0038   -0.6286 C.ar    1  LIG1       -0.0188
     16 C          -4.5013   -1.0123   -0.6370 C.ar    1  LIG1        0.0536
     17 C          -3.8851   -2.1933   -0.2504 C.ar    1  LIG1        0.0985
     18 N          -2.5708   -1.9172   -0.0270 N.ar    1  LIG1       -0.3496
     19 H          -1.9154   -2.5860    0.3518 H       1  LIG1        0.1661
     20 H          -3.6309    1.0340   -0.9128 H       1  LIG1        0.0652
     21 C          -5.8634   -0.8623   -1.0549 C.1     1  LIG1       -0.0674
     22 C          -6.9981   -0.7126   -1.4237 C.1     1  LIG1       -0.1138
     23 H          -8.0001   -0.5759   -1.7582 H       1  LIG1        0.1232
     24 C          -4.3849   -3.5481   -0.0725 C.ar    1  LIG1        0.1595
     25 C          -5.5562   -4.0778    0.3674 C.ar    1  LIG1        0.0391
     26 C          -5.3366   -5.5004    0.3493 C.ar    1  LIG1        0.1693
     27 C          -4.0630   -5.7333   -0.0798 C.ar    1  LIG1        0.1807
     28 O          -3.4814   -4.5327   -0.3406 O.2     1  LIG1       -0.4491
     29 C          -6.8049   -3.3962    0.8577 C.3     1  LIG1       -0.0325
     30 H          -7.2732   -4.0304    1.6104 H       1  LIG1        0.0280
     31 H          -7.5045   -3.2346    0.0370 H       1  LIG1        0.0280
     32 H          -6.5602   -2.4267    1.2895 H       1  LIG1        0.0280
     33 O          -6.2539   -6.4336    0.7300 O.3     1  LIG1       -0.4910
     34 C          -7.0788   -6.8779   -0.3497 C.3     1  LIG1        0.0790
     35 H          -7.7785   -7.5938    0.0738 H       1  LIG1        0.0660
     36 H          -7.6190   -6.0323   -0.7797 H       1  LIG1        0.0660
     37 H          -6.4637   -7.3544   -1.1154 H       1  LIG1        0.0660
     38 C          -2.1584   -7.0634   -1.1007 C.ar    1  LIG1        0.1270
     39 C          -3.3019   -6.9724   -0.2664 C.ar    1  LIG1        0.0606
     40 C          -3.7284   -8.1317    0.3752 C.ar    1  LIG1       -0.0433
     41 C          -3.0565   -9.3393    0.1958 C.ar    1  LIG1       -0.0315
     42 C          -1.9526   -9.3063   -0.6495 C.ar    1  LIG1        0.0326
     43 N          -1.5175   -8.2164   -1.2751 N.ar    1  LIG1       -0.2397
     44 H          -4.5984   -8.0744    1.0209 H       1  LIG1        0.0629
     45 H          -1.3840  -10.2118   -0.8361 H       1  LIG1        0.0833
     46 N          -1.6246   -5.9792   -1.7532 N.pl3   1  LIG1       -0.3426
     47 H          -0.9763   -6.2276   -2.4851 H       1  LIG1        0.1437
     48 H          -2.2052   -5.1682   -1.8933 H       1  LIG1        0.1437
     49 C          -3.5055  -10.6139    0.8817 C.3     1  LIG1       -0.0383
     50 H          -2.8068  -11.4232    0.6708 H       1  LIG1        0.0278
     51 H          -4.4947  -10.9119    0.5303 H       1  LIG1        0.0278
     52 H          -3.5533  -10.4707    1.9621 H       1  LIG1        0.0278
@<TRIPOS>BOND
     1    47    46    1
     2    48    46    1
     3    23    22    1
     4    46    38    1
     5    22    21    3
     6    43    38   ar
     7    43    42   ar
     8     6     5    1
     9    37    34    1
    10    38    39   ar
    11    21    16    1
    12    20    15    1
    13    45    42    1
    14    36    34    1
    15     7     1    1
    16    42    41   ar
    17    16    15   ar
    18    16    17   ar
    19    15    14   ar
    20     5     1   ar
    21     5     4   ar
    22    34    35    1
    23    34    33    1
    24     1     2   ar
    25    28    27   ar
    26    28    24   ar
    27    39    27    1
    28    39    40   ar
    29    17    24    1
    30    17    18   ar
    31    14     4    1
    32    14    18   ar
    33     4     3   ar
    34    27    26   ar
    35    24    25   ar
    36    18    19    1
    37    31    29    1
    38    41    40   ar
    39    41    49    1
    40    26    25   ar
    41    26    33    1
    42    25    29    1
    43    40    44    1
    44     2     3   ar
    45     2     9    1
    46    51    49    1
    47     3    10    1
    48    50    49    1
    49    12    10    1
    50    29    32    1
    51    29    30    1
    52    49    52    1
    53     9     8    3
    54    10    11    1
    55    10    13    1
