@<TRIPOS>MOLECULE
mol_data/opt/m06hf/geoms/mol2/13di4ed4ii-12dh12hf-12if12af-4ie-.out
 97 104 0 0 0
SMALL
GASTEIGER

@<TRIPOS>ATOM
      1 C           0.0636    3.6213    3.2635 C.ar    1  LIG1        0.0199
      2 C          -0.6499    4.7833    3.0627 C.ar    1  LIG1        0.0725
      3 C          -1.9479    4.4403    2.5701 C.ar    1  LIG1       -0.0078
      4 C          -1.9649    3.0673    2.4896 C.ar    1  LIG1        0.0519
      5 N          -0.7463    2.5941    2.9223 N.ar    1  LIG1       -0.3592
      6 H          -0.4817    1.6212    2.9098 H       1  LIG1        0.1654
      7 H           1.0706    3.4746    3.6122 H       1  LIG1        0.0820
      8 N           0.1792    7.1862    3.5210 N.1     1  LIG1       -0.1908
      9 C          -0.1779    6.1133    3.3201 C.1     1  LIG1        0.1009
     10 C          -3.0601    5.4091    2.2687 C.3     1  LIG1       -0.0365
     11 H          -4.0030    4.8765    2.1493 H       1  LIG1        0.0279
     12 H          -2.8492    5.9525    1.3471 H       1  LIG1        0.0279
     13 H          -3.1530    6.1264    3.0847 H       1  LIG1        0.0279
     14 C          -3.6929    2.2321    0.8549 C.ar    1  LIG1        0.0344
     15 C          -4.7066    1.3298    0.5208 C.ar    1  LIG1       -0.0367
     16 C          -3.0357    2.1293    2.0950 C.ar    1  LIG1        0.0152
     17 C          -5.0774    0.3001    1.3815 C.ar    1  LIG1        0.0009
     18 H          -5.1909    1.4181   -0.4429 H       1  LIG1        0.0636
     19 C          -3.4021    1.1002    2.9600 C.ar    1  LIG1       -0.0335
     20 C          -4.4013    0.1945    2.6050 C.ar    1  LIG1        0.0602
     21 H          -2.9285    1.0165    3.9300 H       1  LIG1        0.0637
     22 C          -3.3129    3.2336   -0.1121 C.1     1  LIG1       -0.0690
     23 C          -3.0182    4.0434   -0.9500 C.1     1  LIG1       -0.1139
     24 H          -2.7470    4.7603   -1.6915 H       1  LIG1        0.1232
     25 N          -4.9933   -1.6696    4.3146 N.1     1  LIG1       -0.1908
     26 C          -4.7489   -0.8516    3.5479 C.1     1  LIG1        0.0998
     27 C          -7.4635   -0.2331    0.7852 C.ar    1  LIG1       -0.0420
     28 C          -8.4020   -1.1848    0.3966 C.ar    1  LIG1       -0.0473
     29 C          -6.1477   -0.6667    0.9894 C.ar    1  LIG1       -0.0134
     30 C          -8.0565   -2.5244    0.2045 C.ar    1  LIG1        0.0218
     31 H          -9.4319   -0.8780    0.2577 H       1  LIG1        0.0627
     32 C          -5.8099   -2.0104    0.8193 C.ar    1  LIG1       -0.0501
     33 C          -6.7404   -2.9662    0.4219 C.ar    1  LIG1       -0.0392
     34 H          -4.7837   -2.3162    0.9880 H       1  LIG1        0.0627
     35 C          -7.8891    1.2091    1.0012 C.3     1  LIG1       -0.0391
     36 H          -8.9613    1.2503    1.1879 H       1  LIG1        0.0278
     37 H          -7.6732    1.8154    0.1195 H       1  LIG1        0.0278
     38 H          -7.3652    1.6425    1.8533 H       1  LIG1        0.0278
     39 C          -6.3026   -4.4075    0.2249 C.3     1  LIG1       -0.0390
     40 H          -5.2155   -4.4614    0.2562 H       1  LIG1        0.0278
     41 H          -6.6493   -4.7888   -0.7363 H       1  LIG1        0.0278
     42 H          -6.7140   -5.0458    1.0065 H       1  LIG1        0.0278
     43 C          -9.1147   -3.4456   -0.2387 C.ar    1  LIG1        0.1553
     44 C         -10.2111   -3.2648   -1.0421 C.ar    1  LIG1        0.1187
     45 C         -10.8837   -4.5347   -1.1265 C.ar    1  LIG1        0.0924
     46 C         -10.1508   -5.3821   -0.3527 C.ar    1  LIG1        0.1943
     47 O          -9.0851   -4.7206    0.1675 O.2     1  LIG1       -0.4484
     48 N         -10.9805   -1.1572   -2.3126 N.1     1  LIG1       -0.1907
     49 C         -10.6114   -2.0803   -1.7373 C.1     1  LIG1        0.1048
     50 N         -12.0396   -4.8560   -1.8664 N.pl3   1  LIG1       -0.3539
     51 H         -12.4750   -4.0290   -2.2615 H       1  LIG1        0.1425
     52 H         -11.8358   -5.5220   -2.6068 H       1  LIG1        0.1425
     53 C         -10.3703   -6.7676   -0.0089 C.ar    1  LIG1        0.1968
     54 C         -11.5473   -7.4484    0.1365 C.ar    1  LIG1        0.1170
     55 C         -11.1461   -8.7957    0.4391 C.ar    1  LIG1        0.1877
     56 C          -9.7881   -8.8118    0.4795 C.ar    1  LIG1        0.2141
     57 O          -9.2984   -7.5833    0.1949 O.2     1  LIG1       -0.4428
     58 N         -12.8484   -6.9919    0.0866 N.pl3   1  LIG1       -0.3521
     59 H         -12.9877   -6.1889   -0.5239 H       1  LIG1        0.1425
     60 H         -13.5267   -7.7323   -0.0289 H       1  LIG1        0.1425
     61 O         -12.0340   -9.8047    0.6196 O.3     1  LIG1       -0.5019
     62 H         -11.5688  -10.6509    0.5872 H       1  LIG1        0.2924
     63 C          -8.9027   -9.9290    0.7605 C.ar    1  LIG1        0.1810
     64 C          -9.0153  -10.9165    1.6973 C.ar    1  LIG1        0.0407
     65 C          -7.9094  -11.7901    1.4282 C.ar    1  LIG1        0.1694
     66 C          -7.2171  -11.2552    0.3853 C.ar    1  LIG1        0.2122
     67 O          -7.8305  -10.1229   -0.0367 O.2     1  LIG1       -0.4444
     68 C         -10.0089  -11.0669    2.8199 C.3     1  LIG1       -0.0325
     69 H          -9.4704  -11.2114    3.7564 H       1  LIG1        0.0280
     70 H         -10.6443  -11.9402    2.6613 H       1  LIG1        0.0280
     71 H         -10.6311  -10.1755    2.8961 H       1  LIG1        0.0280
     72 O          -7.6611  -12.9219    2.1277 O.3     1  LIG1       -0.5029
     73 H          -7.0096  -13.4592    1.6583 H       1  LIG1        0.2923
     74 C          -6.0072  -11.7295   -0.2604 C.ar    1  LIG1        0.1779
     75 C          -4.9268  -12.3814    0.2574 C.ar    1  LIG1        0.0296
     76 C          -4.0965  -12.6775   -0.8716 C.ar    1  LIG1        0.1633
     77 C          -4.7307  -12.1953   -1.9765 C.ar    1  LIG1        0.1773
     78 O          -5.8962  -11.6072   -1.5962 O.2     1  LIG1       -0.4478
     79 H          -4.7033  -12.5598    1.2962 H       1  LIG1        0.0693
     80 O          -2.8832  -13.2865   -0.7954 O.3     1  LIG1       -0.5032
     81 H          -2.3366  -13.0020   -1.5390 H       1  LIG1        0.2923
     82 C          -3.9214  -13.2923   -4.0759 C.ar    1  LIG1       -0.0396
     83 C          -3.4958  -13.1595   -5.3999 C.ar    1  LIG1       -0.0570
     84 C          -4.3200  -12.1311   -3.3915 C.ar    1  LIG1        0.0250
     85 C          -3.4896  -11.9285   -6.0415 C.ar    1  LIG1       -0.0460
     86 H          -3.1837  -14.0429   -5.9430 H       1  LIG1        0.0621
     87 C          -4.3327  -10.8921   -4.0340 C.ar    1  LIG1       -0.0353
     88 C          -3.9224  -10.7850   -5.3622 C.ar    1  LIG1        0.0254
     89 H          -4.6586  -10.0117   -3.4959 H       1  LIG1        0.0637
     90 H          -3.1651  -11.8428   -7.0695 H       1  LIG1        0.0630
     91 C          -4.0159  -14.6647   -3.4322 C.3     1  LIG1       -0.0390
     92 H          -3.7475  -15.4327   -4.1561 H       1  LIG1        0.0278
     93 H          -5.0400  -14.8375   -3.0965 H       1  LIG1        0.0278
     94 H          -3.3643  -14.7532   -2.5621 H       1  LIG1        0.0278
     95 C          -3.9340   -9.5014   -6.0253 C.1     1  LIG1       -0.0696
     96 C          -3.9400   -8.4343   -6.5775 C.1     1  LIG1       -0.1139
     97 H          -3.9461   -7.4873   -7.0659 H       1  LIG1        0.1232
@<TRIPOS>BOND
     1    90    85    1
     2    97    96    1
     3    96    95    3
     4    85    83   ar
     5    85    88   ar
     6    95    88    1
     7    86    83    1
     8    83    82   ar
     9    88    87   ar
    10    92    91    1
    11    82    91    1
    12    82    84   ar
    13    87    89    1
    14    87    84   ar
    15    91    93    1
    16    91    94    1
    17    84    77    1
    18    52    50    1
    19    48    49    3
    20    51    50    1
    21    77    78   ar
    22    77    76   ar
    23    50    45    1
    24    49    44    1
    25    24    23    1
    26    78    74   ar
    27    81    80    1
    28    45    44   ar
    29    45    46   ar
    30    44    43   ar
    31    23    22    3
    32    76    80    1
    33    76    75   ar
    34    41    39    1
    35    59    58    1
    36    18    15    1
    37    46    53    1
    38    46    47   ar
    39    74    75   ar
    40    74    66    1
    41    43    47   ar
    42    43    30    1
    43    22    14    1
    44    67    66   ar
    45    67    63   ar
    46    60    58    1
    47    53    54   ar
    48    53    57   ar
    49    58    54    1
    50    37    35    1
    51    54    55   ar
    52    57    56   ar
    53    30    28   ar
    54    30    33   ar
    55    39    40    1
    56    39    33    1
    57    39    42    1
    58    75    79    1
    59    31    28    1
    60    66    65   ar
    61    28    27   ar
    62    33    32   ar
    63    55    56   ar
    64    55    61    1
    65    56    63    1
    66    15    14   ar
    67    15    17   ar
    68    62    61    1
    69    63    64   ar
    70    27    29   ar
    71    27    35    1
    72    32    34    1
    73    32    29   ar
    74    14    16   ar
    75    29    17    1
    76    35    36    1
    77    35    38    1
    78    12    10    1
    79    17    20   ar
    80    65    64   ar
    81    65    72    1
    82    73    72    1
    83    64    68    1
    84    16     4    1
    85    16    19   ar
    86    11    10    1
    87    10     3    1
    88    10    13    1
    89     4     3   ar
    90     4     5   ar
    91     3     2   ar
    92    20    19   ar
    93    20    26    1
    94    70    68    1
    95    68    71    1
    96    68    69    1
    97     6     5    1
    98     5     1   ar
    99    19    21    1
   100     2     1   ar
   101     2     9    1
   102     1     7    1
   103     9     8    3
   104    26    25    3
