@<TRIPOS>MOLECULE
mol_data/opt/m06hf/geoms/mol2/13dl13dl.out
 28 29 0 0 0
SMALL
GASTEIGER

@<TRIPOS>ATOM
      1 C           1.3335   -0.4201   -0.3857 C.ar    1  LIG1        0.0233
      2 C           1.0380    0.8383    0.0982 C.ar    1  LIG1        0.1112
      3 C          -0.3784    0.8940    0.2993 C.ar    1  LIG1        0.1640
      4 C          -0.8842   -0.3298   -0.0710 C.ar    1  LIG1        0.1078
      5 N           0.1776   -1.1126   -0.4736 N.ar    1  LIG1       -0.3553
      6 H           0.0827   -2.0261   -0.8889 H       1  LIG1        0.1655
      7 H           2.2827   -0.8405   -0.6685 H       1  LIG1        0.0821
      8 N           2.7623    2.6880    0.6138 N.1     1  LIG1       -0.1907
      9 C           1.9977    1.8628    0.3835 C.1     1  LIG1        0.1044
     10 O          -1.1183    1.9015    0.8024 O.3     1  LIG1       -0.4916
     11 C          -0.9719    3.1635    0.1357 C.3     1  LIG1        0.0789
     12 H          -1.7755    3.7888    0.5136 H       1  LIG1        0.0660
     13 H          -0.0035    3.6039    0.3727 H       1  LIG1        0.0660
     14 H          -1.0867    3.0273   -0.9394 H       1  LIG1        0.0660
     15 C          -2.2614   -0.8071   -0.0409 C.ar    1  LIG1        0.0878
     16 C          -3.4243   -0.1798   -0.4475 C.ar    1  LIG1        0.1200
     17 C          -4.5063   -1.0800   -0.1866 C.ar    1  LIG1        0.1553
     18 C          -3.9680   -2.2130    0.3630 C.ar    1  LIG1        0.0457
     19 N          -2.6090   -2.0316    0.4350 N.ar    1  LIG1       -0.3553
     20 H          -1.9655   -2.6613    0.8876 H       1  LIG1        0.1655
     21 H          -4.4515   -3.1162    0.6887 H       1  LIG1        0.0845
     22 N          -3.5968    2.1451   -1.5506 N.1     1  LIG1       -0.1907
     23 C          -3.5043    1.1102   -1.0598 C.1     1  LIG1        0.1050
     24 O          -5.8185   -0.8803   -0.4605 O.3     1  LIG1       -0.4923
     25 C          -6.4100    0.1969    0.2698 C.3     1  LIG1        0.0789
     26 H          -7.4627    0.1987    0.0006 H       1  LIG1        0.0660
     27 H          -6.2917    0.0260    1.3414 H       1  LIG1        0.0660
     28 H          -5.9530    1.1470   -0.0106 H       1  LIG1        0.0660
@<TRIPOS>BOND
     1    22    23    3
     2    23    16    1
     3    14    11    1
     4     6     5    1
     5     7     1    1
     6     5     1   ar
     7     5     4   ar
     8    24    17    1
     9    24    25    1
    10    16    17   ar
    11    16    15   ar
    12     1     2   ar
    13    17    18   ar
    14     4    15    1
    15     4     3   ar
    16    15    19   ar
    17    28    25    1
    18    26    25    1
    19     2     3   ar
    20     2     9    1
    21    11    13    1
    22    11    12    1
    23    11    10    1
    24    25    27    1
    25     3    10    1
    26    18    19   ar
    27    18    21    1
    28     9     8    3
    29    19    20    1
