@<TRIPOS>MOLECULE
mol_data/opt/m06hf/geoms/mol2/13dl13dl-13dl-13dl-.out
 54 57 0 0 0
SMALL
GASTEIGER

@<TRIPOS>ATOM
      1 C           0.7842   -2.1947   -0.2845 C.ar    1  LIG1        0.0233
      2 C           0.5489   -1.6593   -1.5433 C.ar    1  LIG1        0.1112
      3 C          -0.7051   -0.9825   -1.4692 C.ar    1  LIG1        0.1640
      4 C          -1.1732   -1.1343   -0.1805 C.ar    1  LIG1        0.1078
      5 N          -0.2467   -1.8749    0.5143 N.ar    1  LIG1       -0.3553
      6 H          -0.3411   -2.1352    1.4883 H       1  LIG1        0.1655
      7 H           1.6240   -2.7736    0.0578 H       1  LIG1        0.0821
      8 N           2.1654   -1.9253   -3.5373 N.1     1  LIG1       -0.1907
      9 C           1.4420   -1.8034   -2.6538 C.1     1  LIG1        0.1044
     10 O          -1.4140   -0.2949   -2.3891 O.3     1  LIG1       -0.4916
     11 C          -0.8785   -0.1424   -3.7043 C.3     1  LIG1        0.0789
     12 H          -1.6173    0.4473   -4.2395 H       1  LIG1        0.0660
     13 H           0.0767    0.3820   -3.6595 H       1  LIG1        0.0660
     14 H          -0.7507   -1.1197   -4.1709 H       1  LIG1        0.0660
     15 C          -2.4131   -0.6144    0.3613 C.ar    1  LIG1        0.0883
     16 C          -2.9740   -0.7155    1.6394 C.ar    1  LIG1        0.1207
     17 C          -4.2112   -0.0071    1.5978 C.ar    1  LIG1        0.1647
     18 C          -4.3518    0.4904    0.3186 C.ar    1  LIG1        0.1083
     19 N          -3.2502    0.1052   -0.4046 N.ar    1  LIG1       -0.3478
     20 H          -3.0534    0.3118   -1.3820 H       1  LIG1        0.1661
     21 N          -1.7322   -2.0152    3.4831 N.1     1  LIG1       -0.1907
     22 C          -2.3297   -1.4232    2.6975 C.1     1  LIG1        0.1050
     23 O          -5.1516    0.2053    2.5386 O.3     1  LIG1       -0.4916
     24 C          -4.9050   -0.2530    3.8673 C.3     1  LIG1        0.0789
     25 H          -3.9998    0.2133    4.2590 H       1  LIG1        0.0660
     26 H          -5.7747    0.0574    4.4381 H       1  LIG1        0.0660
     27 H          -4.8065   -1.3395    3.8741 H       1  LIG1        0.0660
     28 C          -5.4478    1.2840   -0.1943 C.ar    1  LIG1        0.0883
     29 C          -5.6650    1.8369   -1.4608 C.ar    1  LIG1        0.1207
     30 C          -6.9123    2.5292   -1.3936 C.ar    1  LIG1        0.1647
     31 C          -7.3964    2.3738   -0.1137 C.ar    1  LIG1        0.1083
     32 N          -6.4910    1.6153    0.5855 N.ar    1  LIG1       -0.3478
     33 H          -6.5677    1.3313    1.5609 H       1  LIG1        0.1661
     34 N          -3.9635    1.5012   -3.3679 N.1     1  LIG1       -0.1907
     35 C          -4.7453    1.6719   -2.5403 C.1     1  LIG1        0.1050
     36 O          -7.5899    3.2284   -2.3373 O.3     1  LIG1       -0.4916
     37 C          -6.9240    3.4618   -3.5755 C.3     1  LIG1        0.0789
     38 H          -7.5970    4.0817   -4.1611 H       1  LIG1        0.0660
     39 H          -5.9830    3.9864   -3.4030 H       1  LIG1        0.0660
     40 H          -6.7414    2.5176   -4.0901 H       1  LIG1        0.0660
     41 C          -8.6240    2.8892    0.4597 C.ar    1  LIG1        0.0878
     42 C          -9.1371    2.7751    1.7457 C.ar    1  LIG1        0.1200
     43 C         -10.3793    3.4773    1.7640 C.ar    1  LIG1        0.1553
     44 C         -10.5794    3.9897    0.5049 C.ar    1  LIG1        0.0457
     45 N          -9.4987    3.6160   -0.2635 N.ar    1  LIG1       -0.3553
     46 H          -9.3393    3.8337   -1.2384 H       1  LIG1        0.1655
     47 H         -11.3829    4.5755    0.0981 H       1  LIG1        0.0845
     48 N          -7.9198    1.4957    3.6202 N.1     1  LIG1       -0.1907
     49 C          -8.5000    2.0775    2.8150 C.1     1  LIG1        0.1050
     50 O         -11.1448    3.5638    2.8694 O.3     1  LIG1       -0.4923
     51 C         -12.3441    4.2997    2.7114 C.3     1  LIG1        0.0789
     52 H         -12.8427    4.2826    3.6759 H       1  LIG1        0.0660
     53 H         -12.1188    5.3306    2.4241 H       1  LIG1        0.0660
     54 H         -12.9773    3.8305    1.9534 H       1  LIG1        0.0660
@<TRIPOS>BOND
     1    12    11    1
     2    14    11    1
     3    38    37    1
     4    40    37    1
     5    11    13    1
     6    11    10    1
     7    37    39    1
     8    37    36    1
     9     8     9    3
    10    34    35    3
    11     9     2    1
    12    35    29    1
    13    10     3    1
    14    36    30    1
    15     2     3   ar
    16     2     1   ar
    17     3     4   ar
    18    29    30   ar
    19    29    28   ar
    20    30    31   ar
    21    20    19    1
    22    46    45    1
    23    19    18   ar
    24    19    15   ar
    25     1     7    1
    26     1     5   ar
    27    45    41   ar
    28    45    44   ar
    29    28    18    1
    30    28    32   ar
    31     4    15    1
    32     4     5   ar
    33    31    41    1
    34    31    32   ar
    35    47    44    1
    36    18    17   ar
    37    15    16   ar
    38    41    42   ar
    39    44    43   ar
    40     5     6    1
    41    32    33    1
    42    17    16   ar
    43    17    23    1
    44    16    22    1
    45    42    43   ar
    46    42    49    1
    47    43    50    1
    48    54    51    1
    49    53    51    1
    50    23    24    1
    51    22    21    3
    52    51    50    1
    53    51    52    1
    54    49    48    3
    55    24    27    1
    56    24    25    1
    57    24    26    1
