@<TRIPOS>MOLECULE
mol_data/opt/m06hf/geoms/mol2/13dl13dl-13dl13dl-.out
 54 57 0 0 0
SMALL
GASTEIGER

@<TRIPOS>ATOM
      1 C           1.2526   -0.4278    0.0042 C.ar    1  LIG1        0.0233
      2 C           0.8682    0.9052    0.0455 C.ar    1  LIG1        0.1112
      3 C          -0.5586    0.9167    0.0570 C.ar    1  LIG1        0.1640
      4 C          -0.9757   -0.3978    0.0225 C.ar    1  LIG1        0.1078
      5 N           0.1472   -1.1901   -0.0091 N.ar    1  LIG1       -0.3553
      6 H           0.1289   -2.2021   -0.0374 H       1  LIG1        0.1655
      7 H           2.2440   -0.8453   -0.0156 H       1  LIG1        0.0821
      8 N           2.5348    2.8750    0.0911 N.1     1  LIG1       -0.1907
      9 C           1.7882    2.0028    0.0709 C.1     1  LIG1        0.1044
     10 O          -1.4517    1.9278    0.0963 O.3     1  LIG1       -0.4916
     11 C          -0.9743    3.2738    0.1044 C.3     1  LIG1        0.0789
     12 H          -1.8703    3.8874    0.1244 H       1  LIG1        0.0660
     13 H          -0.3650    3.4484    0.9918 H       1  LIG1        0.0660
     14 H          -0.3921    3.4683   -0.7971 H       1  LIG1        0.0660
     15 C          -2.3440   -0.8762    0.0184 C.ar    1  LIG1        0.0883
     16 C          -2.8659   -2.1744   -0.0107 C.ar    1  LIG1        0.1207
     17 C          -4.2860   -2.0420    0.0006 C.ar    1  LIG1        0.1647
     18 C          -4.5682   -0.6919    0.0340 C.ar    1  LIG1        0.1083
     19 N          -3.3741   -0.0142    0.0456 N.ar    1  LIG1       -0.3478
     20 H          -3.2402    0.9948    0.0709 H       1  LIG1        0.1661
     21 N          -1.2705   -4.1947   -0.0684 N.1     1  LIG1       -0.1907
     22 C          -2.0284   -3.3289   -0.0429 C.1     1  LIG1        0.1050
     23 O          -5.2696   -2.9625   -0.0085 O.3     1  LIG1       -0.4916
     24 C          -4.9165   -4.3388   -0.1409 C.3     1  LIG1        0.0789
     25 H          -4.3710   -4.4944   -1.0728 H       1  LIG1        0.0660
     26 H          -4.3106   -4.6513    0.7110 H       1  LIG1        0.0660
     27 H          -5.8620   -4.8718   -0.1559 H       1  LIG1        0.0660
     28 C          -5.8762   -0.0731    0.0472 C.ar    1  LIG1        0.0883
     29 C          -6.2526    1.2741    0.0668 C.ar    1  LIG1        0.1207
     30 C          -7.6806    1.2971    0.0638 C.ar    1  LIG1        0.1647
     31 C          -8.1093   -0.0114    0.0427 C.ar    1  LIG1        0.1083
     32 N          -6.9966   -0.8150    0.0355 N.ar    1  LIG1       -0.3478
     33 H          -6.9882   -1.8336    0.0183 H       1  LIG1        0.1661
     34 N          -4.4838    3.1487    0.1043 N.1     1  LIG1       -0.1907
     35 C          -5.3014    2.3386    0.0879 C.1     1  LIG1        0.1050
     36 O          -8.5503    2.3372    0.0847 O.3     1  LIG1       -0.4916
     37 C          -8.0021    3.6450   -0.0577 C.3     1  LIG1        0.0789
     38 H          -8.8520    4.3212   -0.0798 H       1  LIG1        0.0660
     39 H          -7.3590    3.8795    0.7915 H       1  LIG1        0.0660
     40 H          -7.4391    3.7171   -0.9895 H       1  LIG1        0.0660
     41 C          -9.4667   -0.5202    0.0269 C.ar    1  LIG1        0.0878
     42 C          -9.9411   -1.8252   -0.0167 C.ar    1  LIG1        0.1200
     43 C         -11.3663   -1.7522   -0.0159 C.ar    1  LIG1        0.1553
     44 C         -11.7089   -0.4222    0.0274 C.ar    1  LIG1        0.0457
     45 N         -10.5359    0.2999    0.0531 N.ar    1  LIG1       -0.3553
     46 H         -10.4402    1.3063    0.0862 H       1  LIG1        0.1655
     47 H         -12.6678    0.0619    0.0430 H       1  LIG1        0.0845
     48 N          -8.3787   -3.8712   -0.0886 N.1     1  LIG1       -0.1907
     49 C          -9.1154   -2.9882   -0.0573 C.1     1  LIG1        0.1050
     50 O         -12.1466   -2.8500   -0.0528 O.3     1  LIG1       -0.4923
     51 C         -13.5394   -2.5953   -0.0479 C.3     1  LIG1        0.0789
     52 H         -14.0277   -3.5647   -0.0835 H       1  LIG1        0.0660
     53 H         -13.8227   -2.0660    0.8660 H       1  LIG1        0.0660
     54 H         -13.8175   -2.0032   -0.9243 H       1  LIG1        0.0660
@<TRIPOS>BOND
     1    25    24    1
     2    40    37    1
     3    54    51    1
     4    14    11    1
     5    27    24    1
     6    24    23    1
     7    24    26    1
     8    48    49    3
     9    52    51    1
    10    38    37    1
    11    21    22    3
    12    37    36    1
    13    37    39    1
    14    49    42    1
    15    50    51    1
    16    50    43    1
    17    51    53    1
    18    22    16    1
    19     6     5    1
    20    42    43   ar
    21    42    41   ar
    22    43    44   ar
    23     7     1    1
    24    16    17   ar
    25    16    15   ar
    26     5     1   ar
    27     5     4   ar
    28    23    17    1
    29    17    18   ar
    30     1     2   ar
    31    33    32    1
    32    15     4    1
    33    15    19   ar
    34     4     3   ar
    35    41    31    1
    36    41    45   ar
    37    44    47    1
    38    44    45   ar
    39    18    19   ar
    40    18    28    1
    41    32    31   ar
    42    32    28   ar
    43    31    30   ar
    44     2     3   ar
    45     2     9    1
    46    19    20    1
    47    28    29   ar
    48    45    46    1
    49     3    10    1
    50    30    29   ar
    51    30    36    1
    52    29    35    1
    53     9     8    3
    54    35    34    3
    55    10    11    1
    56    11    12    1
    57    11    13    1
