@<TRIPOS>MOLECULE
mol_data/opt/m06hf/geoms/mol2/13dl4ae6id-13il.out
 55 58 0 0 0
SMALL
GASTEIGER

@<TRIPOS>ATOM
      1 C           1.5584   -0.3946   -0.1492 C.ar    1  LIG1        0.0233
      2 C           1.2112    0.8888    0.2304 C.ar    1  LIG1        0.1112
      3 C          -0.2143    0.9106    0.3690 C.ar    1  LIG1        0.1625
      4 C          -0.6763   -0.3518    0.0616 C.ar    1  LIG1        0.0901
      5 N           0.4272   -1.1174   -0.2445 N.ar    1  LIG1       -0.3565
      6 H           0.3918   -2.1057   -0.4401 H       1  LIG1        0.1655
      7 H           2.5330   -0.8104   -0.3359 H       1  LIG1        0.0821
      8 N           2.9242    2.7776    0.6353 N.1     1  LIG1       -0.1907
      9 C           2.1581    1.9408    0.4547 C.1     1  LIG1        0.1044
     10 O          -1.0263    1.9259    0.7362 O.3     1  LIG1       -0.4917
     11 C          -0.5823    3.2507    0.4459 C.3     1  LIG1        0.0789
     12 H          -1.4532    3.8879    0.5723 H       1  LIG1        0.0660
     13 H           0.2047    3.5509    1.1369 H       1  LIG1        0.0660
     14 H          -0.2193    3.3077   -0.5819 H       1  LIG1        0.0660
     15 C          -3.0471   -0.2987    0.8155 C.ar    1  LIG1       -0.0519
     16 C          -4.3398   -0.8072    0.7877 C.ar    1  LIG1       -0.0522
     17 C          -2.0489   -0.8774    0.0228 C.ar    1  LIG1        0.0031
     18 C          -4.6671   -1.9048   -0.0084 C.ar    1  LIG1       -0.0007
     19 H          -5.1098   -0.3614    1.4046 H       1  LIG1        0.0624
     20 C          -2.3744   -1.9576   -0.7990 C.ar    1  LIG1       -0.0365
     21 C          -3.6694   -2.4780   -0.8108 C.ar    1  LIG1        0.0330
     22 H          -1.6420   -2.3932   -1.4670 H       1  LIG1        0.0636
     23 H          -2.7986    0.5440    1.4459 H       1  LIG1        0.0624
     24 C          -3.9781   -3.5958   -1.6733 C.1     1  LIG1       -0.0690
     25 C          -4.2255   -4.5263   -2.3927 C.1     1  LIG1       -0.1139
     26 H          -4.4526   -5.3441   -3.0372 H       1  LIG1        0.1232
     27 C          -6.3831   -3.6511    0.6378 C.ar    1  LIG1        0.0468
     28 C          -6.0594   -2.4445   -0.0148 C.ar    1  LIG1        0.0056
     29 C          -7.0700   -1.7802   -0.6869 C.ar    1  LIG1       -0.0328
     30 C          -8.3674   -2.3000   -0.6748 C.ar    1  LIG1        0.0797
     31 C          -8.6252   -3.4613    0.0659 C.ar    1  LIG1        0.1051
     32 N          -7.6242   -4.1170    0.6717 N.ar    1  LIG1       -0.2485
     33 H          -6.8561   -0.8787   -1.2472 H       1  LIG1        0.0638
     34 C          -5.3236   -4.4716    1.3400 C.3     1  LIG1       -0.0217
     35 H          -4.6920   -3.8293    1.9547 H       1  LIG1        0.0293
     36 H          -4.6946   -4.9649    0.5959 H       1  LIG1        0.0293
     37 H          -5.8188   -5.2170    1.9573 H       1  LIG1        0.0293
     38 N         -10.0859   -1.1579   -2.2402 N.1     1  LIG1       -0.1908
     39 C          -9.3599   -1.6786   -1.5189 C.1     1  LIG1        0.1014
     40 C          -9.9487   -4.0763    0.2182 C.ar    1  LIG1        0.0727
     41 C         -11.2469   -3.5863    0.2765 C.ar    1  LIG1        0.0180
     42 C         -12.0632   -4.7195    0.5397 C.ar    1  LIG1        0.1408
     43 C         -11.2619   -5.8365    0.6418 C.ar    1  LIG1        0.0447
     44 N          -9.9855   -5.4237    0.4522 N.ar    1  LIG1       -0.3561
     45 H          -9.1412   -5.9683    0.5449 H       1  LIG1        0.1655
     46 H         -11.5194   -6.8602    0.8499 H       1  LIG1        0.0844
     47 C         -11.7834   -2.1763    0.2542 C.3     1  LIG1       -0.0342
     48 H         -12.6873   -2.1584    0.8647 H       1  LIG1        0.0279
     49 H         -12.0271   -1.8491   -0.7569 H       1  LIG1        0.0279
     50 H         -11.0590   -1.4764    0.6720 H       1  LIG1        0.0279
     51 O         -13.4185   -4.6891    0.7129 O.3     1  LIG1       -0.4933
     52 C         -14.1438   -4.7031   -0.5119 C.3     1  LIG1        0.0789
     53 H         -15.1983   -4.6589   -0.2485 H       1  LIG1        0.0660
     54 H         -13.8752   -3.8411   -1.1265 H       1  LIG1        0.0660
     55 H         -13.9317   -5.6215   -1.0635 H       1  LIG1        0.0660
@<TRIPOS>BOND
     1    26    25    1
     2    25    24    3
     3    38    39    3
     4    24    21    1
     5    39    30    1
     6    22    20    1
     7    33    29    1
     8    54    52    1
     9    55    52    1
    10    21    20   ar
    11    21    18   ar
    12    20    17   ar
    13    49    47    1
    14    29    30   ar
    15    29    28   ar
    16    30    31   ar
    17    14    11    1
    18    52    53    1
    19    52    51    1
    20     6     5    1
    21     7     1    1
    22     5     1   ar
    23     5     4   ar
    24     1     2   ar
    25    28    18    1
    26    28    27   ar
    27    18    16   ar
    28    17     4    1
    29    17    15   ar
    30     4     3   ar
    31    31    40    1
    32    31    32   ar
    33    40    41   ar
    34    40    44   ar
    35     2     3   ar
    36     2     9    1
    37    47    41    1
    38    47    50    1
    39    47    48    1
    40    41    42   ar
    41     3    10    1
    42    11    12    1
    43    11    10    1
    44    11    13    1
    45    44    45    1
    46    44    43   ar
    47     9     8    3
    48    42    43   ar
    49    42    51    1
    50    36    34    1
    51    27    32   ar
    52    27    34    1
    53    43    46    1
    54    16    15   ar
    55    16    19    1
    56    15    23    1
    57    34    35    1
    58    34    37    1
