@<TRIPOS>MOLECULE
mol_data/opt/m06hf/geoms/mol2/13dl13dl-.out
 28 29 0 0 0
SMALL
GASTEIGER

@<TRIPOS>ATOM
      1 C           1.2499   -0.4065   -0.0002 C.ar    1  LIG1        0.0233
      2 C           0.8890    0.9326   -0.0002 C.ar    1  LIG1        0.1112
      3 C          -0.5397    0.9688    0.0004 C.ar    1  LIG1        0.1640
      4 C          -0.9797   -0.3364    0.0003 C.ar    1  LIG1        0.1078
      5 N           0.1297   -1.1470   -0.0002 N.ar    1  LIG1       -0.3553
      6 H           0.0912   -2.1598   -0.0004 H       1  LIG1        0.1655
      7 H           2.2327   -0.8436   -0.0005 H       1  LIG1        0.0821
      8 N           2.5913    2.8727   -0.0005 N.1     1  LIG1       -0.1907
      9 C           1.8313    2.0117   -0.0004 C.1     1  LIG1        0.1044
     10 O          -1.4083    2.0109    0.0009 O.3     1  LIG1       -0.4916
     11 C          -0.8528    3.3245    0.0008 C.3     1  LIG1        0.0789
     12 H          -1.7015    4.0026    0.0012 H       1  LIG1        0.0660
     13 H          -0.2473    3.4773    0.8943 H       1  LIG1        0.0660
     14 H          -0.2479    3.4774   -0.8932 H       1  LIG1        0.0660
     15 C          -2.3465   -0.8268    0.0007 C.ar    1  LIG1        0.0878
     16 C          -2.8421   -2.1237    0.0006 C.ar    1  LIG1        0.1200
     17 C          -4.2648   -2.0310    0.0012 C.ar    1  LIG1        0.1553
     18 C          -4.5870   -0.6952    0.0015 C.ar    1  LIG1        0.0457
     19 N          -3.4032    0.0100    0.0012 N.ar    1  LIG1       -0.3553
     20 H          -3.2914    1.0154    0.0013 H       1  LIG1        0.1655
     21 H          -5.5381   -0.1964    0.0019 H       1  LIG1        0.0845
     22 N          -1.2769   -4.1668   -0.0003 N.1     1  LIG1       -0.1907
     23 C          -2.0252   -3.2927    0.0001 C.1     1  LIG1        0.1050
     24 O          -5.0574   -3.1203    0.0014 O.3     1  LIG1       -0.4923
     25 C          -6.4484   -2.8559    0.0021 C.3     1  LIG1        0.0789
     26 H          -6.9422   -3.8232    0.0021 H       1  LIG1        0.0660
     27 H          -6.7252   -2.2934    0.8981 H       1  LIG1        0.0660
     28 H          -6.7259   -2.2931   -0.8936 H       1  LIG1        0.0660
@<TRIPOS>BOND
     1    28    25    1
     2    14    11    1
     3     8     9    3
     4     7     1    1
     5     9     2    1
     6     6     5    1
     7    22    23    3
     8     1     2   ar
     9     1     5   ar
    10     2     3   ar
    11     5     4   ar
    12    23    16    1
    13     4     3   ar
    14     4    15    1
    15     3    10    1
    16    16    15   ar
    17    16    17   ar
    18    15    19   ar
    19    11    10    1
    20    11    12    1
    21    11    13    1
    22    19    20    1
    23    19    18   ar
    24    17    24    1
    25    17    18   ar
    26    24    25    1
    27    18    21    1
    28    25    26    1
    29    25    27    1
