@<TRIPOS>MOLECULE
mol_data/opt/m06hf/geoms/mol2/13dl13da-4df6eh13df12fl-13el-13de-.out
 96 103 0 0 0
SMALL
GASTEIGER

@<TRIPOS>ATOM
      1 C           0.7228    0.0310   -2.3732 C.ar    1  LIG1        0.0233
      2 C           1.1275    0.6556   -1.2104 C.ar    1  LIG1        0.1112
      3 C           0.1438    0.3692   -0.2102 C.ar    1  LIG1        0.1640
      4 C          -0.8153   -0.4163   -0.8064 C.ar    1  LIG1        0.1077
      5 N          -0.4334   -0.6172   -2.1169 N.ar    1  LIG1       -0.3553
      6 H          -1.0036   -1.0746   -2.8108 H       1  LIG1        0.1655
      7 H           1.1887    0.0218   -3.3430 H       1  LIG1        0.0821
      8 N           3.3046    2.0113   -0.9224 N.1     1  LIG1       -0.1907
      9 C           2.3371    1.4072   -1.0534 C.1     1  LIG1        0.1044
     10 O           0.1344    0.7168    1.0891 O.3     1  LIG1       -0.4916
     11 C           0.3039    2.1164    1.3608 C.3     1  LIG1        0.0789
     12 H           0.0648    2.2392    2.4129 H       1  LIG1        0.0660
     13 H           1.3335    2.4147    1.1653 H       1  LIG1        0.0660
     14 H          -0.3938    2.6945    0.7554 H       1  LIG1        0.0660
     15 C          -2.0255   -0.9810   -0.2249 C.ar    1  LIG1        0.0845
     16 C          -2.9645   -0.3973    0.6062 C.ar    1  LIG1        0.0791
     17 C          -3.9383   -1.3808    0.9324 C.ar    1  LIG1       -0.0183
     18 C          -3.5704   -2.5346    0.2810 C.ar    1  LIG1        0.0496
     19 N          -2.4155   -2.2698   -0.4209 N.ar    1  LIG1       -0.3519
     20 H          -1.8237   -2.9789   -0.8287 H       1  LIG1        0.1660
     21 N          -2.9391    2.0800    1.3320 N.1     1  LIG1       -0.1908
     22 C          -2.9444    0.9768    1.0139 C.1     1  LIG1        0.1014
     23 H          -4.8078   -1.2382    1.5514 H       1  LIG1        0.0652
     24 C          -4.8841   -4.4159    1.3054 C.ar    1  LIG1        0.0617
     25 C          -5.4869   -5.6718    1.1991 C.ar    1  LIG1       -0.0324
     26 C          -4.2116   -3.8587    0.2098 C.ar    1  LIG1        0.0192
     27 C          -5.4232   -6.4024    0.0226 C.ar    1  LIG1        0.0275
     28 H          -5.9934   -6.0899    2.0594 H       1  LIG1        0.0638
     29 C          -4.1609   -4.5891   -0.9795 C.ar    1  LIG1       -0.0092
     30 C          -4.7547   -5.8446   -1.0782 C.ar    1  LIG1        0.1253
     31 H          -3.7013   -4.1492   -1.8574 H       1  LIG1        0.0661
     32 N          -5.0636   -3.2051    3.5919 N.1     1  LIG1       -0.1908
     33 C          -4.9660   -3.7268    2.5740 C.1     1  LIG1        0.0998
     34 O          -4.7555   -6.5572   -2.2215 O.3     1  LIG1       -0.5061
     35 H          -4.2582   -6.1174   -2.9186 H       1  LIG1        0.2922
     36 C          -5.3513   -8.9074   -0.3244 C.ar    1  LIG1        0.1218
     37 C          -6.0853   -7.7316   -0.0861 C.ar    1  LIG1        0.0213
     38 C          -7.4511   -7.8479    0.0817 C.ar    1  LIG1       -0.0284
     39 C          -8.1012   -9.0952    0.0044 C.ar    1  LIG1        0.0530
     40 C          -7.2753  -10.2039   -0.2958 C.ar    1  LIG1        0.1104
     41 N          -5.9543  -10.0806   -0.4219 N.ar    1  LIG1       -0.2344
     42 H          -8.0396   -6.9594    0.2796 H       1  LIG1        0.0643
     43 C          -3.9083   -8.8899   -0.4521 C.1     1  LIG1       -0.0492
     44 C          -2.7107   -8.8779   -0.5520 C.1     1  LIG1       -0.1124
     45 H          -1.6506   -8.8700   -0.6619 H       1  LIG1        0.1232
     46 N          -9.4305   -9.1774    0.2705 N.pl3   1  LIG1       -0.3563
     47 H          -9.9484   -8.3180    0.3566 H       1  LIG1        0.1424
     48 H          -9.9776   -9.9861    0.0248 H       1  LIG1        0.1424
     49 C          -7.7144  -11.6174   -0.4111 C.ar    1  LIG1        0.0885
     50 C          -8.8851  -12.3231   -0.7117 C.ar    1  LIG1        0.1206
     51 C          -8.5725  -13.7113   -0.6892 C.ar    1  LIG1        0.1633
     52 C          -7.2290  -13.8118   -0.3869 C.ar    1  LIG1        0.1297
     53 N          -6.7537  -12.5404   -0.2253 N.ar    1  LIG1       -0.3464
     54 H          -5.7933  -12.2682   -0.0590 H       1  LIG1        0.1662
     55 N         -11.1938  -11.3712   -1.3504 N.1     1  LIG1       -0.1907
     56 C         -10.1677  -11.8116   -1.0749 C.1     1  LIG1        0.1050
     57 O          -9.4765  -14.6752   -0.9380 O.3     1  LIG1       -0.5034
     58 H          -9.0804  -15.5573   -0.8652 H       1  LIG1        0.2923
     59 C          -6.3592  -14.9558   -0.2454 C.ar    1  LIG1        0.2005
     60 C          -6.5475  -16.2935   -0.3443 C.ar    1  LIG1        0.2077
     61 C          -5.2764  -16.9178   -0.1106 C.ar    1  LIG1        0.2099
     62 C          -4.3941  -15.9049    0.1318 C.ar    1  LIG1        0.1983
     63 O          -5.0520  -14.7152    0.0361 O.2     1  LIG1       -0.4441
     64 O          -7.7139  -16.9299   -0.6293 O.3     1  LIG1       -0.5008
     65 H          -7.5894  -17.8825   -0.5222 H       1  LIG1        0.2924
     66 O          -5.1267  -18.2610   -0.1641 O.3     1  LIG1       -0.4884
     67 C          -4.2072  -18.7170   -1.1662 C.3     1  LIG1        0.0791
     68 H          -4.1858  -19.7996   -1.0784 H       1  LIG1        0.0660
     69 H          -4.5636  -18.4148   -2.1521 H       1  LIG1        0.0660
     70 H          -3.2140  -18.3118   -0.9768 H       1  LIG1        0.0660
     71 C          -2.9818  -15.7962    0.4452 C.ar    1  LIG1        0.1056
     72 C          -2.0761  -16.6899    1.0027 C.ar    1  LIG1        0.0953
     73 C          -0.8277  -15.9943    1.0945 C.ar    1  LIG1        0.1627
     74 C          -1.0218  -14.7220    0.6035 C.ar    1  LIG1        0.1082
     75 N          -2.3384  -14.6219    0.2243 N.ar    1  LIG1       -0.3466
     76 H          -2.7509  -13.8413   -0.2647 H       1  LIG1        0.1662
     77 C          -2.3827  -17.9928    1.5053 C.1     1  LIG1       -0.0637
     78 C          -2.6528  -19.0856    1.9286 C.1     1  LIG1       -0.1137
     79 H          -2.9009  -20.0430    2.3251 H       1  LIG1        0.1232
     80 O           0.3275  -16.4297    1.6360 O.3     1  LIG1       -0.4917
     81 C           0.8734  -17.6136    1.0401 C.3     1  LIG1        0.0789
     82 H           1.8422  -17.7563    1.5102 H       1  LIG1        0.0660
     83 H           0.2233  -18.4651    1.2383 H       1  LIG1        0.0660
     84 H           1.0038  -17.4599   -0.0311 H       1  LIG1        0.0660
     85 C          -0.1031  -13.5924    0.5462 C.ar    1  LIG1        0.0853
     86 C           1.2148  -13.5258    0.1449 C.ar    1  LIG1        0.0938
     87 C           1.6556  -12.1728    0.3114 C.ar    1  LIG1        0.0600
     88 C           0.5815  -11.4716    0.8057 C.ar    1  LIG1        0.0190
     89 N          -0.4643  -12.3357    0.9384 N.ar    1  LIG1       -0.3573
     90 H          -1.3550  -12.1079    1.3546 H       1  LIG1        0.1655
     91 H           0.5049  -10.4348    1.0815 H       1  LIG1        0.0820
     92 N           2.5930  -15.4998   -0.7832 N.1     1  LIG1       -0.1908
     93 C           1.9803  -14.6226   -0.3660 C.1     1  LIG1        0.1026
     94 C           2.9577  -11.6557    0.0167 C.1     1  LIG1       -0.0669
     95 C           4.0552  -11.2382   -0.2343 C.1     1  LIG1       -0.1138
     96 H           5.0342  -10.8810   -0.4560 H       1  LIG1        0.1232
@<TRIPOS>BOND
     1     7     1    1
     2    35    34    1
     3     6     5    1
     4     1     5   ar
     5     1     2   ar
     6    34    30    1
     7    69    67    1
     8     5     4   ar
     9    31    29    1
    10    55    56    3
    11     2     9    1
    12     2     3   ar
    13    67    68    1
    14    67    70    1
    15    67    66    1
    16    30    29   ar
    17    30    27   ar
    18    56    50    1
    19     9     8    3
    20    29    26   ar
    21    57    58    1
    22    57    51    1
    23    20    19    1
    24     4    15    1
    25     4     3   ar
    26    92    93    3
    27    50    51   ar
    28    50    49   ar
    29    51    52   ar
    30    45    44    1
    31    64    65    1
    32    64    60    1
    33    44    43    3
    34    96    95    1
    35    43    36    1
    36    41    36   ar
    37    41    40   ar
    38    19    15   ar
    39    19    18   ar
    40    49    40    1
    41    49    53   ar
    42    52    59    1
    43    52    53   ar
    44    93    86    1
    45    60    59   ar
    46    60    61   ar
    47    36    37   ar
    48    40    39   ar
    49    76    75    1
    50    59    63   ar
    51    95    94    3
    52    53    54    1
    53    15    16   ar
    54     3    10    1
    55    66    61    1
    56    61    62   ar
    57    37    27    1
    58    37    38   ar
    59    84    81    1
    60    39    38   ar
    61    39    46    1
    62    94    87    1
    63    27    25   ar
    64    48    46    1
    65    63    62   ar
    66    38    42    1
    67    62    71    1
    68    86    87   ar
    69    86    85   ar
    70    26    18    1
    71    26    24   ar
    72    75    71   ar
    73    75    74   ar
    74    46    47    1
    75    18    17   ar
    76    87    88   ar
    77    71    72   ar
    78    85    74    1
    79    85    89   ar
    80    74    73   ar
    81    16    17   ar
    82    16    22    1
    83    14    11    1
    84    88    89   ar
    85    88    91    1
    86    17    23    1
    87    89    90    1
    88    72    73   ar
    89    72    77    1
    90    22    21    3
    91    81    83    1
    92    81    82    1
    93    81    80    1
    94    10    11    1
    95    73    80    1
    96    13    11    1
    97    25    24   ar
    98    25    28    1
    99    24    33    1
   100    11    12    1
   101    77    78    3
   102    78    79    1
   103    33    32    3
