@<TRIPOS>MOLECULE
mol_data/opt/m06hf/geoms/mol2/13dl13dl13dl13dl-.out
 54 57 0 0 0
SMALL
GASTEIGER

@<TRIPOS>ATOM
      1 C           1.4313   -0.3847   -0.0874 C.ar    1  LIG1        0.0233
      2 C           1.0653    0.8662   -0.5450 C.ar    1  LIG1        0.1112
      3 C          -0.3641    0.9295   -0.5074 C.ar    1  LIG1        0.1640
      4 C          -0.8042   -0.2819   -0.0266 C.ar    1  LIG1        0.1078
      5 N           0.3056   -1.0663    0.2099 N.ar    1  LIG1       -0.3553
      6 H           0.2811   -1.9821    0.6343 H       1  LIG1        0.1655
      7 H           2.4118   -0.8092    0.0420 H       1  LIG1        0.0821
      8 N           2.6736    2.6928   -1.4039 N.1     1  LIG1       -0.1907
      9 C           1.9642    1.8762   -1.0183 C.1     1  LIG1        0.1044
     10 O          -1.1773    1.9220   -0.9143 O.3     1  LIG1       -0.4916
     11 C          -0.9283    3.2090   -0.3293 C.3     1  LIG1        0.0789
     12 H          -1.7766    3.8256   -0.6103 H       1  LIG1        0.0660
     13 H          -0.8838    3.1158    0.7560 H       1  LIG1        0.0660
     14 H          -0.0029    3.6281   -0.7235 H       1  LIG1        0.0660
     15 C          -2.1628   -0.7613    0.1735 C.ar    1  LIG1        0.0883
     16 C          -3.2903   -0.1091    0.6447 C.ar    1  LIG1        0.1207
     17 C          -4.3638   -1.0564    0.6444 C.ar    1  LIG1        0.1647
     18 C          -3.8548   -2.2416    0.1698 C.ar    1  LIG1        0.1083
     19 N          -2.5149   -2.0431   -0.0975 N.ar    1  LIG1       -0.3478
     20 H          -1.9399   -2.6810   -0.6310 H       1  LIG1        0.1661
     21 N          -3.3853    2.3092    1.5369 N.1     1  LIG1       -0.1907
     22 C          -3.3289    1.2349    1.1331 C.1     1  LIG1        0.1050
     23 O          -5.6190   -0.8971    1.1034 O.3     1  LIG1       -0.4916
     24 C          -6.3686    0.1615    0.4885 C.3     1  LIG1        0.0789
     25 H          -7.3749    0.0746    0.8860 H       1  LIG1        0.0660
     26 H          -5.9362    1.1278    0.7485 H       1  LIG1        0.0660
     27 H          -6.3829    0.0179   -0.5920 H       1  LIG1        0.0660
     28 C          -4.4447   -3.5625    0.0428 C.ar    1  LIG1        0.0883
     29 C          -5.7303   -3.9919   -0.2802 C.ar    1  LIG1        0.1207
     30 C          -5.6919   -5.4223   -0.2891 C.ar    1  LIG1        0.1647
     31 C          -4.4024   -5.8002    0.0117 C.ar    1  LIG1        0.1083
     32 N          -3.6754   -4.6555    0.2137 N.ar    1  LIG1       -0.3478
     33 H          -2.7207   -4.6434    0.5506 H       1  LIG1        0.1661
     34 N          -7.6794   -2.4236   -0.9081 N.1     1  LIG1       -0.1907
     35 C          -6.8089   -3.1144   -0.6163 C.1     1  LIG1        0.1050
     36 O          -6.6510   -6.3422   -0.5476 O.3     1  LIG1       -0.4916
     37 C          -7.9965   -5.8774   -0.6643 C.3     1  LIG1        0.0789
     38 H          -8.6077   -6.7704   -0.7572 H       1  LIG1        0.0660
     39 H          -8.2777   -5.3165    0.2278 H       1  LIG1        0.0660
     40 H          -8.1052   -5.2533   -1.5505 H       1  LIG1        0.0660
     41 C          -3.8162   -7.1224    0.0887 C.ar    1  LIG1        0.0878
     42 C          -2.4883   -7.4972    0.2659 C.ar    1  LIG1        0.1200
     43 C          -2.4496   -8.9234    0.2472 C.ar    1  LIG1        0.1553
     44 C          -3.7377   -9.3634    0.0593 C.ar    1  LIG1        0.0457
     45 N          -4.5433   -8.2479   -0.0317 N.ar    1  LIG1       -0.3553
     46 H          -5.5413   -8.2300   -0.1953 H       1  LIG1        0.1655
     47 H          -4.1429  -10.3555   -0.0183 H       1  LIG1        0.0845
     48 N          -0.6600   -5.7011    0.4994 N.1     1  LIG1       -0.1907
     49 C          -1.4206   -6.5610    0.4021 C.1     1  LIG1        0.1050
     50 O          -1.3058   -9.6186    0.3928 O.3     1  LIG1       -0.4923
     51 C          -1.4477  -11.0274    0.3382 C.3     1  LIG1        0.0789
     52 H          -0.4525  -11.4406    0.4727 H       1  LIG1        0.0660
     53 H          -2.1063  -11.3703    1.1404 H       1  LIG1        0.0660
     54 H          -1.8512  -11.3285   -0.6321 H       1  LIG1        0.0660
@<TRIPOS>BOND
     1    40    37    1
     2     8     9    3
     3     9     2    1
     4    10     3    1
     5    10    11    1
     6    34    35    3
     7    38    37    1
     8    14    11    1
     9    37    36    1
    10    37    39    1
    11    54    51    1
    12    20    19    1
    13    35    29    1
    14    12    11    1
    15    27    24    1
    16    36    30    1
    17     2     3   ar
    18     2     1   ar
    19     3     4   ar
    20    11    13    1
    21    30    29   ar
    22    30    31   ar
    23    29    28   ar
    24    46    45    1
    25    19    18   ar
    26    19    15   ar
    27     1     7    1
    28     1     5   ar
    29    45    44   ar
    30    45    41   ar
    31     4    15    1
    32     4     5   ar
    33    47    44    1
    34    31    41    1
    35    31    32   ar
    36    28    18    1
    37    28    32   ar
    38    44    43   ar
    39    41    42   ar
    40    18    17   ar
    41    15    16   ar
    42     5     6    1
    43    32    33    1
    44    43    42   ar
    45    43    50    1
    46    42    49    1
    47    51    50    1
    48    51    52    1
    49    51    53    1
    50    49    48    3
    51    24    26    1
    52    24    25    1
    53    24    23    1
    54    17    16   ar
    55    17    23    1
    56    16    22    1
    57    22    21    3
