@<TRIPOS>MOLECULE
mol_data/opt/m06hf/geoms/mol2/13dl13dl13dl13dl.out
 54 57 0 0 0
SMALL
GASTEIGER

@<TRIPOS>ATOM
      1 C           0.4731    0.4876   -2.4964 C.ar    1  LIG1        0.0233
      2 C           0.8109    1.1880   -1.3551 C.ar    1  LIG1        0.1112
      3 C          -0.1813    0.8910   -0.3669 C.ar    1  LIG1        0.1640
      4 C          -1.0767    0.0242   -0.9472 C.ar    1  LIG1        0.1078
      5 N          -0.6505   -0.2138   -2.2376 N.ar    1  LIG1       -0.3553
      6 H          -1.1778   -0.7315   -2.9239 H       1  LIG1        0.1655
      7 H           0.9617    0.4618   -3.4545 H       1  LIG1        0.0821
      8 N           2.9010    2.6743   -1.0679 N.1     1  LIG1       -0.1907
      9 C           1.9717    2.0133   -1.2011 C.1     1  LIG1        0.1044
     10 O          -0.2518    1.2990    0.9134 O.3     1  LIG1       -0.4916
     11 C          -0.1537    2.7155    1.1226 C.3     1  LIG1        0.0789
     12 H          -0.4755    2.8816    2.1465 H       1  LIG1        0.0660
     13 H           0.8761    3.0450    0.9872 H       1  LIG1        0.0660
     14 H          -0.8234    3.2361    0.4378 H       1  LIG1        0.0660
     15 C          -2.2666   -0.5869   -0.3679 C.ar    1  LIG1        0.0883
     16 C          -3.2888   -0.0023    0.3640 C.ar    1  LIG1        0.1207
     17 C          -4.2250   -1.0324    0.6874 C.ar    1  LIG1        0.1647
     18 C          -3.7411   -2.2005    0.1446 C.ar    1  LIG1        0.1083
     19 N          -2.5498   -1.9066   -0.4821 N.ar    1  LIG1       -0.3478
     20 H          -1.9635   -2.5783   -0.9538 H       1  LIG1        0.1661
     21 N          -3.3984    2.4910    1.0140 N.1     1  LIG1       -0.1907
     22 C          -3.3418    1.3811    0.7236 C.1     1  LIG1        0.1050
     23 O          -5.3550   -0.9547    1.4136 O.3     1  LIG1       -0.4916
     24 C          -6.2890    0.0571    1.0082 C.3     1  LIG1        0.0789
     25 H          -7.1866   -0.1285    1.5907 H       1  LIG1        0.0660
     26 H          -5.8934    1.0481    1.2298 H       1  LIG1        0.0660
     27 H          -6.5082   -0.0502   -0.0543 H       1  LIG1        0.0660
     28 C          -4.3301   -3.5351    0.1769 C.ar    1  LIG1        0.0883
     29 C          -5.5971   -3.9380   -0.2138 C.ar    1  LIG1        0.1207
     30 C          -5.6847   -5.3462    0.0053 C.ar    1  LIG1        0.1647
     31 C          -4.4726   -5.7490    0.5195 C.ar    1  LIG1        0.1083
     32 N          -3.6728   -4.6336    0.6205 N.ar    1  LIG1       -0.3478
     33 H          -2.7313   -4.6310    0.9829 H       1  LIG1        0.1661
     34 N          -7.4099   -2.3338   -1.1064 N.1     1  LIG1       -0.1907
     35 C          -6.6047   -3.0499   -0.7077 C.1     1  LIG1        0.1050
     36 O          -6.7319   -6.1686   -0.1942 O.3     1  LIG1       -0.4916
     37 C          -7.2915   -6.1422   -1.5152 C.3     1  LIG1        0.0789
     38 H          -8.0058   -6.9599   -1.5460 H       1  LIG1        0.0660
     39 H          -7.7981   -5.1930   -1.6914 H       1  LIG1        0.0660
     40 H          -6.5043   -6.3082   -2.2506 H       1  LIG1        0.0660
     41 C          -4.0450   -7.0864    0.9165 C.ar    1  LIG1        0.0878
     42 C          -4.0967   -8.2671    0.1996 C.ar    1  LIG1        0.1200
     43 C          -3.5697   -9.2987    1.0398 C.ar    1  LIG1        0.1553
     44 C          -3.2207   -8.7114    2.2280 C.ar    1  LIG1        0.0457
     45 N          -3.5071   -7.3732    2.1300 N.ar    1  LIG1       -0.3553
     46 H          -3.4440   -6.7110    2.8881 H       1  LIG1        0.1655
     47 H          -2.7902   -9.1492    3.1100 H       1  LIG1        0.0845
     48 N          -4.9374   -8.4825   -2.2296 N.1     1  LIG1       -0.1907
     49 C          -4.5616   -8.3806   -1.1485 C.1     1  LIG1        0.1050
     50 O          -3.3947  -10.6050    0.7279 O.3     1  LIG1       -0.4923
     51 C          -4.5973  -11.3025    0.3943 C.3     1  LIG1        0.0789
     52 H          -4.3097  -12.3404    0.2502 H       1  LIG1        0.0660
     53 H          -5.3145  -11.2176    1.2128 H       1  LIG1        0.0660
     54 H          -5.0291  -10.9063   -0.5252 H       1  LIG1        0.0660
@<TRIPOS>BOND
     1     7     1    1
     2     6     5    1
     3     1     5   ar
     4     1     2   ar
     5    40    37    1
     6     5     4   ar
     7    48    49    3
     8    39    37    1
     9    38    37    1
    10    37    36    1
    11     2     9    1
    12     2     3   ar
    13     9     8    3
    14    49    42    1
    15    34    35    3
    16    20    19    1
    17     4    15    1
    18     4     3   ar
    19    35    29    1
    20    54    51    1
    21    19    15   ar
    22    19    18   ar
    23    15    16   ar
    24     3    10    1
    25    29    30   ar
    26    29    28   ar
    27    36    30    1
    28    27    24    1
    29    30    31   ar
    30    18    28    1
    31    18    17   ar
    32    28    32   ar
    33    42    41   ar
    34    42    43   ar
    35    52    51    1
    36    16    17   ar
    37    16    22    1
    38    51    50    1
    39    51    53    1
    40    14    11    1
    41    31    32   ar
    42    31    41    1
    43    32    33    1
    44    17    23    1
    45    22    21    3
    46    50    43    1
    47    10    11    1
    48    41    45   ar
    49    13    11    1
    50    24    26    1
    51    24    23    1
    52    24    25    1
    53    43    44   ar
    54    11    12    1
    55    45    44   ar
    56    45    46    1
    57    44    47    1
