@<TRIPOS>MOLECULE
mol_data/opt/m06hf/geoms/mol2/13dl13eh12hd4af.out
 48 51 0 0 0
SMALL
GASTEIGER

@<TRIPOS>ATOM
      1 C           1.3973    0.0882    0.3127 C.ar    1  LIG1        0.0233
      2 C           0.9679    1.1797   -0.4152 C.ar    1  LIG1        0.1112
      3 C          -0.4468    1.0414   -0.5932 C.ar    1  LIG1        0.1640
      4 C          -0.8192   -0.1224    0.0353 C.ar    1  LIG1        0.1077
      5 N           0.3213   -0.6868    0.5662 N.ar    1  LIG1       -0.3553
      6 H           0.3184   -1.5067    1.1529 H       1  LIG1        0.1655
      7 H           2.3859   -0.1616    0.6556 H       1  LIG1        0.0821
      8 N           2.4843    3.0567   -1.3320 N.1     1  LIG1       -0.1907
      9 C           1.8124    2.2189   -0.9246 C.1     1  LIG1        0.1044
     10 O          -1.2835    1.8366   -1.2914 O.3     1  LIG1       -0.4916
     11 C          -1.2924    3.2094   -0.8890 C.3     1  LIG1        0.0789
     12 H          -2.1276    3.6644   -1.4141 H       1  LIG1        0.0660
     13 H          -1.4478    3.2735    0.1885 H       1  LIG1        0.0660
     14 H          -0.3589    3.6958   -1.1734 H       1  LIG1        0.0660
     15 C          -2.1328   -0.7446    0.1550 C.ar    1  LIG1        0.0844
     16 C          -3.3398   -0.1927    0.5516 C.ar    1  LIG1        0.0728
     17 C          -4.3245   -1.2320    0.5108 C.ar    1  LIG1        0.0696
     18 C          -3.6710   -2.3731    0.0783 C.ar    1  LIG1        0.1066
     19 N          -2.3405   -2.0557   -0.1194 N.ar    1  LIG1       -0.3480
     20 H          -1.6734   -2.6606   -0.5719 H       1  LIG1        0.1661
     21 C          -3.5845    1.1486    0.9773 C.1     1  LIG1       -0.0656
     22 C          -3.8502    2.2608    1.3523 C.1     1  LIG1       -0.1138
     23 H          -4.0757    3.2456    1.6902 H       1  LIG1        0.1232
     24 N          -5.6333   -1.1143    0.9239 N.pl3   1  LIG1       -0.3553
     25 H          -5.9532   -0.1591    1.0016 H       1  LIG1        0.1424
     26 H          -6.2823   -1.7586    0.4767 H       1  LIG1        0.1424
     27 C          -4.1926   -3.7021   -0.1410 C.ar    1  LIG1        0.1754
     28 C          -5.4282   -4.1542   -0.4890 C.ar    1  LIG1        0.0908
     29 C          -5.3185   -5.5924   -0.5172 C.ar    1  LIG1        0.1187
     30 C          -4.0233   -5.9076   -0.2102 C.ar    1  LIG1        0.1550
     31 O          -3.3492   -4.7622    0.0089 O.2     1  LIG1       -0.4501
     32 N          -6.5617   -3.3678   -0.7933 N.pl3   1  LIG1       -0.3540
     33 H          -6.4939   -2.9592   -1.7217 H       1  LIG1        0.1425
     34 H          -7.4180   -3.9096   -0.7277 H       1  LIG1        0.1425
     35 N          -7.3036   -7.1278   -1.1111 N.1     1  LIG1       -0.1907
     36 C          -6.4025   -6.4686   -0.8400 C.1     1  LIG1        0.1048
     37 C          -3.8945   -8.3924   -0.3607 C.ar    1  LIG1       -0.0508
     38 C          -3.1551   -9.5652   -0.2303 C.ar    1  LIG1       -0.0576
     39 C          -3.2808   -7.1695   -0.0866 C.ar    1  LIG1        0.0221
     40 C          -1.8240   -9.5321    0.1607 C.ar    1  LIG1       -0.0201
     41 H          -3.6264  -10.5158   -0.4404 H       1  LIG1        0.0619
     42 C          -1.9408   -7.1224    0.3108 C.ar    1  LIG1       -0.0095
     43 C          -1.2193   -8.3038    0.4305 C.ar    1  LIG1        0.1175
     44 H          -1.4768   -6.1682    0.5282 H       1  LIG1        0.0661
     45 H          -1.2348  -10.4326    0.2654 H       1  LIG1        0.0654
     46 H          -4.9288   -8.4376   -0.6707 H       1  LIG1        0.0625
     47 O           0.0872   -8.3250    0.8088 O.3     1  LIG1       -0.5067
     48 H           0.4089   -7.4340    0.9798 H       1  LIG1        0.2921
@<TRIPOS>BOND
     1    33    32    1
     2    12    11    1
     3     8     9    3
     4    10    11    1
     5    10     3    1
     6    14    11    1
     7    35    36    3
     8     9     2    1
     9    11    13    1
    10    36    29    1
    11    32    34    1
    12    32    28    1
    13    46    37    1
    14     3     2   ar
    15     3     4   ar
    16    20    19    1
    17    29    28   ar
    18    29    30   ar
    19    28    27   ar
    20    41    38    1
    21     2     1   ar
    22    37    38   ar
    23    37    39   ar
    24    38    40   ar
    25    30    39    1
    26    30    31   ar
    27    27    31   ar
    28    27    18    1
    29    19    18   ar
    30    19    15   ar
    31    39    42   ar
    32     4    15    1
    33     4     5   ar
    34    18    17   ar
    35    15    16   ar
    36    40    45    1
    37    40    43   ar
    38    42    43   ar
    39    42    44    1
    40     1     5   ar
    41     1     7    1
    42    43    47    1
    43    26    24    1
    44    17    16   ar
    45    17    24    1
    46    16    21    1
    47     5     6    1
    48    47    48    1
    49    24    25    1
    50    21    22    3
    51    22    23    1
