@<TRIPOS>MOLECULE
mol_data/opt/m06hf/geoms/mol2/13dl13fl-12ia-12hh.out
 49 52 0 0 0
SMALL
GASTEIGER

@<TRIPOS>ATOM
      1 C           1.2257    0.3337    1.5475 C.ar    1  LIG1        0.0233
      2 C           1.1396    1.0799    0.3904 C.ar    1  LIG1        0.1112
      3 C          -0.1547    0.8437   -0.1719 C.ar    1  LIG1        0.1641
      4 C          -0.8118   -0.0229    0.6678 C.ar    1  LIG1        0.1101
      5 N           0.0537   -0.3216    1.6989 N.ar    1  LIG1       -0.3553
      6 H          -0.1988   -0.8928    2.4903 H       1  LIG1        0.1655
      7 H           2.0359    0.2412    2.2492 H       1  LIG1        0.0821
      8 N           2.9631    2.6046   -0.6137 N.1     1  LIG1       -0.1907
      9 C           2.1606    1.9181   -0.1627 C.1     1  LIG1        0.1044
     10 O          -0.6309    1.3450   -1.3342 O.3     1  LIG1       -0.4916
     11 C          -1.0326    2.7175   -1.2493 C.3     1  LIG1        0.0789
     12 H          -1.3694    2.9911   -2.2460 H       1  LIG1        0.0660
     13 H          -1.8471    2.8113   -0.5306 H       1  LIG1        0.0660
     14 H          -0.1843    3.3403   -0.9605 H       1  LIG1        0.0660
     15 C          -2.1561   -0.5805    0.5795 C.ar    1  LIG1        0.1128
     16 C          -3.3734    0.0506    0.4691 C.ar    1  LIG1        0.1867
     17 C          -4.3750   -0.9480    0.4210 C.ar    1  LIG1        0.1904
     18 C          -3.7471   -2.1775    0.5129 C.ar    1  LIG1        0.1288
     19 N          -2.4101   -1.9321    0.6059 N.ar    1  LIG1       -0.3446
     20 H          -1.7098   -2.6569    0.5504 H       1  LIG1        0.1663
     21 O          -3.6020    1.3894    0.4304 O.3     1  LIG1       -0.5019
     22 H          -4.5588    1.5195    0.4705 H       1  LIG1        0.2924
     23 O          -5.7059   -0.6532    0.2991 O.3     1  LIG1       -0.4894
     24 C          -6.2244   -0.9444   -1.0019 C.3     1  LIG1        0.0791
     25 H          -7.2743   -0.6595   -0.9859 H       1  LIG1        0.0660
     26 H          -5.6818   -0.3682   -1.7533 H       1  LIG1        0.0660
     27 H          -6.1261   -2.0109   -1.2110 H       1  LIG1        0.0660
     28 C          -4.2441   -3.5472    0.4887 C.ar    1  LIG1        0.1585
     29 C          -5.4355   -4.1398    0.7808 C.ar    1  LIG1       -0.0024
     30 C          -5.2181   -5.5485    0.5654 C.ar    1  LIG1       -0.0091
     31 C          -3.9242   -5.6881    0.1701 C.ar    1  LIG1        0.1728
     32 O          -3.3252   -4.4773    0.1144 O.2     1  LIG1       -0.4498
     33 C          -6.6996   -3.4985    1.2943 C.3     1  LIG1       -0.0360
     34 H          -6.9860   -3.9615    2.2394 H       1  LIG1        0.0279
     35 H          -7.5138   -3.6465    0.5816 H       1  LIG1        0.0279
     36 H          -6.5532   -2.4299    1.4455 H       1  LIG1        0.0279
     37 H          -5.9185   -6.3500    0.7383 H       1  LIG1        0.0659
     38 C          -3.1583   -6.8528   -0.2265 C.ar    1  LIG1        0.1920
     39 C          -3.5663   -8.0195   -0.7953 C.ar    1  LIG1        0.0950
     40 C          -2.3752   -8.8176   -0.9507 C.ar    1  LIG1        0.0846
     41 C          -1.3545   -8.0595   -0.4772 C.ar    1  LIG1        0.1152
     42 O          -1.8101   -6.8670   -0.0421 O.2     1  LIG1       -0.4560
     43 H          -0.2944   -8.2297   -0.4083 H       1  LIG1        0.1049
     44 N          -4.8387   -8.4478   -1.1689 N.pl3   1  LIG1       -0.3535
     45 H          -5.4594   -7.6812   -1.4034 H       1  LIG1        0.1425
     46 H          -4.7750   -9.1188   -1.9288 H       1  LIG1        0.1425
     47 N          -2.4029  -10.0891   -1.5671 N.pl3   1  LIG1       -0.3541
     48 H          -1.4918  -10.3815   -1.8996 H       1  LIG1        0.1425
     49 H          -2.7826  -10.7981   -0.9469 H       1  LIG1        0.1425
@<TRIPOS>BOND
     1    12    11    1
     2    46    44    1
     3    48    47    1
     4    26    24    1
     5    47    40    1
     6    47    49    1
     7    45    44    1
     8    10    11    1
     9    10     3    1
    10    11    14    1
    11    11    13    1
    12    27    24    1
    13    44    39    1
    14    24    25    1
    15    24    23    1
    16    40    39   ar
    17    40    41   ar
    18    39    38   ar
    19     8     9    3
    20    41    43    1
    21    41    42   ar
    22    38    42   ar
    23    38    31    1
    24     3     2   ar
    25     3     4   ar
    26     9     2    1
    27    32    31   ar
    28    32    28   ar
    29    31    30   ar
    30    23    17    1
    31     2     1   ar
    32    17    16   ar
    33    17    18   ar
    34    21    16    1
    35    21    22    1
    36    16    15   ar
    37    28    18    1
    38    28    29   ar
    39    18    19   ar
    40    20    19    1
    41    30    37    1
    42    30    29   ar
    43    15    19   ar
    44    15     4    1
    45    35    33    1
    46     4     5   ar
    47    29    33    1
    48    33    36    1
    49    33    34    1
    50     1     5   ar
    51     1     7    1
    52     5     6    1
