@<TRIPOS>MOLECULE
mol_data/opt/m06hf/geoms/mol2/13dl13dl13dl.out
 41 43 0 0 0
SMALL
GASTEIGER

@<TRIPOS>ATOM
      1 C           1.1251   -0.0028   -1.4427 C.ar    1  LIG1        0.0233
      2 C           1.0765    0.9564   -0.4506 C.ar    1  LIG1        0.1112
      3 C          -0.1995    0.8400    0.1892 C.ar    1  LIG1        0.1640
      4 C          -0.8698   -0.1818   -0.4404 C.ar    1  LIG1        0.1078
      5 N          -0.0392   -0.6854   -1.4200 N.ar    1  LIG1       -0.3553
      6 H          -0.3197   -1.3710   -2.1043 H       1  LIG1        0.1655
      7 H           1.9094   -0.2209   -2.1466 H       1  LIG1        0.0821
      8 N           2.9911    2.5770    0.1573 N.1     1  LIG1       -0.1907
      9 C           2.1418    1.8541   -0.1162 C.1     1  LIG1        0.1044
     10 O          -0.6846    1.5201    1.2440 O.3     1  LIG1       -0.4916
     11 C          -0.6222    2.9504    1.1457 C.3     1  LIG1        0.0789
     12 H          -1.2436    3.3243    1.9540 H       1  LIG1        0.0660
     13 H           0.4056    3.2908    1.2656 H       1  LIG1        0.0660
     14 H          -1.0309    3.2710    0.1876 H       1  LIG1        0.0660
     15 C          -2.2026   -0.7066   -0.1698 C.ar    1  LIG1        0.0883
     16 C          -3.3958   -0.0270    0.0159 C.ar    1  LIG1        0.1207
     17 C          -4.4141   -1.0044    0.2405 C.ar    1  LIG1        0.1647
     18 C          -3.8082   -2.2385    0.1819 C.ar    1  LIG1        0.1083
     19 N          -2.4681   -2.0312   -0.0602 N.ar    1  LIG1       -0.3478
     20 H          -1.7774   -2.7624   -0.1393 H       1  LIG1        0.1661
     21 N          -3.6610    2.5390   -0.0170 N.1     1  LIG1       -0.1907
     22 C          -3.5334    1.3973    0.0005 C.1     1  LIG1        0.1050
     23 O          -5.7204   -0.8131    0.5065 O.3     1  LIG1       -0.4916
     24 C          -6.4369   -0.0236   -0.4547 C.3     1  LIG1        0.0789
     25 H          -7.4813   -0.0890   -0.1633 H       1  LIG1        0.0660
     26 H          -6.0992    1.0118   -0.4187 H       1  LIG1        0.0660
     27 H          -6.3016   -0.4457   -1.4501 H       1  LIG1        0.0660
     28 C          -4.3938   -3.5629    0.3552 C.ar    1  LIG1        0.0878
     29 C          -5.5091   -4.1163   -0.2456 C.ar    1  LIG1        0.1200
     30 C          -5.6598   -5.4407    0.2755 C.ar    1  LIG1        0.1553
     31 C          -4.6407   -5.6416    1.1689 C.ar    1  LIG1        0.0457
     32 N          -3.8813   -4.4990    1.1956 N.ar    1  LIG1       -0.3553
     33 H          -3.1240   -4.3223    1.8379 H       1  LIG1        0.1655
     34 H          -4.4079   -6.5075    1.7617 H       1  LIG1        0.0845
     35 N          -6.9629   -2.9603   -2.0359 N.1     1  LIG1       -0.1907
     36 C          -6.3100   -3.4694   -1.2390 C.1     1  LIG1        0.1050
     37 O          -6.5941   -6.3588   -0.0697 O.3     1  LIG1       -0.4923
     38 C          -7.9422   -5.9622    0.1952 C.3     1  LIG1        0.0789
     39 H          -8.5601   -6.8198   -0.0569 H       1  LIG1        0.0660
     40 H          -8.0531   -5.7109    1.2515 H       1  LIG1        0.0660
     41 H          -8.2209   -5.1086   -0.4237 H       1  LIG1        0.0660
@<TRIPOS>BOND
     1     7     1    1
     2     6     5    1
     3    35    36    3
     4    27    24    1
     5     1     5   ar
     6     1     2   ar
     7     5     4   ar
     8    36    29    1
     9    24    26    1
    10    24    25    1
    11    24    23    1
    12     2     9    1
    13     2     3   ar
    14     4    15    1
    15     4     3   ar
    16    41    38    1
    17    29    30   ar
    18    29    28   ar
    19    15    19   ar
    20    15    16   ar
    21    20    19    1
    22     9     8    3
    23    37    38    1
    24    37    30    1
    25    19    18   ar
    26    39    38    1
    27    21    22    3
    28    22    16    1
    29    16    17   ar
    30    18    17   ar
    31    18    28    1
    32    14    11    1
    33     3    10    1
    34    38    40    1
    35    17    23    1
    36    30    31   ar
    37    28    32   ar
    38    11    10    1
    39    11    13    1
    40    11    12    1
    41    31    32   ar
    42    31    34    1
    43    32    33    1
