@<TRIPOS>MOLECULE
mol_data/opt/m06hf/geoms/mol2/13dl13dl13dl-13dl.out
 54 57 0 0 0
SMALL
GASTEIGER

@<TRIPOS>ATOM
      1 C           1.3438   -0.4036   -0.4636 C.ar    1  LIG1        0.0233
      2 C           1.0380    0.7609    0.2128 C.ar    1  LIG1        0.1112
      3 C          -0.3780    0.7712    0.4205 C.ar    1  LIG1        0.1640
      4 C          -0.8727   -0.3828   -0.1431 C.ar    1  LIG1        0.1078
      5 N           0.1957   -1.0828   -0.6633 N.ar    1  LIG1       -0.3553
      6 H           0.1161   -1.9391   -1.1915 H       1  LIG1        0.1655
      7 H           2.2965   -0.7693   -0.8040 H       1  LIG1        0.0821
      8 N           2.7479    2.5126    1.0289 N.1     1  LIG1       -0.1907
      9 C           1.9906    1.7310    0.6630 C.1     1  LIG1        0.1044
     10 O          -1.1259    1.6673    1.0914 O.3     1  LIG1       -0.4916
     11 C          -0.9780    3.0327    0.6770 C.3     1  LIG1        0.0789
     12 H          -1.7538    3.5820    1.2016 H       1  LIG1        0.0660
     13 H           0.0078    3.4057    0.9536 H       1  LIG1        0.0660
     14 H          -1.1377    3.1084   -0.3986 H       1  LIG1        0.0660
     15 C          -2.2333   -0.8967   -0.1711 C.ar    1  LIG1        0.0883
     16 C          -3.4440   -0.2269   -0.3336 C.ar    1  LIG1        0.1207
     17 C          -4.4699   -1.2175   -0.2873 C.ar    1  LIG1        0.1647
     18 C          -3.8542   -2.4383   -0.1098 C.ar    1  LIG1        0.1083
     19 N          -2.5000   -2.2143   -0.0416 N.ar    1  LIG1       -0.3478
     20 H          -1.8149   -2.9223    0.1923 H       1  LIG1        0.1661
     21 N          -3.6801    2.2960   -0.8137 N.1     1  LIG1       -0.1907
     22 C          -3.5658    1.1757   -0.5865 C.1     1  LIG1        0.1050
     23 O          -5.8095   -1.1275   -0.4041 O.3     1  LIG1       -0.4916
     24 C          -6.4257    0.1608   -0.3198 C.3     1  LIG1        0.0789
     25 H          -7.4914   -0.0430   -0.2857 H       1  LIG1        0.0660
     26 H          -6.0970    0.6686    0.5883 H       1  LIG1        0.0660
     27 H          -6.1708    0.7541   -1.1973 H       1  LIG1        0.0660
     28 C          -4.4894   -3.7356   -0.0136 C.ar    1  LIG1        0.0883
     29 C          -3.9379   -5.0158    0.0959 C.ar    1  LIG1        0.1207
     30 C          -5.0345   -5.9281    0.1496 C.ar    1  LIG1        0.1647
     31 C          -6.1908   -5.1824    0.0706 C.ar    1  LIG1        0.1083
     32 N          -5.8272   -3.8618   -0.0272 N.ar    1  LIG1       -0.3478
     33 H          -6.4534   -3.0627   -0.1165 H       1  LIG1        0.1661
     34 N          -1.3771   -5.2866    0.1047 N.1     1  LIG1       -0.1907
     35 C          -2.5270   -5.2261    0.1083 C.1     1  LIG1        0.1050
     36 O          -5.0548   -7.2793    0.2542 O.3     1  LIG1       -0.4916
     37 C          -3.7952   -7.9413    0.3285 C.3     1  LIG1        0.0789
     38 H          -4.0200   -9.0013    0.4030 H       1  LIG1        0.0660
     39 H          -3.2125   -7.7440   -0.5727 H       1  LIG1        0.0660
     40 H          -3.2479   -7.6108    1.2130 H       1  LIG1        0.0660
     41 C          -7.5641   -5.6525    0.0787 C.ar    1  LIG1        0.0878
     42 C          -8.7683   -4.9542   -0.0061 C.ar    1  LIG1        0.1200
     43 C          -9.8184   -5.9314    0.0445 C.ar    1  LIG1        0.1553
     44 C          -9.2177   -7.1585    0.1566 C.ar    1  LIG1        0.0457
     45 N          -7.8600   -6.9623    0.1769 N.ar    1  LIG1       -0.3553
     46 H          -7.1418   -7.6714    0.2511 H       1  LIG1        0.1655
     47 H          -9.6668   -8.1319    0.2221 H       1  LIG1        0.0845
     48 N          -8.7742   -2.3825   -0.1922 N.1     1  LIG1       -0.1907
     49 C          -8.8168   -3.5300   -0.1103 C.1     1  LIG1        0.1050
     50 O         -11.1584   -5.7686    0.0047 O.3     1  LIG1       -0.4923
     51 C         -11.6456   -4.4636   -0.2696 C.3     1  LIG1        0.0789
     52 H         -12.7256   -4.5607   -0.3366 H       1  LIG1        0.0660
     53 H         -11.3843   -3.7763    0.5374 H       1  LIG1        0.0660
     54 H         -11.2449   -4.0950   -1.2165 H       1  LIG1        0.0660
@<TRIPOS>BOND
     1    54    51    1
     2    27    24    1
     3     6     5    1
     4    21    22    3
     5     7     1    1
     6     5     1   ar
     7     5     4   ar
     8    22    16    1
     9    39    37    1
    10     1     2   ar
    11    23    24    1
    12    23    17    1
    13    14    11    1
    14    52    51    1
    15    16    17   ar
    16    16    15   ar
    17    24    25    1
    18    24    26    1
    19    17    18   ar
    20    51    50    1
    21    51    53    1
    22    48    49    3
    23    15     4    1
    24    15    19   ar
    25     4     3   ar
    26    33    32    1
    27    49    42    1
    28    18    19   ar
    29    18    28    1
    30    19    20    1
    31    32    28   ar
    32    32    31   ar
    33    28    29   ar
    34    42    43   ar
    35    42    41   ar
    36    50    43    1
    37    43    44   ar
    38    31    41    1
    39    31    30   ar
    40    41    45   ar
    41    29    35    1
    42    29    30   ar
    43    34    35    3
    44    30    36    1
    45    44    45   ar
    46    44    47    1
    47    45    46    1
    48     2     3   ar
    49     2     9    1
    50    36    37    1
    51    37    38    1
    52    37    40    1
    53     3    10    1
    54     9     8    3
    55    11    13    1
    56    11    10    1
    57    11    12    1
