@<TRIPOS>MOLECULE
mol_data/opt/m06hf/geoms/mol2/13dl13dl-13dl-13dl.out
 54 57 0 0 0
SMALL
GASTEIGER

@<TRIPOS>ATOM
      1 C           1.0949   -0.4759   -0.4094 C.ar    1  LIG1        0.0233
      2 C           0.6938    0.8200   -0.6968 C.ar    1  LIG1        0.1112
      3 C          -0.7253    0.8501   -0.5485 C.ar    1  LIG1        0.1640
      4 C          -1.1222   -0.4182   -0.1830 C.ar    1  LIG1        0.1078
      5 N           0.0043   -1.2020   -0.1103 N.ar    1  LIG1       -0.3553
      6 H           0.0010   -2.1805    0.1497 H       1  LIG1        0.1655
      7 H           2.0866   -0.8938   -0.4072 H       1  LIG1        0.0821
      8 N           2.2974    2.7228   -1.3834 N.1     1  LIG1       -0.1907
      9 C           1.5826    1.8769   -1.0785 C.1     1  LIG1        0.1044
     10 O          -1.6183    1.8516   -0.7222 O.3     1  LIG1       -0.4916
     11 C          -1.1352    3.1983   -0.6369 C.3     1  LIG1        0.0789
     12 H          -2.0212    3.8188   -0.5424 H       1  LIG1        0.0660
     13 H          -0.5006    3.3057    0.2436 H       1  LIG1        0.0660
     14 H          -0.5763    3.4494   -1.5375 H       1  LIG1        0.0660
     15 C          -2.4702   -0.8750    0.0915 C.ar    1  LIG1        0.0883
     16 C          -2.9534   -2.1135    0.5021 C.ar    1  LIG1        0.1207
     17 C          -4.3724   -1.9959    0.6205 C.ar    1  LIG1        0.1647
     18 C          -4.6973   -0.7062    0.2655 C.ar    1  LIG1        0.1083
     19 N          -3.5261   -0.0469   -0.0402 N.ar    1  LIG1       -0.3478
     20 H          -3.4217    0.9007   -0.3898 H       1  LIG1        0.1661
     21 N          -1.3638   -4.0872    0.9619 N.1     1  LIG1       -0.1907
     22 C          -2.1111   -3.2324    0.7745 C.1     1  LIG1        0.1050
     23 O          -5.2537   -2.9148    1.0576 O.3     1  LIG1       -0.4916
     24 C          -5.2589   -4.1564    0.3405 C.3     1  LIG1        0.0789
     25 H          -6.1131   -4.7096    0.7187 H       1  LIG1        0.0660
     26 H          -5.3856   -3.9648   -0.7251 H       1  LIG1        0.0660
     27 H          -4.3348   -4.7040    0.5306 H       1  LIG1        0.0660
     28 C          -5.9854   -0.0361    0.2363 C.ar    1  LIG1        0.0883
     29 C          -7.2624   -0.5136   -0.0308 C.ar    1  LIG1        0.1207
     30 C          -8.1437    0.6041    0.0414 C.ar    1  LIG1        0.1647
     31 C          -7.3861    1.7131    0.3345 C.ar    1  LIG1        0.1083
     32 N          -6.0861    1.2967    0.4618 N.ar    1  LIG1       -0.3478
     33 H          -5.3230    1.8940    0.7542 H       1  LIG1        0.1661
     34 N          -7.9626   -2.8990   -0.7118 N.1     1  LIG1       -0.1907
     35 C          -7.6247   -1.8502   -0.3859 C.1     1  LIG1        0.1050
     36 O          -9.4921    0.6306   -0.1418 O.3     1  LIG1       -0.4916
     37 C          -9.9015    0.3479   -1.4893 C.3     1  LIG1        0.0789
     38 H         -10.9855    0.4199   -1.4952 H       1  LIG1        0.0660
     39 H          -9.4618    1.0845   -2.1643 H       1  LIG1        0.0660
     40 H          -9.5926   -0.6587   -1.7704 H       1  LIG1        0.0660
     41 C          -7.8207    3.0913    0.4704 C.ar    1  LIG1        0.0878
     42 C          -7.0850    4.2732    0.5383 C.ar    1  LIG1        0.1200
     43 C          -8.0325    5.3460    0.6391 C.ar    1  LIG1        0.1553
     44 C          -9.2809    4.7778    0.6270 C.ar    1  LIG1        0.0457
     45 N          -9.1243    3.4182    0.5225 N.ar    1  LIG1       -0.3553
     46 H          -9.8543    2.7168    0.4912 H       1  LIG1        0.1655
     47 H         -10.2439    5.2501    0.6872 H       1  LIG1        0.0845
     48 N          -4.5157    4.1389    0.4113 N.1     1  LIG1       -0.1907
     49 C          -5.6590    4.2634    0.4703 C.1     1  LIG1        0.1050
     50 O          -7.8231    6.6772    0.7121 O.3     1  LIG1       -0.4923
     51 C          -6.4953    7.1045    0.9776 C.3     1  LIG1        0.0789
     52 H          -6.5489    8.1826    1.1000 H       1  LIG1        0.0660
     53 H          -6.1212    6.6429    1.8943 H       1  LIG1        0.0660
     54 H          -5.8374    6.8602    0.1414 H       1  LIG1        0.0660
@<TRIPOS>BOND
     1    39    37    1
     2    40    37    1
     3    14    11    1
     4    38    37    1
     5    37    36    1
     6     8     9    3
     7     9     2    1
     8    26    24    1
     9    10    11    1
    10    10     3    1
    11    34    35    3
    12     2     3   ar
    13     2     1   ar
    14    11    12    1
    15    11    13    1
    16     3     4   ar
    17     1     7    1
    18     1     5   ar
    19    20    19    1
    20    35    29    1
    21     4     5   ar
    22     4    15    1
    23    36    30    1
    24     5     6    1
    25    19    15   ar
    26    19    18   ar
    27    29    30   ar
    28    29    28   ar
    29    30    31   ar
    30    15    16   ar
    31    54    51    1
    32    28    18    1
    33    28    32   ar
    34    18    17   ar
    35    31    32   ar
    36    31    41    1
    37    24    27    1
    38    24    25    1
    39    24    23    1
    40    48    49    3
    41    32    33    1
    42    49    42    1
    43    41    45   ar
    44    41    42   ar
    45    46    45    1
    46    16    17   ar
    47    16    22    1
    48    45    44   ar
    49    42    43   ar
    50    17    23    1
    51    44    43   ar
    52    44    47    1
    53    43    50    1
    54    50    51    1
    55    22    21    3
    56    51    52    1
    57    51    53    1
