@<TRIPOS>MOLECULE
mol_data/opt/m06hf/geoms/mol2/13dl12da13hh13di-.out
 47 50 0 0 0
SMALL
GASTEIGER

@<TRIPOS>ATOM
      1 C           1.2726   -0.0176   -1.0369 C.ar    1  LIG1        0.0234
      2 C           0.9962    1.1260   -0.3113 C.ar    1  LIG1        0.1113
      3 C          -0.3607    1.0295    0.1300 C.ar    1  LIG1        0.1656
      4 C          -0.8520   -0.1623   -0.3557 C.ar    1  LIG1        0.1269
      5 N           0.1627   -0.7815   -1.0490 N.ar    1  LIG1       -0.3541
      6 H           0.0630   -1.6677   -1.5193 H       1  LIG1        0.1656
      7 H           2.1834   -0.3131   -1.5274 H       1  LIG1        0.0821
      8 N           2.6729    3.0199    0.1999 N.1     1  LIG1       -0.1907
      9 C           1.9302    2.1741   -0.0275 C.1     1  LIG1        0.1044
     10 O          -1.0497    1.8652    0.9282 O.3     1  LIG1       -0.4916
     11 C          -1.1322    3.2288    0.4877 C.3     1  LIG1        0.0789
     12 H          -1.8213    3.7132    1.1728 H       1  LIG1        0.0660
     13 H          -0.1504    3.6998    0.5341 H       1  LIG1        0.0660
     14 H          -1.5358    3.2622   -0.5242 H       1  LIG1        0.0660
     15 C          -2.1625   -0.7616   -0.2063 C.ar    1  LIG1        0.1727
     16 C          -3.4197   -0.2444   -0.0853 C.ar    1  LIG1        0.0996
     17 C          -4.3245   -1.3591    0.0195 C.ar    1  LIG1        0.0038
     18 C          -3.5442   -2.4649   -0.0567 C.ar    1  LIG1        0.1550
     19 O          -2.2341   -2.1100   -0.1919 O.2     1  LIG1       -0.4504
     20 N          -4.0670    2.2522   -0.1752 N.1     1  LIG1       -0.1907
     21 C          -3.7618    1.1468   -0.1241 C.1     1  LIG1        0.1030
     22 H          -5.3948   -1.3453    0.1229 H       1  LIG1        0.0669
     23 C          -3.8365   -3.8856   -0.0105 C.ar    1  LIG1        0.1054
     24 C          -5.0575   -4.5257   -0.0762 C.ar    1  LIG1        0.0749
     25 C          -4.8058   -5.9296   -0.0164 C.ar    1  LIG1        0.0734
     26 C          -3.4347   -6.0850    0.0921 C.ar    1  LIG1        0.0874
     27 N          -2.8656   -4.8274    0.0972 N.ar    1  LIG1       -0.3476
     28 H          -1.8777   -4.6377    0.0372 H       1  LIG1        0.1661
     29 N          -6.3079   -3.8573   -0.1703 N.pl3   1  LIG1       -0.3548
     30 H          -6.7866   -4.0572   -1.0434 H       1  LIG1        0.1424
     31 H          -6.9191   -4.0817    0.6088 H       1  LIG1        0.1424
     32 N          -5.7952   -6.9124    0.0272 N.pl3   1  LIG1       -0.3548
     33 H          -6.6982   -6.5453   -0.2454 H       1  LIG1        0.1424
     34 H          -5.5799   -7.7475   -0.5056 H       1  LIG1        0.1424
     35 C          -2.6232   -7.2816    0.2640 C.ar    1  LIG1        0.0826
     36 C          -2.6834   -8.5171   -0.3571 C.ar    1  LIG1        0.0813
     37 C          -1.6599   -9.3568    0.1885 C.ar    1  LIG1       -0.0151
     38 C          -1.0093   -8.5900    1.1159 C.ar    1  LIG1        0.0064
     39 N          -1.5940   -7.3473    1.1503 N.ar    1  LIG1       -0.3582
     40 H          -1.3893   -6.6233    1.8219 H       1  LIG1        0.1654
     41 H          -0.1777   -8.8352    1.7543 H       1  LIG1        0.0810
     42 N          -4.4232   -9.0909   -2.1738 N.1     1  LIG1       -0.1908
     43 C          -3.6271   -8.8504   -1.3787 C.1     1  LIG1        0.1016
     44 C          -1.3775  -10.7834   -0.2047 C.3     1  LIG1       -0.0371
     45 H          -0.5389  -11.1720    0.3716 H       1  LIG1        0.0278
     46 H          -1.1340  -10.8442   -1.2660 H       1  LIG1        0.0278
     47 H          -2.2529  -11.4062   -0.0172 H       1  LIG1        0.0278
@<TRIPOS>BOND
     1    42    43    3
     2     7     1    1
     3     6     5    1
     4    43    36    1
     5    46    44    1
     6     5     1   ar
     7     5     4   ar
     8    30    29    1
     9     1     2   ar
    10    14    11    1
    11    34    32    1
    12    36    37   ar
    13    36    35   ar
    14     4    15    1
    15     4     3   ar
    16     2     9    1
    17     2     3   ar
    18    33    32    1
    19    15    19   ar
    20    15    16   ar
    21    44    47    1
    22    44    37    1
    23    44    45    1
    24    19    18   ar
    25    20    21    3
    26    29    24    1
    27    29    31    1
    28    21    16    1
    29    16    17   ar
    30    24    25   ar
    31    24    23   ar
    32    18    23    1
    33    18    17   ar
    34     9     8    3
    35    25    32    1
    36    25    26   ar
    37    23    27   ar
    38    17    22    1
    39    28    27    1
    40    26    27   ar
    41    26    35    1
    42     3    10    1
    43    37    38   ar
    44    35    39   ar
    45    11    13    1
    46    11    10    1
    47    11    12    1
    48    38    39   ar
    49    38    41    1
    50    39    40    1
