@<TRIPOS>MOLECULE
mol_data/opt/m06hf/geoms/mol2/13dl6ld13ah13ii.out
 53 56 0 0 0
SMALL
GASTEIGER

@<TRIPOS>ATOM
      1 C           1.3053   -0.4138    0.5100 C.ar    1  LIG1        0.0233
      2 C           0.9797    0.9280    0.3865 C.ar    1  LIG1        0.1112
      3 C          -0.4339    0.9907    0.1853 C.ar    1  LIG1        0.1627
      4 C          -0.9108   -0.3098    0.1961 C.ar    1  LIG1        0.0952
      5 N           0.1784   -1.1282    0.3957 N.ar    1  LIG1       -0.3564
      6 H           0.0872   -2.1333    0.4409 H       1  LIG1        0.1655
      7 H           2.2682   -0.8654    0.6710 H       1  LIG1        0.0821
      8 N           2.7450    2.8065    0.5194 N.1     1  LIG1       -0.1907
      9 C           1.9503    1.9793    0.4591 C.1     1  LIG1        0.1044
     10 O          -1.2369    2.0622    0.0088 O.3     1  LIG1       -0.4917
     11 C          -0.6321    3.3516    0.0035 C.3     1  LIG1        0.0789
     12 H          -1.4445    4.0529   -0.1641 H       1  LIG1        0.0660
     13 H          -0.1540    3.5503    0.9633 H       1  LIG1        0.0660
     14 H           0.1002    3.4234   -0.8016 H       1  LIG1        0.0660
     15 C          -2.6262   -2.1761    0.0554 C.ar    1  LIG1        0.2246
     16 C          -2.2832   -0.8000    0.0369 C.ar    1  LIG1        0.0646
     17 C          -3.3517    0.0661   -0.1431 C.ar    1  LIG1       -0.0279
     18 C          -4.6546   -0.4246   -0.2876 C.ar    1  LIG1        0.0800
     19 C          -4.8825   -1.8021   -0.2483 C.ar    1  LIG1        0.1083
     20 N          -3.8434   -2.6386   -0.0807 N.ar    1  LIG1       -0.2096
     21 H          -3.1759    1.1320   -0.1709 H       1  LIG1        0.0639
     22 O          -1.6309   -3.0721    0.2287 O.3     1  LIG1       -0.4792
     23 C          -1.9905   -4.4554    0.2730 C.3     1  LIG1        0.0804
     24 H          -1.0579   -4.9867    0.4390 H       1  LIG1        0.0660
     25 H          -2.6889   -4.6309    1.0896 H       1  LIG1        0.0660
     26 H          -2.4422   -4.7506   -0.6730 H       1  LIG1        0.0660
     27 N          -6.5587    1.2978   -0.6291 N.1     1  LIG1       -0.1908
     28 C          -5.7267    0.5213   -0.4782 C.1     1  LIG1        0.1014
     29 C          -6.1863   -2.4490   -0.3736 C.ar    1  LIG1        0.0686
     30 C          -7.4907   -1.9804   -0.4728 C.ar    1  LIG1       -0.0135
     31 C          -8.3317   -3.1165   -0.5343 C.ar    1  LIG1        0.0523
     32 C          -7.5206   -4.2411   -0.4652 C.ar    1  LIG1        0.0845
     33 N          -6.2295   -3.8092   -0.3701 N.ar    1  LIG1       -0.3503
     34 H          -5.4114   -4.3807   -0.2200 H       1  LIG1        0.1660
     35 H          -7.8045   -0.9511   -0.4985 H       1  LIG1        0.0658
     36 N          -9.7351   -3.1298   -0.6041 N.pl3   1  LIG1       -0.3563
     37 H         -10.1037   -2.3608   -1.1497 H       1  LIG1        0.1424
     38 H         -10.0819   -4.0163   -0.9550 H       1  LIG1        0.1424
     39 C          -7.8948   -5.6540   -0.5066 C.ar    1  LIG1        0.0679
     40 C          -8.8233   -6.3507    0.2388 C.ar    1  LIG1       -0.0208
     41 C          -8.7978   -7.7051   -0.2225 C.ar    1  LIG1       -0.0296
     42 C          -7.8571   -7.7731   -1.2208 C.ar    1  LIG1        0.0054
     43 N          -7.3106   -6.5329   -1.3851 N.ar    1  LIG1       -0.3590
     44 H          -6.6723   -6.2626   -2.1154 H       1  LIG1        0.1654
     45 H          -7.5420   -8.6097   -1.8216 H       1  LIG1        0.0810
     46 C          -9.6654   -5.8020    1.3638 C.3     1  LIG1       -0.0374
     47 H          -9.4593   -6.3431    2.2898 H       1  LIG1        0.0278
     48 H         -10.7292   -5.9106    1.1392 H       1  LIG1        0.0278
     49 H          -9.4530   -4.7435    1.5145 H       1  LIG1        0.0278
     50 C          -9.6361   -8.8391    0.3121 C.3     1  LIG1       -0.0380
     51 H          -9.4169   -9.7610   -0.2269 H       1  LIG1        0.0278
     52 H         -10.6997   -8.6191    0.2015 H       1  LIG1        0.0278
     53 H          -9.4331   -9.0038    1.3722 H       1  LIG1        0.0278
@<TRIPOS>BOND
     1    44    43    1
     2    45    42    1
     3    43    42   ar
     4    43    39   ar
     5    42    41   ar
     6    37    36    1
     7    38    36    1
     8    14    11    1
     9    26    23    1
    10    27    28    3
    11    36    31    1
    12    31    30   ar
    13    31    32   ar
    14    39    32    1
    15    39    40   ar
    16    35    30    1
    17    28    18    1
    18    30    29   ar
    19    32    33   ar
    20    29    33   ar
    21    29    19    1
    22    33    34    1
    23    18    19   ar
    24    18    17   ar
    25    19    20   ar
    26    51    50    1
    27    41    40   ar
    28    41    50    1
    29    21    17    1
    30    12    11    1
    31    17    16   ar
    32    20    15   ar
    33    11    10    1
    34    11    13    1
    35    10     3    1
    36    16    15   ar
    37    16     4    1
    38    15    22    1
    39     3     4   ar
    40     3     2   ar
    41     4     5   ar
    42    52    50    1
    43    22    23    1
    44    40    46    1
    45    23    24    1
    46    23    25    1
    47    50    53    1
    48     2     9    1
    49     2     1   ar
    50     5     6    1
    51     5     1   ar
    52     9     8    3
    53     1     7    1
    54    48    46    1
    55    46    49    1
    56    46    47    1
