@<TRIPOS>MOLECULE
mol_data/opt/m06hf/geoms/mol2/13dl13dl-13dl.out
 41 43 0 0 0
SMALL
GASTEIGER

@<TRIPOS>ATOM
      1 C           1.1042   -0.5730    0.1969 C.ar    1  LIG1        0.0233
      2 C           0.7799    0.7733    0.1125 C.ar    1  LIG1        0.1112
      3 C          -0.6443    0.8460    0.0547 C.ar    1  LIG1        0.1640
      4 C          -1.1202   -0.4470    0.1067 C.ar    1  LIG1        0.1078
      5 N          -0.0345   -1.2865    0.1910 N.ar    1  LIG1       -0.3553
      6 H          -0.0949   -2.2958    0.2438 H       1  LIG1        0.1655
      7 H           2.0736   -1.0352    0.2584 H       1  LIG1        0.0821
      8 N           2.5181    2.6813    0.0670 N.1     1  LIG1       -0.1907
      9 C           1.7429    1.8341    0.0869 C.1     1  LIG1        0.1044
     10 O          -1.4874    1.8944   -0.0419 O.3     1  LIG1       -0.4916
     11 C          -0.9547    3.2165    0.0596 C.3     1  LIG1        0.0789
     12 H          -1.8222    3.8682    0.0368 H       1  LIG1        0.0660
     13 H          -0.4106    3.3261    0.9987 H       1  LIG1        0.0660
     14 H          -0.2941    3.4177   -0.7836 H       1  LIG1        0.0660
     15 C          -2.5087   -0.8640    0.0795 C.ar    1  LIG1        0.0883
     16 C          -3.0877   -2.1350    0.1281 C.ar    1  LIG1        0.1207
     17 C          -4.5006   -1.9416    0.0672 C.ar    1  LIG1        0.1647
     18 C          -4.7247   -0.5848   -0.0144 C.ar    1  LIG1        0.1083
     19 N          -3.5015    0.0389   -0.0054 N.ar    1  LIG1       -0.3478
     20 H          -3.3280    1.0423   -0.0545 H       1  LIG1        0.1661
     21 N          -1.5948   -4.2271    0.3004 N.1     1  LIG1       -0.1907
     22 C          -2.3028   -3.3227    0.2230 C.1     1  LIG1        0.1050
     23 O          -5.5174   -2.8388    0.0765 O.3     1  LIG1       -0.4916
     24 C          -5.1668   -4.2161    0.1816 C.3     1  LIG1        0.0789
     25 H          -6.1059   -4.7617    0.1802 H       1  LIG1        0.0660
     26 H          -4.5571   -4.5158   -0.6720 H       1  LIG1        0.0660
     27 H          -4.6287   -4.3975    1.1133 H       1  LIG1        0.0660
     28 C          -5.9972    0.1089   -0.0987 C.ar    1  LIG1        0.0878
     29 C          -6.2968    1.4702   -0.1537 C.ar    1  LIG1        0.1200
     30 C          -7.7262    1.5772   -0.2302 C.ar    1  LIG1        0.1553
     31 C          -8.2243    0.3003   -0.2180 C.ar    1  LIG1        0.0457
     32 N          -7.1624   -0.5647   -0.1378 N.ar    1  LIG1       -0.3553
     33 H          -7.1987   -1.5758   -0.1081 H       1  LIG1        0.1655
     34 H          -9.2442   -0.0326   -0.2603 H       1  LIG1        0.0845
     35 N          -4.4123    3.2287   -0.0917 N.1     1  LIG1       -0.1907
     36 C          -5.2818    2.4748   -0.1228 C.1     1  LIG1        0.1050
     37 O          -8.5146    2.6716   -0.3020 O.3     1  LIG1       -0.4923
     38 C          -7.8698    3.9354   -0.3409 C.3     1  LIG1        0.0789
     39 H          -8.6664    4.6702   -0.4178 H       1  LIG1        0.0660
     40 H          -7.2963    4.1043    0.5730 H       1  LIG1        0.0660
     41 H          -7.2137    4.0067   -1.2113 H       1  LIG1        0.0660
@<TRIPOS>BOND
     1    41    38    1
     2    14    11    1
     3    26    24    1
     4    39    38    1
     5    38    37    1
     6    38    40    1
     7    37    30    1
     8    34    31    1
     9    30    31   ar
    10    30    29   ar
    11    31    32   ar
    12    29    36    1
    13    29    28   ar
    14    32    33    1
    15    32    28   ar
    16    36    35    3
    17    28    18    1
    18    20    19    1
    19    10     3    1
    20    10    11    1
    21    18    19   ar
    22    18    17   ar
    23    19    15   ar
    24    12    11    1
    25     3     4   ar
    26     3     2   ar
    27    11    13    1
    28     8     9    3
    29    17    23    1
    30    17    16   ar
    31    23    24    1
    32    15     4    1
    33    15    16   ar
    34     9     2    1
    35     4     5   ar
    36     2     1   ar
    37    16    22    1
    38    25    24    1
    39    24    27    1
    40     5     1   ar
    41     5     6    1
    42     1     7    1
    43    22    21    3
