@<TRIPOS>MOLECULE
mol_data/opt/m06hf/geoms/mol2/13ea13ea13ea13ea.out
 42 45 0 0 0
SMALL
GASTEIGER

@<TRIPOS>ATOM
      1 C           0.3838    0.3992   -1.9446 C.ar    1  LIG1        0.0177
      2 C           0.7140    1.0233   -0.7592 C.ar    1  LIG1        0.0426
      3 C          -0.3012    0.6940    0.1897 C.ar    1  LIG1       -0.0195
      4 C          -1.2051   -0.1142   -0.4521 C.ar    1  LIG1        0.0653
      5 N          -0.7709   -0.2875   -1.7458 N.ar    1  LIG1       -0.3584
      6 H          -1.3048   -0.7476   -2.4664 H       1  LIG1        0.1654
      7 H           0.8873    0.4114   -2.8950 H       1  LIG1        0.0819
      8 C           1.8715    1.8417   -0.5396 C.1     1  LIG1       -0.0682
      9 C           2.8378    2.5301   -0.3481 C.1     1  LIG1       -0.1139
     10 H           3.6905    3.1444   -0.1770 H       1  LIG1        0.1232
     11 H          -0.3535    1.0089    1.2179 H       1  LIG1        0.0651
     12 C          -2.4316   -0.7465    0.0336 C.ar    1  LIG1        0.0790
     13 C          -3.4971   -0.2182    0.7438 C.ar    1  LIG1        0.0520
     14 C          -4.4378   -1.2699    0.9475 C.ar    1  LIG1       -0.0189
     15 C          -3.9202   -2.3975    0.3581 C.ar    1  LIG1        0.0658
     16 N          -2.7057   -2.0637   -0.1895 N.ar    1  LIG1       -0.3509
     17 H          -2.1034   -2.6962   -0.6936 H       1  LIG1        0.1660
     18 C          -3.6061    1.1437    1.1772 C.1     1  LIG1       -0.0675
     19 C          -3.6944    2.2839    1.5462 C.1     1  LIG1       -0.1138
     20 H          -3.7693    3.2960    1.8688 H       1  LIG1        0.1232
     21 H          -5.3789   -1.2044    1.4656 H       1  LIG1        0.0652
     22 C          -4.4494   -3.7586    0.2784 C.ar    1  LIG1        0.0790
     23 C          -5.7081   -4.2146   -0.0769 C.ar    1  LIG1        0.0520
     24 C          -5.6865   -5.6378    0.0104 C.ar    1  LIG1       -0.0189
     25 C          -4.4237   -6.0012    0.4101 C.ar    1  LIG1        0.0657
     26 N          -3.6880   -4.8527    0.5686 N.ar    1  LIG1       -0.3509
     27 H          -2.7225   -4.8219    0.8581 H       1  LIG1        0.1660
     28 C          -6.8078   -3.3821   -0.4653 C.1     1  LIG1       -0.0675
     29 C          -7.7308   -2.6842   -0.7894 C.1     1  LIG1       -0.1138
     30 H          -8.5464   -2.0644   -1.0805 H       1  LIG1        0.1232
     31 H          -6.5008   -6.3105   -0.1953 H       1  LIG1        0.0652
     32 C          -3.8467   -7.3202    0.6697 C.ar    1  LIG1        0.0785
     33 C          -3.8958   -8.4843   -0.0749 C.ar    1  LIG1        0.0513
     34 C          -3.1610   -9.4778    0.6431 C.ar    1  LIG1       -0.0283
     35 C          -2.6934   -8.8863    1.7863 C.ar    1  LIG1        0.0034
     36 N          -3.1094   -7.5829    1.7891 N.ar    1  LIG1       -0.3585
     37 H          -3.0047   -6.9403    2.5588 H       1  LIG1        0.1654
     38 H          -2.1064   -9.2855    2.5947 H       1  LIG1        0.0807
     39 C          -4.5529   -8.6327   -1.3398 C.1     1  LIG1       -0.0675
     40 C          -5.1056   -8.7609   -2.3994 C.1     1  LIG1       -0.1138
     41 H          -5.5966   -8.8715   -3.3378 H       1  LIG1        0.1232
     42 H          -3.0046  -10.4959    0.3311 H       1  LIG1        0.0645
@<TRIPOS>BOND
     1    41    40    1
     2     7     1    1
     3     6     5    1
     4    40    39    3
     5     1     5   ar
     6     1     2   ar
     7     5     4   ar
     8    39    33    1
     9    30    29    1
    10    29    28    3
    11     2     8    1
    12     2     3   ar
    13    17    16    1
    14     8     9    3
    15    28    23    1
    16     4    12    1
    17     4     3   ar
    18     9    10    1
    19    31    24    1
    20    16    12   ar
    21    16    15   ar
    22    23    24   ar
    23    23    22   ar
    24    33    34   ar
    25    33    32   ar
    26    24    25   ar
    27    12    13   ar
    28     3    11    1
    29    22    15    1
    30    22    26   ar
    31    42    34    1
    32    15    14   ar
    33    25    26   ar
    34    25    32    1
    35    26    27    1
    36    34    35   ar
    37    32    36   ar
    38    13    14   ar
    39    13    18    1
    40    14    21    1
    41    18    19    3
    42    19    20    1
    43    35    36   ar
    44    35    38    1
    45    36    37    1
