@<TRIPOS>MOLECULE
mol_data/opt/m06hf/geoms/mol2/13ea13ea13ea13ea-.out
 42 45 0 0 0
SMALL
GASTEIGER

@<TRIPOS>ATOM
      1 C           0.7697    0.2488   -1.3917 C.ar    1  LIG1        0.0177
      2 C           0.8105    0.9991   -0.2346 C.ar    1  LIG1        0.0426
      3 C          -0.4000    0.7438    0.4790 C.ar    1  LIG1       -0.0195
      4 C          -1.1268   -0.1483   -0.2682 C.ar    1  LIG1        0.0653
      5 N          -0.3993   -0.4435   -1.3981 N.ar    1  LIG1       -0.3584
      6 H          -0.7517   -0.9766   -2.1776 H       1  LIG1        0.1654
      7 H           1.4836    0.1770   -2.1933 H       1  LIG1        0.0819
      8 C           1.8857    1.8626    0.1601 C.1     1  LIG1       -0.0682
      9 C           2.7836    2.5885    0.4932 C.1     1  LIG1       -0.1139
     10 H           3.5760    3.2350    0.7893 H       1  LIG1        0.1232
     11 H          -0.6933    1.1584    1.4278 H       1  LIG1        0.0651
     12 C          -2.4311   -0.7593   -0.0183 C.ar    1  LIG1        0.0790
     13 C          -3.6171   -0.2010    0.4304 C.ar    1  LIG1        0.0520
     14 C          -4.5866   -1.2450    0.4889 C.ar    1  LIG1       -0.0189
     15 C          -3.9649   -2.3976    0.0732 C.ar    1  LIG1        0.0658
     16 N          -2.6617   -2.0868   -0.2294 N.ar    1  LIG1       -0.3509
     17 H          -1.9696   -2.7453   -0.5543 H       1  LIG1        0.1660
     18 C          -3.8048    1.1811    0.7597 C.1     1  LIG1       -0.0675
     19 C          -3.9581    2.3402    1.0384 C.1     1  LIG1       -0.1138
     20 H          -4.0894    3.3686    1.2818 H       1  LIG1        0.1232
     21 H          -5.6131   -1.1584    0.8001 H       1  LIG1        0.0652
     22 C          -4.4582   -3.7647   -0.0543 C.ar    1  LIG1        0.0790
     23 C          -5.6907   -4.2509   -0.4629 C.ar    1  LIG1        0.0520
     24 C          -5.6110   -5.6730   -0.4423 C.ar    1  LIG1       -0.0189
     25 C          -4.3410   -6.0019   -0.0213 C.ar    1  LIG1        0.0657
     26 N          -3.6641   -4.8369    0.2099 N.ar    1  LIG1       -0.3509
     27 H          -2.7324   -4.8062    0.6041 H       1  LIG1        0.1660
     28 C          -6.8127   -3.4529   -0.8585 C.1     1  LIG1       -0.0675
     29 C          -7.7589   -2.7874   -1.1865 C.1     1  LIG1       -0.1138
     30 H          -8.5940   -2.1957   -1.4824 H       1  LIG1        0.1232
     31 H          -6.3985   -6.3466   -0.7353 H       1  LIG1        0.0652
     32 C          -3.6868   -7.2881    0.1862 C.ar    1  LIG1        0.0785
     33 C          -2.3510   -7.5914    0.4104 C.ar    1  LIG1        0.0513
     34 C          -2.2539   -9.0108    0.5454 C.ar    1  LIG1       -0.0283
     35 C          -3.5185   -9.5124    0.4007 C.ar    1  LIG1        0.0034
     36 N          -4.3703   -8.4621    0.1860 N.ar    1  LIG1       -0.3585
     37 H          -5.3696   -8.5333    0.0795 H       1  LIG1        0.1654
     38 H          -3.8798  -10.5251    0.4360 H       1  LIG1        0.0807
     39 C          -1.2830   -6.6395    0.5010 C.1     1  LIG1       -0.0675
     40 C          -0.3912   -5.8336    0.5925 C.1     1  LIG1       -0.1138
     41 H           0.4236   -5.1522    0.6823 H       1  LIG1        0.1232
     42 H          -1.3530   -9.5698    0.7285 H       1  LIG1        0.0645
@<TRIPOS>BOND
     1     7     1    1
     2     6     5    1
     3    30    29    1
     4     5     1   ar
     5     5     4   ar
     6     1     2   ar
     7    29    28    3
     8    28    23    1
     9    31    24    1
    10    17    16    1
    11    23    24   ar
    12    23    22   ar
    13    24    25   ar
    14     4    12    1
    15     4     3   ar
    16     2     8    1
    17     2     3   ar
    18    16    12   ar
    19    16    15   ar
    20    22    15    1
    21    22    26   ar
    22    25    32    1
    23    25    26   ar
    24    12    13   ar
    25    15    14   ar
    26    37    36    1
    27     8     9    3
    28    36    32   ar
    29    36    35   ar
    30    32    33   ar
    31    26    27    1
    32    35    38    1
    33    35    34   ar
    34    33    39    1
    35    33    34   ar
    36    13    14   ar
    37    13    18    1
    38     3    11    1
    39    14    21    1
    40     9    10    1
    41    39    40    3
    42    34    42    1
    43    40    41    1
    44    18    19    3
    45    19    20    1
