@<TRIPOS>MOLECULE
mol_data/opt/m06hf/geoms/mol2/13ea13ea-13ea-13ea-.out
 42 45 0 0 0
SMALL
GASTEIGER

@<TRIPOS>ATOM
      1 C           1.2007   -0.4525   -0.5994 C.ar    1  LIG1        0.0177
      2 C           0.7921    0.8295   -0.9133 C.ar    1  LIG1        0.0426
      3 C          -0.6090    0.8954   -0.6627 C.ar    1  LIG1       -0.0195
      4 C          -0.9960   -0.3483   -0.2128 C.ar    1  LIG1        0.0653
      5 N           0.1152   -1.1462   -0.1823 N.ar    1  LIG1       -0.3584
      6 H           0.1007   -2.1068    0.1346 H       1  LIG1        0.1654
      7 H           2.1793   -0.8963   -0.6493 H       1  LIG1        0.0819
      8 C           1.6323    1.8865   -1.3962 C.1     1  LIG1       -0.0682
      9 C           2.3304    2.7760   -1.8035 C.1     1  LIG1       -0.1139
     10 H           2.9500    3.5623   -2.1663 H       1  LIG1        0.1232
     11 H          -1.2280    1.7675   -0.7920 H       1  LIG1        0.0651
     12 C          -2.3033   -0.8583    0.1827 C.ar    1  LIG1        0.0790
     13 C          -2.6679   -2.0451    0.8046 C.ar    1  LIG1        0.0520
     14 C          -4.0883   -2.0396    0.9427 C.ar    1  LIG1       -0.0189
     15 C          -4.5385   -0.8613    0.4053 C.ar    1  LIG1        0.0658
     16 N          -3.4451   -0.1582   -0.0470 N.ar    1  LIG1       -0.3509
     17 H          -3.4956    0.6705   -0.6195 H       1  LIG1        0.1660
     18 C          -1.7635   -3.0713    1.2327 C.1     1  LIG1       -0.0675
     19 C          -0.9993   -3.9338    1.5847 C.1     1  LIG1       -0.1138
     20 H          -0.3448   -4.7066    1.9174 H       1  LIG1        0.1232
     21 H          -4.6979   -2.8041    1.3920 H       1  LIG1        0.0652
     22 C          -5.8922   -0.3250    0.2863 C.ar    1  LIG1        0.0790
     23 C          -7.0697   -0.9352   -0.1138 C.ar    1  LIG1        0.0520
     24 C          -8.1000    0.0490   -0.0582 C.ar    1  LIG1       -0.0189
     25 C          -7.5212    1.2195    0.3676 C.ar    1  LIG1        0.0657
     26 N          -6.1851    0.9761    0.5721 N.ar    1  LIG1       -0.3509
     27 H          -5.5143    1.6623    0.8820 H       1  LIG1        0.1660
     28 C          -7.1960   -2.3061   -0.5118 C.1     1  LIG1       -0.0675
     29 C          -7.3030   -3.4564   -0.8428 C.1     1  LIG1       -0.1138
     30 H          -7.3958   -4.4739   -1.1425 H       1  LIG1        0.1232
     31 H          -9.1393   -0.0884   -0.3016 H       1  LIG1        0.0652
     32 C          -8.1055    2.5382    0.6091 C.ar    1  LIG1        0.0785
     33 C          -8.9980    3.2750   -0.1478 C.ar    1  LIG1        0.0513
     34 C          -9.2392    4.4970    0.5527 C.ar    1  LIG1       -0.0283
     35 C          -8.4906    4.4602    1.6987 C.ar    1  LIG1        0.0034
     36 N          -7.8064    3.2752    1.7196 N.ar    1  LIG1       -0.3585
     37 H          -7.2667    2.9294    2.4975 H       1  LIG1        0.1654
     38 H          -8.3936    5.1733    2.4985 H       1  LIG1        0.0807
     39 C          -9.5511    2.8704   -1.4067 C.1     1  LIG1       -0.0675
     40 C         -10.0232    2.5328   -2.4594 C.1     1  LIG1       -0.1138
     41 H         -10.4396    2.2315   -3.3923 H       1  LIG1        0.1232
     42 H          -9.8855    5.2938    0.2278 H       1  LIG1        0.0645
@<TRIPOS>BOND
     1    41    40    1
     2    40    39    3
     3    10     9    1
     4     9     8    3
     5    39    33    1
     6     8     2    1
     7    30    29    1
     8     2     3   ar
     9     2     1   ar
    10    29    28    3
    11    11     3    1
    12     3     4   ar
    13     7     1    1
    14    17    16    1
    15     1     5   ar
    16    28    23    1
    17    31    24    1
    18     4     5   ar
    19     4    12    1
    20     5     6    1
    21    33    34   ar
    22    33    32   ar
    23    23    24   ar
    24    23    22   ar
    25    24    25   ar
    26    16    12   ar
    27    16    15   ar
    28    12    13   ar
    29    42    34    1
    30    22    15    1
    31    22    26   ar
    32    25    26   ar
    33    25    32    1
    34    15    14   ar
    35    34    35   ar
    36    26    27    1
    37    32    36   ar
    38    13    14   ar
    39    13    18    1
    40    14    21    1
    41    18    19    3
    42    19    20    1
    43    35    36   ar
    44    35    38    1
    45    36    37    1
