@<TRIPOS>MOLECULE
mol_data/opt/m06hf/geoms/mol2/13ea13ea-13ea.out
 32 34 0 0 0
SMALL
GASTEIGER

@<TRIPOS>ATOM
      1 C           1.2047   -0.3046   -0.0001 C.ar    1  LIG1        0.0177
      2 C           0.7964    1.0153   -0.0005 C.ar    1  LIG1        0.0426
      3 C          -0.6287    1.0133   -0.0004 C.ar    1  LIG1       -0.0195
      4 C          -1.0282   -0.3053    0.0001 C.ar    1  LIG1        0.0653
      5 N           0.0973   -1.0840    0.0003 N.ar    1  LIG1       -0.3584
      6 H           0.0719   -2.0955    0.0007 H       1  LIG1        0.1654
      7 H           2.1971   -0.7188   -0.0000 H       1  LIG1        0.0819
      8 C           1.6578    2.1617   -0.0011 C.1     1  LIG1       -0.0682
      9 C           2.3764    3.1251   -0.0015 C.1     1  LIG1       -0.1139
     10 H           3.0142    3.9778   -0.0018 H       1  LIG1        0.1232
     11 H          -1.2587    1.8873   -0.0007 H       1  LIG1        0.0651
     12 C          -2.3603   -0.8970    0.0005 C.ar    1  LIG1        0.0790
     13 C          -2.7690   -2.2263    0.0006 C.ar    1  LIG1        0.0520
     14 C          -4.1932   -2.2330    0.0010 C.ar    1  LIG1       -0.0189
     15 C          -4.6008   -0.9181    0.0012 C.ar    1  LIG1        0.0657
     16 N          -3.4794   -0.1338    0.0009 N.ar    1  LIG1       -0.3509
     17 H          -3.5065    0.8785    0.0011 H       1  LIG1        0.1660
     18 C          -1.9067   -3.3703    0.0002 C.1     1  LIG1       -0.0675
     19 C          -1.1811   -4.3325   -0.0002 C.1     1  LIG1       -0.1138
     20 H          -0.5661   -5.2028   -0.0004 H       1  LIG1        0.1232
     21 H          -4.8118   -3.1146    0.0012 H       1  LIG1        0.0652
     22 C          -5.9310   -0.3206    0.0018 C.ar    1  LIG1        0.0785
     23 C          -6.3250    1.0101    0.0027 C.ar    1  LIG1        0.0513
     24 C          -7.7538    1.0319    0.0029 C.ar    1  LIG1       -0.0283
     25 C          -8.1728   -0.2706    0.0021 C.ar    1  LIG1        0.0034
     26 N          -7.0634   -1.0726    0.0014 N.ar    1  LIG1       -0.3585
     27 H          -7.0760   -2.0800    0.0006 H       1  LIG1        0.1654
     28 H          -9.1625   -0.6918    0.0019 H       1  LIG1        0.0807
     29 C          -5.4486    2.1437    0.0033 C.1     1  LIG1       -0.0675
     30 C          -4.7091    3.0948    0.0038 C.1     1  LIG1       -0.1138
     31 H          -4.0793    3.9547    0.0044 H       1  LIG1        0.1232
     32 H          -8.3711    1.9131    0.0035 H       1  LIG1        0.0645
@<TRIPOS>BOND
     1    10     9    1
     2     9     8    3
     3     8     2    1
     4    11     3    1
     5     2     3   ar
     6     2     1   ar
     7    20    19    1
     8     3     4   ar
     9    19    18    3
    10     1     7    1
    11     1     5   ar
    12     4     5   ar
    13     4    12    1
    14    18    13    1
    15     5     6    1
    16    12    13   ar
    17    12    16   ar
    18    13    14   ar
    19    27    26    1
    20    16    17    1
    21    16    15   ar
    22    14    21    1
    23    14    15   ar
    24    15    22    1
    25    26    22   ar
    26    26    25   ar
    27    22    23   ar
    28    28    25    1
    29    25    24   ar
    30    23    24   ar
    31    23    29    1
    32    24    32    1
    33    29    30    3
    34    30    31    1
