@<TRIPOS>MOLECULE
mol_data/opt/m06hf/geoms/mol2/13ea13af4ef-4ff-.out
 46 49 0 0 0
SMALL
GASTEIGER

@<TRIPOS>ATOM
      1 C           1.2371   -0.0388   -0.3726 C.ar    1  LIG1        0.0177
      2 C           0.8378    1.0907    0.3113 C.ar    1  LIG1        0.0426
      3 C          -0.5847    1.0331    0.4297 C.ar    1  LIG1       -0.0196
      4 C          -0.9951   -0.1217   -0.1884 C.ar    1  LIG1        0.0642
      5 N           0.1242   -0.7616   -0.6637 N.ar    1  LIG1       -0.3584
      6 H           0.0959   -1.5897   -1.2369 H       1  LIG1        0.1654
      7 H           2.2219   -0.3568   -0.6652 H       1  LIG1        0.0819
      8 C           1.7082    2.1139    0.8146 C.1     1  LIG1       -0.0682
      9 C           2.4323    2.9748    1.2378 C.1     1  LIG1       -0.1139
     10 H           3.0733    3.7379    1.6129 H       1  LIG1        0.1232
     11 H          -1.2194    1.7446    0.9291 H       1  LIG1        0.0651
     12 C          -2.3336   -0.6850   -0.3752 C.ar    1  LIG1        0.0669
     13 C          -3.5127   -0.0794   -0.7405 C.ar    1  LIG1        0.0072
     14 C          -4.5178   -1.0837   -0.7225 C.ar    1  LIG1        0.1427
     15 C          -3.9232   -2.2799   -0.3568 C.ar    1  LIG1        0.0902
     16 N          -2.5815   -2.0138   -0.1687 N.ar    1  LIG1       -0.3501
     17 H          -1.9638   -2.6241    0.3452 H       1  LIG1        0.1661
     18 H          -3.6444    0.9492   -1.0286 H       1  LIG1        0.0676
     19 O          -5.7978   -0.8611   -1.1118 O.3     1  LIG1       -0.5046
     20 H          -6.4008   -1.3675   -0.5489 H       1  LIG1        0.2922
     21 C          -5.6742   -3.9606    0.3311 C.ar    1  LIG1        0.0347
     22 C          -6.1116   -5.2869    0.3883 C.ar    1  LIG1       -0.0344
     23 C          -4.4376   -3.6526   -0.2595 C.ar    1  LIG1        0.0207
     24 C          -5.3452   -6.3378   -0.1028 C.ar    1  LIG1        0.0283
     25 H          -7.0734   -5.5018    0.8329 H       1  LIG1        0.0637
     26 C          -3.6672   -4.7056   -0.7589 C.ar    1  LIG1       -0.0092
     27 C          -4.1040   -6.0233   -0.6796 C.ar    1  LIG1        0.1253
     28 H          -2.7281   -4.4816   -1.2531 H       1  LIG1        0.0661
     29 C          -6.4959   -2.9336    0.9235 C.1     1  LIG1       -0.0690
     30 C          -7.1945   -2.0857    1.4176 C.1     1  LIG1       -0.1139
     31 H          -7.8011   -1.3399    1.8777 H       1  LIG1        0.1232
     32 O          -3.3491   -7.0420   -1.1713 O.3     1  LIG1       -0.5061
     33 H          -2.6101   -6.6957   -1.6826 H       1  LIG1        0.2922
     34 C          -7.1378   -8.0770   -0.3703 C.ar    1  LIG1        0.1249
     35 C          -7.5773   -9.3954   -0.2668 C.ar    1  LIG1       -0.0161
     36 C          -5.8264   -7.7466   -0.0137 C.ar    1  LIG1        0.0305
     37 C          -6.7259  -10.3938    0.1837 C.ar    1  LIG1       -0.0167
     38 H          -8.5965   -9.6412   -0.5429 H       1  LIG1        0.0655
     39 C          -4.9793   -8.7593    0.4424 C.ar    1  LIG1       -0.0089
     40 C          -5.4201  -10.0729    0.5414 C.ar    1  LIG1        0.1177
     41 H          -3.9613   -8.5051    0.7129 H       1  LIG1        0.0661
     42 H          -7.0542  -11.4206    0.2671 H       1  LIG1        0.0655
     43 O          -7.9633   -7.0791   -0.8096 O.3     1  LIG1       -0.5062
     44 H          -8.7744   -7.4528   -1.1688 H       1  LIG1        0.2922
     45 O          -4.6185  -11.0868    0.9836 O.3     1  LIG1       -0.5067
     46 H          -3.7337  -10.7553    1.1666 H       1  LIG1        0.2921
@<TRIPOS>BOND
     1    33    32    1
     2    28    26    1
     3     6     5    1
     4    32    27    1
     5    44    43    1
     6    19    14    1
     7    19    20    1
     8    18    13    1
     9    43    34    1
    10    26    27   ar
    11    26    23   ar
    12    13    14   ar
    13    13    12   ar
    14    14    15   ar
    15    27    24   ar
    16     7     1    1
    17     5     1   ar
    18     5     4   ar
    19    38    35    1
    20    12     4    1
    21    12    16   ar
    22     1     2   ar
    23    34    35   ar
    24    34    36   ar
    25    15    23    1
    26    15    16   ar
    27    35    37   ar
    28    23    21   ar
    29     4     3   ar
    30    16    17    1
    31    24    36    1
    32    24    22   ar
    33    36    39   ar
    34    37    42    1
    35    37    40   ar
    36     2     3   ar
    37     2     8    1
    38    21    22   ar
    39    21    29    1
    40    22    25    1
    41     3    11    1
    42    39    40   ar
    43    39    41    1
    44    40    45    1
    45     8     9    3
    46    29    30    3
    47    45    46    1
    48     9    10    1
    49    30    31    1
