@<TRIPOS>MOLECULE
mol_data/opt/m06hf/geoms/mol2/13ea13ea13ea.out
 32 34 0 0 0
SMALL
GASTEIGER

@<TRIPOS>ATOM
      1 C           1.1922   -0.1402    0.1489 C.ar    1  LIG1        0.0177
      2 C           0.7337    1.0450   -0.3880 C.ar    1  LIG1        0.0426
      3 C          -0.6923    0.9749   -0.4169 C.ar    1  LIG1       -0.0195
      4 C          -1.0450   -0.2463    0.1017 C.ar    1  LIG1        0.0653
      5 N           0.1112   -0.9121    0.4350 N.ar    1  LIG1       -0.3584
      6 H           0.1383   -1.7866    0.9344 H       1  LIG1        0.1654
      7 H           2.1980   -0.4674    0.3433 H       1  LIG1        0.0819
      8 C           1.5577    2.1286   -0.8403 C.1     1  LIG1       -0.0682
      9 C           2.2446    3.0379   -1.2217 C.1     1  LIG1       -0.1139
     10 H           2.8501    3.8457   -1.5604 H       1  LIG1        0.1232
     11 H          -1.3710    1.7247   -0.7846 H       1  LIG1        0.0651
     12 C          -2.3591   -0.8509    0.3029 C.ar    1  LIG1        0.0790
     13 C          -3.5505   -0.2899    0.7272 C.ar    1  LIG1        0.0520
     14 C          -4.5341   -1.3249    0.7270 C.ar    1  LIG1       -0.0189
     15 C          -3.9139   -2.4739    0.3082 C.ar    1  LIG1        0.0657
     16 N          -2.5917   -2.1764    0.0642 N.ar    1  LIG1       -0.3509
     17 H          -1.9693   -2.7694   -0.4644 H       1  LIG1        0.1660
     18 C          -3.7298    1.0764    1.1214 C.1     1  LIG1       -0.0675
     19 C          -3.8856    2.2222    1.4502 C.1     1  LIG1       -0.1138
     20 H          -4.0229    3.2369    1.7443 H       1  LIG1        0.1232
     21 H          -5.5664   -1.2347    1.0177 H       1  LIG1        0.0652
     22 C          -4.4396   -3.8224    0.1109 C.ar    1  LIG1        0.0785
     23 C          -5.6290   -4.2485   -0.4522 C.ar    1  LIG1        0.0513
     24 C          -5.6348   -5.6769   -0.3978 C.ar    1  LIG1       -0.0283
     25 C          -4.4598   -6.0644    0.1876 C.ar    1  LIG1        0.0034
     26 N          -3.7440   -4.9364    0.4863 N.ar    1  LIG1       -0.3585
     27 H          -2.8885   -4.9112    1.0180 H       1  LIG1        0.1654
     28 H          -4.0789   -7.0440    0.4168 H       1  LIG1        0.0807
     29 C          -6.6429   -3.3966   -1.0002 C.1     1  LIG1       -0.0675
     30 C          -7.4984   -2.6881   -1.4600 C.1     1  LIG1       -0.1138
     31 H          -8.2527   -2.0582   -1.8711 H       1  LIG1        0.1232
     32 H          -6.4183   -6.3184   -0.7617 H       1  LIG1        0.0645
@<TRIPOS>BOND
     1    31    30    1
     2    10     9    1
     3    30    29    3
     4     9     8    3
     5    29    23    1
     6     8     2    1
     7    11     3    1
     8    32    24    1
     9    17    16    1
    10    23    24   ar
    11    23    22   ar
    12     3     2   ar
    13     3     4   ar
    14    24    25   ar
    15     2     1   ar
    16    16    12   ar
    17    16    15   ar
    18     4    12    1
    19     4     5   ar
    20    22    15    1
    21    22    26   ar
    22     1     7    1
    23     1     5   ar
    24    25    28    1
    25    25    26   ar
    26    12    13   ar
    27    15    14   ar
    28     5     6    1
    29    26    27    1
    30    14    13   ar
    31    14    21    1
    32    13    18    1
    33    18    19    3
    34    19    20    1
