@<TRIPOS>MOLECULE
mol_data/opt/m06hf/geoms/mol2/13ea13ea13ea-13ea-.out
 42 45 0 0 0
SMALL
GASTEIGER

@<TRIPOS>ATOM
      1 C           1.2054   -0.2213   -0.5075 C.ar    1  LIG1        0.0177
      2 C           0.8702    1.0174   -0.0008 C.ar    1  LIG1        0.0426
      3 C          -0.5397    1.0163    0.2256 C.ar    1  LIG1       -0.0195
      4 C          -1.0052   -0.2190   -0.1512 C.ar    1  LIG1        0.0653
      5 N           0.0678   -0.9588   -0.5904 N.ar    1  LIG1       -0.3584
      6 H          -0.0046   -1.8687   -1.0185 H       1  LIG1        0.1654
      7 H           2.1623   -0.6062   -0.8135 H       1  LIG1        0.0819
      8 C           1.7874    2.0906    0.2536 C.1     1  LIG1       -0.0682
      9 C           2.5518    2.9927    0.4681 C.1     1  LIG1       -0.1139
     10 H           3.2259    3.7946    0.6595 H       1  LIG1        0.1232
     11 H          -1.1320    1.8206    0.6262 H       1  LIG1        0.0651
     12 C          -2.3542   -0.7758   -0.1386 C.ar    1  LIG1        0.0790
     13 C          -3.5818   -0.1725   -0.3696 C.ar    1  LIG1        0.0520
     14 C          -4.5771   -1.1841   -0.2525 C.ar    1  LIG1       -0.0189
     15 C          -3.9261   -2.3634    0.0377 C.ar    1  LIG1        0.0658
     16 N          -2.5859   -2.0935    0.1038 N.ar    1  LIG1       -0.3509
     17 H          -1.8984   -2.7715    0.4097 H       1  LIG1        0.1660
     18 C          -3.7880    1.2090   -0.6855 C.1     1  LIG1       -0.0675
     19 C          -3.9649    2.3693   -0.9452 C.1     1  LIG1       -0.1138
     20 H          -4.1186    3.3967   -1.1803 H       1  LIG1        0.1232
     21 H          -5.6361   -1.0321   -0.3790 H       1  LIG1        0.0652
     22 C          -4.4269   -3.7142    0.2521 C.ar    1  LIG1        0.0790
     23 C          -3.7601   -4.8863    0.5863 C.ar    1  LIG1        0.0520
     24 C          -4.7300   -5.9307    0.6492 C.ar    1  LIG1       -0.0189
     25 C          -5.9447   -5.3676    0.3524 C.ar    1  LIG1        0.0657
     26 N          -5.7427   -4.0267    0.1199 N.ar    1  LIG1       -0.3509
     27 H          -6.4428   -3.4003   -0.2468 H       1  LIG1        0.1660
     28 C          -2.3538   -5.0030    0.8354 C.1     1  LIG1       -0.0675
     29 C          -1.1712   -5.0968    1.0459 C.1     1  LIG1       -0.1138
     30 H          -0.1324   -5.2148    1.2522 H       1  LIG1        0.1232
     31 H          -4.5535   -6.9640    0.8931 H       1  LIG1        0.0652
     32 C          -7.2760   -5.9633    0.2686 C.ar    1  LIG1        0.0785
     33 C          -7.6891   -7.1588   -0.2910 C.ar    1  LIG1        0.0513
     34 C          -9.1020   -7.2496   -0.0984 C.ar    1  LIG1       -0.0283
     35 C          -9.4933   -6.1164    0.5632 C.ar    1  LIG1        0.0034
     36 N          -8.3830   -5.3453    0.7758 N.ar    1  LIG1       -0.3585
     37 H          -8.3538   -4.5059    1.3334 H       1  LIG1        0.1654
     38 H         -10.4644   -5.8000    0.9009 H       1  LIG1        0.0807
     39 C          -6.8388   -8.1049   -0.9510 C.1     1  LIG1       -0.0675
     40 C          -6.1309   -8.9057   -1.5009 C.1     1  LIG1       -0.1138
     41 H          -5.5038   -9.6144   -1.9895 H       1  LIG1        0.1232
     42 H          -9.7319   -8.0588   -0.4240 H       1  LIG1        0.0645
@<TRIPOS>BOND
     1    41    40    1
     2    40    39    3
     3    20    19    1
     4     6     5    1
     5    39    33    1
     6    19    18    3
     7     7     1    1
     8    18    13    1
     9     5     1   ar
    10     5     4   ar
    11     1     2   ar
    12    42    34    1
    13    21    14    1
    14    13    14   ar
    15    13    12   ar
    16    33    34   ar
    17    33    32   ar
    18    14    15   ar
    19    27    26    1
    20     4    12    1
    21     4     3   ar
    22    12    16   ar
    23    34    35   ar
    24     2     3   ar
    25     2     8    1
    26    15    16   ar
    27    15    22    1
    28    16    17    1
    29    26    22   ar
    30    26    25   ar
    31     3    11    1
    32    22    23   ar
    33     8     9    3
    34    32    25    1
    35    32    36   ar
    36    25    24   ar
    37     9    10    1
    38    35    36   ar
    39    35    38    1
    40    23    24   ar
    41    23    28    1
    42    24    31    1
    43    36    37    1
    44    28    29    3
    45    29    30    1
