@<TRIPOS>MOLECULE
mol_data/opt/m06hf/geoms/mol2/13ea13ea.out
 22 23 0 0 0
SMALL
GASTEIGER

@<TRIPOS>ATOM
      1 C           1.0531   -0.1718    0.7028 C.ar    1  LIG1        0.0177
      2 C           0.7888    0.9747   -0.0172 C.ar    1  LIG1        0.0426
      3 C          -0.5711    0.9007   -0.4486 C.ar    1  LIG1       -0.0195
      4 C          -1.0793   -0.2829    0.0244 C.ar    1  LIG1        0.0653
      5 N          -0.0779   -0.9238    0.7162 N.ar    1  LIG1       -0.3584
      6 H          -0.2114   -1.7640    1.2562 H       1  LIG1        0.1654
      7 H           1.9562   -0.4833    1.1972 H       1  LIG1        0.0819
      8 C           1.7280    2.0257   -0.2841 C.1     1  LIG1       -0.0682
      9 C           2.5134    2.9062   -0.5123 C.1     1  LIG1       -0.1139
     10 H           3.2067    3.6880   -0.7163 H       1  LIG1        0.1232
     11 H          -1.1035    1.6250   -1.0405 H       1  LIG1        0.0651
     12 C          -2.4083   -0.8776   -0.1166 C.ar    1  LIG1        0.0785
     13 C          -3.6660   -0.3219    0.0324 C.ar    1  LIG1        0.0513
     14 C          -4.6193   -1.3562   -0.2229 C.ar    1  LIG1       -0.0283
     15 C          -3.9135   -2.4933   -0.5125 C.ar    1  LIG1        0.0034
     16 N          -2.5802   -2.1929   -0.4416 N.ar    1  LIG1       -0.3585
     17 H          -1.8283   -2.8070   -0.7112 H       1  LIG1        0.1654
     18 H          -4.2495   -3.4834   -0.7661 H       1  LIG1        0.0807
     19 C          -3.9350    1.0388    0.3946 C.1     1  LIG1       -0.0675
     20 C          -4.1645    2.1803    0.6934 C.1     1  LIG1       -0.1138
     21 H          -4.3615    3.1921    0.9613 H       1  LIG1        0.1232
     22 H          -5.6897   -1.2535   -0.1836 H       1  LIG1        0.0645
@<TRIPOS>BOND
     1    11     3    1
     2    18    15    1
     3    10     9    1
     4    17    16    1
     5    15    16   ar
     6    15    14   ar
     7     9     8    3
     8     3     2   ar
     9     3     4   ar
    10    16    12   ar
    11     8     2    1
    12    14    22    1
    13    14    13   ar
    14    12     4    1
    15    12    13   ar
    16     2     1   ar
    17     4     5   ar
    18    13    19    1
    19    19    20    3
    20    20    21    1
    21     1     5   ar
    22     1     7    1
    23     5     6    1
