@<TRIPOS>MOLECULE
mol_data/opt/m06hf/geoms/mol2/13ea13ea-13ea13ea-.out
 42 45 0 0 0
SMALL
GASTEIGER

@<TRIPOS>ATOM
      1 C           1.2693   -0.3020   -0.0011 C.ar    1  LIG1        0.0177
      2 C           0.8693    1.0209   -0.0007 C.ar    1  LIG1        0.0426
      3 C          -0.5554    1.0276    0.0001 C.ar    1  LIG1       -0.0195
      4 C          -0.9631   -0.2885    0.0000 C.ar    1  LIG1        0.0653
      5 N           0.1575   -1.0744   -0.0007 N.ar    1  LIG1       -0.3584
      6 H           0.1258   -2.0854   -0.0009 H       1  LIG1        0.1654
      7 H           2.2601   -0.7209   -0.0017 H       1  LIG1        0.0819
      8 C           1.7403    2.1599   -0.0009 C.1     1  LIG1       -0.0682
      9 C           2.4683    3.1161   -0.0011 C.1     1  LIG1       -0.1139
     10 H           3.1137    3.9629   -0.0013 H       1  LIG1        0.1232
     11 H          -1.1800    1.9051    0.0005 H       1  LIG1        0.0651
     12 C          -2.2994   -0.8705    0.0006 C.ar    1  LIG1        0.0790
     13 C          -2.7179   -2.1971    0.0005 C.ar    1  LIG1        0.0520
     14 C          -4.1413   -2.1941    0.0013 C.ar    1  LIG1       -0.0189
     15 C          -4.5388   -0.8756    0.0018 C.ar    1  LIG1        0.0658
     16 N          -3.4122   -0.0988    0.0014 N.ar    1  LIG1       -0.3509
     17 H          -3.4295    0.9131    0.0017 H       1  LIG1        0.1660
     18 C          -1.8621   -3.3454   -0.0002 C.1     1  LIG1       -0.0675
     19 C          -1.1384   -4.3084   -0.0009 C.1     1  LIG1       -0.1138
     20 H          -0.5216   -5.1768   -0.0019 H       1  LIG1        0.1232
     21 H          -4.7718   -3.0675    0.0014 H       1  LIG1        0.0652
     22 C          -5.8668   -0.2790    0.0027 C.ar    1  LIG1        0.0790
     23 C          -6.2646    1.0539    0.0031 C.ar    1  LIG1        0.0520
     24 C          -7.6882    1.0713    0.0039 C.ar    1  LIG1       -0.0189
     25 C          -8.1060   -0.2412    0.0039 C.ar    1  LIG1        0.0657
     26 N          -6.9915   -1.0341    0.0031 N.ar    1  LIG1       -0.3509
     27 H          -7.0291   -2.0459    0.0029 H       1  LIG1        0.1660
     28 C          -5.3908    2.1888    0.0029 C.1     1  LIG1       -0.0675
     29 C          -4.6505    3.1391    0.0028 C.1     1  LIG1       -0.1138
     30 H          -4.0193    3.9978    0.0023 H       1  LIG1        0.1232
     31 H          -8.2999    1.9573    0.0045 H       1  LIG1        0.0652
     32 C          -9.4402   -0.8294    0.0044 C.ar    1  LIG1        0.0785
     33 C          -9.8426   -2.1576    0.0049 C.ar    1  LIG1        0.0513
     34 C         -11.2710   -2.1706    0.0053 C.ar    1  LIG1       -0.0283
     35 C         -11.6816   -0.8654    0.0051 C.ar    1  LIG1        0.0034
     36 N         -10.5676   -0.0701    0.0045 N.ar    1  LIG1       -0.3585
     37 H         -10.5715    0.9372    0.0041 H       1  LIG1        0.1654
     38 H         -12.6699   -0.4405    0.0052 H       1  LIG1        0.0807
     39 C          -8.9731   -3.2965    0.0050 C.1     1  LIG1       -0.0675
     40 C          -8.2386   -4.2515    0.0050 C.1     1  LIG1       -0.1138
     41 H          -7.6167   -5.1167    0.0050 H       1  LIG1        0.1232
     42 H         -11.8951   -3.0470    0.0058 H       1  LIG1        0.0645
@<TRIPOS>BOND
     1    20    19    1
     2     7     1    1
     3    10     9    1
     4     9     8    3
     5     1     5   ar
     6     1     2   ar
     7     8     2    1
     8    19    18    3
     9     6     5    1
    10     5     4   ar
    11     2     3   ar
    12    18    13    1
    13     4     3   ar
    14     4    12    1
    15     3    11    1
    16    13    12   ar
    17    13    14   ar
    18    12    16   ar
    19    14    21    1
    20    14    15   ar
    21    16    17    1
    22    16    15   ar
    23    15    22    1
    24    30    29    1
    25    22    26   ar
    26    22    23   ar
    27    29    28    3
    28    28    23    1
    29    27    26    1
    30    26    25   ar
    31    23    24   ar
    32    25    24   ar
    33    25    32    1
    34    24    31    1
    35    37    36    1
    36    32    36   ar
    37    32    33   ar
    38    36    35   ar
    39    33    39    1
    40    33    34   ar
    41    41    40    1
    42    39    40    3
    43    35    38    1
    44    35    34   ar
    45    34    42    1
