@<TRIPOS>MOLECULE
mol_data/opt/m06hf/geoms/mol2/13ea13ea-13ea-13ea.out
 42 45 0 0 0
SMALL
GASTEIGER

@<TRIPOS>ATOM
      1 C           1.2454   -0.3185   -0.0382 C.ar    1  LIG1        0.0177
      2 C           0.8450    0.9110   -0.5248 C.ar    1  LIG1        0.0426
      3 C          -0.5798    0.9063   -0.5521 C.ar    1  LIG1       -0.0195
      4 C          -0.9875   -0.3232   -0.0812 C.ar    1  LIG1        0.0653
      5 N           0.1339   -1.0464    0.2230 N.ar    1  LIG1       -0.3584
      6 H           0.1039   -1.9894    0.5874 H       1  LIG1        0.1654
      7 H           2.2351   -0.7038    0.1320 H       1  LIG1        0.0819
      8 C           1.7112    1.9827   -0.9215 C.1     1  LIG1       -0.0682
      9 C           2.4323    2.8854   -1.2526 C.1     1  LIG1       -0.1139
     10 H           3.0728    3.6834   -1.5467 H       1  LIG1        0.1232
     11 H          -1.2008    1.7205   -0.8871 H       1  LIG1        0.0651
     12 C          -2.3215   -0.8780    0.1143 C.ar    1  LIG1        0.0790
     13 C          -2.7354   -2.1299    0.5526 C.ar    1  LIG1        0.0520
     14 C          -4.1619   -2.1376    0.5525 C.ar    1  LIG1       -0.0189
     15 C          -4.5675   -0.9012    0.1177 C.ar    1  LIG1        0.0658
     16 N          -3.4424   -0.1537   -0.1394 N.ar    1  LIG1       -0.3509
     17 H          -3.4491    0.7619   -0.5626 H       1  LIG1        0.1660
     18 C          -1.8713   -3.2053    0.9410 C.1     1  LIG1       -0.0675
     19 C          -1.1422   -4.1073    1.2677 C.1     1  LIG1       -0.1138
     20 H          -0.5224   -4.9228    1.5626 H       1  LIG1        0.1232
     21 H          -4.8048   -2.9480    0.8482 H       1  LIG1        0.0652
     22 C          -5.8978   -0.3313   -0.0604 C.ar    1  LIG1        0.0790
     23 C          -7.0803   -0.9007   -0.5086 C.ar    1  LIG1        0.0520
     24 C          -8.0655    0.1278   -0.5177 C.ar    1  LIG1       -0.0189
     25 C          -7.4527    1.2810   -0.0770 C.ar    1  LIG1        0.0657
     26 N          -6.1474    0.9807    0.1954 N.ar    1  LIG1       -0.3509
     27 H          -5.5023    1.6388    0.6145 H       1  LIG1        0.1660
     28 C          -7.2465   -2.2636   -0.9160 C.1     1  LIG1       -0.0675
     29 C          -7.3877   -3.4071   -1.2589 C.1     1  LIG1       -0.1138
     30 H          -7.5093   -4.4181   -1.5707 H       1  LIG1        0.1232
     31 H          -9.0870    0.0087   -0.8378 H       1  LIG1        0.0652
     32 C          -7.9558    2.6356    0.1190 C.ar    1  LIG1        0.0785
     33 C          -7.2876    3.8063    0.4495 C.ar    1  LIG1        0.0513
     34 C          -8.2619    4.8495    0.5133 C.ar    1  LIG1       -0.0283
     35 C          -9.4727    4.2824    0.2221 C.ar    1  LIG1        0.0034
     36 N          -9.2718    2.9485   -0.0111 N.ar    1  LIG1       -0.3585
     37 H          -9.9919    2.2796   -0.2311 H       1  LIG1        0.1654
     38 H         -10.4552    4.7169    0.1630 H       1  LIG1        0.0807
     39 C          -5.8783    3.9251    0.6845 C.1     1  LIG1       -0.0675
     40 C          -4.6941    4.0147    0.8912 C.1     1  LIG1       -0.1138
     41 H          -3.6525    4.1310    1.0858 H       1  LIG1        0.1232
     42 H          -8.0693    5.8819    0.7466 H       1  LIG1        0.0645
@<TRIPOS>BOND
     1    30    29    1
     2    10     9    1
     3    29    28    3
     4     9     8    3
     5     8     2    1
     6    28    23    1
     7    11     3    1
     8    31    24    1
     9    17    16    1
    10     3     2   ar
    11     3     4   ar
    12     2     1   ar
    13    24    23   ar
    14    24    25   ar
    15    23    22   ar
    16    37    36    1
    17    16    12   ar
    18    16    15   ar
    19     4    12    1
    20     4     5   ar
    21    25    32    1
    22    25    26   ar
    23    22    15    1
    24    22    26   ar
    25     1     7    1
    26     1     5   ar
    27    36    32   ar
    28    36    35   ar
    29    12    13   ar
    30    15    14   ar
    31    32    33   ar
    32    38    35    1
    33    26    27    1
    34    35    34   ar
    35     5     6    1
    36    33    34   ar
    37    33    39    1
    38    34    42    1
    39    14    13   ar
    40    14    21    1
    41    13    18    1
    42    39    40    3
    43    40    41    1
    44    18    19    3
    45    19    20    1
