@<TRIPOS>MOLECULE
mol_data/opt/m06hf/geoms/mol2/13ea13lh-4al4dl.out
 57 60 0 0 0
SMALL
GASTEIGER

@<TRIPOS>ATOM
      1 C           1.3837   -0.1802    0.0100 C.ar    1  LIG1        0.0176
      2 C           0.9948    1.1431    0.0454 C.ar    1  LIG1        0.0425
      3 C          -0.4322    1.1636    0.0667 C.ar    1  LIG1       -0.0209
      4 C          -0.8608   -0.1428    0.0325 C.ar    1  LIG1        0.0513
      5 N           0.2599   -0.9403   -0.0052 N.ar    1  LIG1       -0.3594
      6 H           0.2406   -1.9451    0.0588 H       1  LIG1        0.1654
      7 H           2.3691   -0.6114    0.0069 H       1  LIG1        0.0819
      8 C           1.8782    2.2738    0.0610 C.1     1  LIG1       -0.0682
      9 C           2.6131    3.2254    0.0733 C.1     1  LIG1       -0.1139
     10 H           3.2619    4.0698    0.0831 H       1  LIG1        0.1232
     11 H          -1.0637    2.0328    0.0977 H       1  LIG1        0.0651
     12 C          -3.2919   -0.1195    0.6327 C.ar    1  LIG1        0.1300
     13 C          -4.5433   -0.7295    0.6083 C.ar    1  LIG1       -0.0080
     14 C          -2.2089   -0.7380   -0.0083 C.ar    1  LIG1        0.0434
     15 C          -4.7574   -1.9376   -0.0596 C.ar    1  LIG1        0.0291
     16 H          -5.3902   -0.2748    1.1036 H       1  LIG1        0.0661
     17 C          -2.4236   -1.9420   -0.6847 C.ar    1  LIG1       -0.0067
     18 C          -3.6789   -2.5472   -0.7138 C.ar    1  LIG1        0.1287
     19 H          -1.5988   -2.3803   -1.2300 H       1  LIG1        0.0662
     20 O          -3.0511    1.0649    1.2506 O.3     1  LIG1       -0.4944
     21 C          -4.1209    1.6792    1.9460 C.3     1  LIG1        0.0788
     22 H          -3.7128    2.5945    2.3652 H       1  LIG1        0.0660
     23 H          -4.9426    1.9148    1.2646 H       1  LIG1        0.0660
     24 H          -4.4799    1.0314    2.7496 H       1  LIG1        0.0660
     25 O          -3.9290   -3.7166   -1.3663 O.3     1  LIG1       -0.4945
     26 C          -2.8987   -4.2723   -2.1571 C.3     1  LIG1        0.0788
     27 H          -3.3303   -5.1478   -2.6347 H       1  LIG1        0.0660
     28 H          -2.5683   -3.5618   -2.9195 H       1  LIG1        0.0660
     29 H          -2.0494   -4.5743   -1.5378 H       1  LIG1        0.0660
     30 C          -7.2413   -1.7704   -0.4255 C.ar    1  LIG1        0.0332
     31 C          -8.5033   -2.3621   -0.3646 C.ar    1  LIG1       -0.0309
     32 C          -6.1238   -2.5414   -0.0643 C.ar    1  LIG1        0.0081
     33 C          -8.6857   -3.6842    0.0358 C.ar    1  LIG1        0.0079
     34 H          -9.3797   -1.7714   -0.6071 H       1  LIG1        0.0643
     35 C          -6.3026   -3.8705    0.3134 C.ar    1  LIG1       -0.0309
     36 C          -7.5627   -4.4580    0.3639 C.ar    1  LIG1        0.0332
     37 H          -5.4266   -4.4575    0.5616 H       1  LIG1        0.0643
     38 N          -7.1123   -0.4179   -0.7928 N.pl3   1  LIG1       -0.3575
     39 H          -6.2245   -0.2061   -1.2336 H       1  LIG1        0.1423
     40 H          -7.8881   -0.0829   -1.3487 H       1  LIG1        0.1423
     41 N          -7.7213   -5.7966    0.7939 N.pl3   1  LIG1       -0.3575
     42 H          -8.4599   -6.2800    0.2921 H       1  LIG1        0.1423
     43 H          -6.8598   -6.3269    0.7539 H       1  LIG1        0.1423
     44 C         -10.6505   -4.7912    1.2277 C.ar    1  LIG1        0.1241
     45 C         -10.0680   -4.2485    0.0573 C.ar    1  LIG1        0.0252
     46 C         -10.8553   -4.1792   -1.0862 C.ar    1  LIG1       -0.0285
     47 C         -12.1791   -4.6203   -1.0735 C.ar    1  LIG1        0.0436
     48 C         -12.6515   -5.1210    0.1378 C.ar    1  LIG1        0.0503
     49 N         -11.9136   -5.2118    1.2385 N.ar    1  LIG1       -0.2383
     50 H         -10.4268   -3.7687   -1.9943 H       1  LIG1        0.0644
     51 H         -13.6769   -5.4683    0.2179 H       1  LIG1        0.0849
     52 N          -9.9585   -4.8529    2.4243 N.pl3   1  LIG1       -0.3427
     53 H         -10.4746   -5.3726    3.1212 H       1  LIG1        0.1437
     54 H          -8.9832   -5.1272    2.3384 H       1  LIG1        0.1437
     55 N         -13.0124   -4.5117   -2.2034 N.pl3   1  LIG1       -0.3568
     56 H         -12.5101   -4.5721   -3.0796 H       1  LIG1        0.1424
     57 H         -13.7843   -5.1660   -2.1950 H       1  LIG1        0.1424
@<TRIPOS>BOND
     1    56    55    1
     2    28    26    1
     3    27    26    1
     4    55    57    1
     5    55    47    1
     6    26    29    1
     7    26    25    1
     8    50    46    1
     9    25    18    1
    10    40    38    1
    11    39    38    1
    12    19    17    1
    13    46    47   ar
    14    46    45   ar
    15    47    48   ar
    16    38    30    1
    17    18    17   ar
    18    18    15   ar
    19    17    14   ar
    20    34    31    1
    21    30    31   ar
    22    30    32   ar
    23    31    33   ar
    24    32    15    1
    25    32    35   ar
    26    15    13   ar
    27    14     4    1
    28    14    12   ar
    29     5     1   ar
    30     5     4   ar
    31     5     6    1
    32     7     1    1
    33     1     2   ar
    34     4     3   ar
    35    33    45    1
    36    33    36   ar
    37     2     8    1
    38     2     3   ar
    39    45    44   ar
    40     8     9    3
    41     3    11    1
    42     9    10    1
    43    48    51    1
    44    48    49   ar
    45    42    41    1
    46    35    36   ar
    47    35    37    1
    48    36    41    1
    49    13    12   ar
    50    13    16    1
    51    12    20    1
    52    43    41    1
    53    44    49   ar
    54    44    52    1
    55    20    21    1
    56    23    21    1
    57    21    22    1
    58    21    24    1
    59    54    52    1
    60    52    53    1
