@<TRIPOS>MOLECULE
mol_data/opt/m06hf/geoms/mol2/13ea13ea13ea-13ea.out
 42 45 0 0 0
SMALL
GASTEIGER

@<TRIPOS>ATOM
      1 C           1.2053   -0.1632   -0.4162 C.ar    1  LIG1        0.0177
      2 C           0.8559    1.0230    0.1956 C.ar    1  LIG1        0.0426
      3 C          -0.5578    0.9984    0.3956 C.ar    1  LIG1       -0.0195
      4 C          -1.0115   -0.1986   -0.1009 C.ar    1  LIG1        0.0653
      5 N           0.0722   -0.8923   -0.5863 N.ar    1  LIG1       -0.3584
      6 H           0.0088   -1.7611   -1.0943 H       1  LIG1        0.1654
      7 H           2.1688   -0.5171   -0.7373 H       1  LIG1        0.0819
      8 C           1.7657    2.0687    0.5652 C.1     1  LIG1       -0.0682
      9 C           2.5256    2.9456    0.8775 C.1     1  LIG1       -0.1139
     10 H           3.1959    3.7245    1.1560 H       1  LIG1        0.1232
     11 H          -1.1607    1.7613    0.8564 H       1  LIG1        0.0651
     12 C          -2.3548   -0.7659   -0.1607 C.ar    1  LIG1        0.0790
     13 C          -3.5845   -0.1643   -0.3863 C.ar    1  LIG1        0.0520
     14 C          -4.5671   -1.1950   -0.3723 C.ar    1  LIG1       -0.0189
     15 C          -3.9066   -2.3815   -0.1400 C.ar    1  LIG1        0.0658
     16 N          -2.5738   -2.1000   -0.0137 N.ar    1  LIG1       -0.3509
     17 H          -1.8816   -2.7877    0.2554 H       1  LIG1        0.1660
     18 C          -3.8025    1.2321   -0.6169 C.1     1  LIG1       -0.0675
     19 C          -3.9935    2.4034   -0.8073 C.1     1  LIG1       -0.1138
     20 H          -4.1616    3.4404   -0.9816 H       1  LIG1        0.1232
     21 H          -5.6228   -1.0580   -0.5376 H       1  LIG1        0.0652
     22 C          -4.3962   -3.7479   -0.0264 C.ar    1  LIG1        0.0790
     23 C          -3.7058   -4.9493    0.0954 C.ar    1  LIG1        0.0520
     24 C          -4.6752   -5.9899    0.1692 C.ar    1  LIG1       -0.0189
     25 C          -5.9129   -5.3919    0.0863 C.ar    1  LIG1        0.0657
     26 N          -5.7180   -4.0425   -0.0301 N.ar    1  LIG1       -0.3509
     27 H          -6.4762   -3.3725   -0.0737 H       1  LIG1        0.1660
     28 C          -2.2820   -5.0975    0.1461 C.1     1  LIG1       -0.0675
     29 C          -1.0844   -5.2197    0.1972 C.1     1  LIG1       -0.1138
     30 H          -0.0299   -5.3639    0.2493 H       1  LIG1        0.1232
     31 H          -4.4577   -7.0382    0.2848 H       1  LIG1        0.0652
     32 C          -7.2582   -5.9539    0.1005 C.ar    1  LIG1        0.0785
     33 C          -8.4967   -5.3319    0.1702 C.ar    1  LIG1        0.0513
     34 C          -9.4904   -6.3584    0.1469 C.ar    1  LIG1       -0.0283
     35 C          -8.8283   -7.5530    0.0642 C.ar    1  LIG1        0.0034
     36 N          -7.4848   -7.2928    0.0363 N.ar    1  LIG1       -0.3585
     37 H          -6.7591   -7.9855   -0.0561 H       1  LIG1        0.1654
     38 H          -9.2014   -8.5609    0.0205 H       1  LIG1        0.0807
     39 C          -8.7180   -3.9185    0.2523 C.1     1  LIG1       -0.0675
     40 C          -8.8991   -2.7292    0.3176 C.1     1  LIG1       -0.1138
     41 H          -9.0903   -1.6833    0.3900 H       1  LIG1        0.1232
     42 H         -10.5550   -6.2085    0.1884 H       1  LIG1        0.0645
@<TRIPOS>BOND
     1     6     5    1
     2    20    19    1
     3    19    18    3
     4     7     1    1
     5    18    13    1
     6     5     1   ar
     7     5     4   ar
     8    21    14    1
     9     1     2   ar
    10    13    14   ar
    11    13    12   ar
    12    14    15   ar
    13    12     4    1
    14    12    16   ar
    15    15    22    1
    16    15    16   ar
    17     4     3   ar
    18    27    26    1
    19    37    36    1
    20    26    22   ar
    21    26    25   ar
    22    22    23   ar
    23    16    17    1
    24    38    35    1
    25    36    35   ar
    26    36    32   ar
    27    35    34   ar
    28    25    32    1
    29    25    24   ar
    30    23    28    1
    31    23    24   ar
    32    32    33   ar
    33    28    29    3
    34    34    33   ar
    35    34    42    1
    36    24    31    1
    37    33    39    1
    38     2     3   ar
    39     2     8    1
    40    29    30    1
    41    39    40    3
    42    40    41    1
    43     3    11    1
    44     8     9    3
    45     9    10    1
