@<TRIPOS>MOLECULE
mol_data/opt/m06hf/geoms/mol2/13ea4ll4hh-6hh.out
 54 57 0 0 0
SMALL
GASTEIGER

@<TRIPOS>ATOM
      1 C           1.1153    0.3745   -0.9371 C.ar    1  LIG1        0.0209
      2 C           0.9368    1.1127    0.2078 C.ar    1  LIG1        0.0870
      3 C          -0.3927    0.8612    0.6702 C.ar    1  LIG1        0.0944
      4 C          -0.9734   -0.0289   -0.2103 C.ar    1  LIG1        0.0690
      5 N          -0.0389   -0.3046   -1.1668 N.ar    1  LIG1       -0.3583
      6 H          -0.2274   -0.8790   -1.9746 H       1  LIG1        0.1654
      7 H           1.9702    0.3027   -1.5862 H       1  LIG1        0.0820
      8 N           2.7131    2.6376    1.2952 N.1     1  LIG1       -0.1908
      9 C           1.9184    1.9636    0.8151 C.1     1  LIG1        0.1020
     10 N          -1.4964    1.8159    2.7986 N.1     1  LIG1       -0.1908
     11 C          -1.0076    1.3943    1.8494 C.1     1  LIG1        0.1026
     12 C          -3.4435    0.0778    0.0575 C.ar    1  LIG1        0.1300
     13 C          -4.6822   -0.5619    0.0955 C.ar    1  LIG1       -0.0081
     14 C          -2.2985   -0.6765   -0.2101 C.ar    1  LIG1        0.0447
     15 C          -4.7972   -1.9251   -0.1593 C.ar    1  LIG1        0.0285
     16 H          -5.5791    0.0006    0.3136 H       1  LIG1        0.0661
     17 C          -2.4039   -2.0474   -0.4629 C.ar    1  LIG1       -0.0067
     18 C          -3.6447   -2.6762   -0.4461 C.ar    1  LIG1        0.1287
     19 H          -1.4996   -2.6180   -0.6261 H       1  LIG1        0.0662
     20 O          -3.2744    1.4061    0.2439 O.3     1  LIG1       -0.4944
     21 C          -4.2852    2.1185    0.9421 C.3     1  LIG1        0.0788
     22 H          -3.8573    3.0923    1.1618 H       1  LIG1        0.0660
     23 H          -5.1754    2.2299    0.3182 H       1  LIG1        0.0660
     24 H          -4.5312    1.6061    1.8740 H       1  LIG1        0.0660
     25 O          -3.8164   -4.0039   -0.6777 O.3     1  LIG1       -0.4945
     26 C          -2.6820   -4.7770   -1.0161 C.3     1  LIG1        0.0788
     27 H          -3.0523   -5.7818   -1.1980 H       1  LIG1        0.0660
     28 H          -2.2087   -4.3894   -1.9223 H       1  LIG1        0.0660
     29 H          -1.9616   -4.7919   -0.1940 H       1  LIG1        0.0660
     30 C          -7.2424   -2.0545   -0.8087 C.ar    1  LIG1        0.0332
     31 C          -8.4868   -2.6789   -0.7236 C.ar    1  LIG1       -0.0355
     32 C          -6.1380   -2.5777   -0.1127 C.ar    1  LIG1        0.0023
     33 C          -8.6900   -3.8144    0.0606 C.ar    1  LIG1        0.0149
     34 H          -9.3072   -2.2784   -1.3025 H       1  LIG1        0.0637
     35 C          -6.3307   -3.7235    0.6516 C.ar    1  LIG1       -0.0367
     36 C          -7.5809   -4.3381    0.7521 C.ar    1  LIG1        0.0344
     37 H          -5.4959   -4.1513    1.1887 H       1  LIG1        0.0636
     38 C          -7.1285   -0.8869   -1.6543 C.1     1  LIG1       -0.0690
     39 C          -7.0772    0.0827   -2.3627 C.1     1  LIG1       -0.1139
     40 H          -7.0254    0.9394   -2.9943 H       1  LIG1        0.1232
     41 C          -7.6716   -5.5065    1.6001 C.1     1  LIG1       -0.0690
     42 C          -7.6930   -6.4778    2.3102 C.1     1  LIG1       -0.1139
     43 H          -7.7067   -7.3237    2.9586 H       1  LIG1        0.1232
     44 C         -10.0463   -4.3880    0.1159 C.ar    1  LIG1        0.0489
     45 C         -11.2594   -3.7708   -0.1076 C.ar    1  LIG1       -0.0210
     46 C         -12.2710   -4.7616    0.0300 C.ar    1  LIG1        0.0425
     47 C         -11.6331   -5.9496    0.3345 C.ar    1  LIG1        0.0176
     48 N         -10.3030   -5.7081    0.3831 N.ar    1  LIG1       -0.3595
     49 H          -9.5890   -6.3812    0.6191 H       1  LIG1        0.1654
     50 H         -12.0456   -6.9261    0.5180 H       1  LIG1        0.0819
     51 H         -11.4226   -2.7277   -0.3189 H       1  LIG1        0.0651
     52 C         -13.6874   -4.5820   -0.1090 C.1     1  LIG1       -0.0682
     53 C         -14.8735   -4.4288   -0.2289 C.1     1  LIG1       -0.1139
     54 H         -15.9245   -4.2947   -0.3370 H       1  LIG1        0.1232
@<TRIPOS>BOND
     1    40    39    1
     2    39    38    3
     3     6     5    1
     4    28    26    1
     5    38    30    1
     6     7     1    1
     7    34    31    1
     8    27    26    1
     9     5     1   ar
    10     5     4   ar
    11    26    25    1
    12    26    29    1
    13     1     2   ar
    14    30    31   ar
    15    30    32   ar
    16    31    33   ar
    17    25    18    1
    18    19    17    1
    19    17    18   ar
    20    17    14   ar
    21    18    15   ar
    22    54    53    1
    23    51    45    1
    24    53    52    3
    25     4    14    1
    26     4     3   ar
    27    14    12   ar
    28    15    32    1
    29    15    13   ar
    30    32    35   ar
    31    52    46    1
    32    45    46   ar
    33    45    44   ar
    34    46    47   ar
    35    12    13   ar
    36    12    20    1
    37    33    44    1
    38    33    36   ar
    39    13    16    1
    40    44    48   ar
    41     2     3   ar
    42     2     9    1
    43    20    21    1
    44    23    21    1
    45    47    48   ar
    46    47    50    1
    47    48    49    1
    48    35    36   ar
    49    35    37    1
    50     3    11    1
    51    36    41    1
    52     9     8    3
    53    21    22    1
    54    21    24    1
    55    41    42    3
    56    11    10    3
    57    42    43    1
