@<TRIPOS>MOLECULE
mol_data/opt/m06hf/geoms/mol2/13ea13ea-4ea13ea.out
 44 47 0 0 0
SMALL
GASTEIGER

@<TRIPOS>ATOM
      1 C           1.3650   -0.4397   -0.1652 C.ar    1  LIG1        0.0177
      2 C           1.0077    0.8947   -0.1979 C.ar    1  LIG1        0.0426
      3 C          -0.4155    0.9481   -0.1592 C.ar    1  LIG1       -0.0195
      4 C          -0.8652   -0.3533   -0.1039 C.ar    1  LIG1        0.0653
      5 N           0.2294   -1.1747   -0.1088 N.ar    1  LIG1       -0.3584
      6 H           0.1680   -2.1837   -0.0689 H       1  LIG1        0.1654
      7 H           2.3410   -0.8920   -0.1780 H       1  LIG1        0.0819
      8 C           1.9128    2.0052   -0.2571 C.1     1  LIG1       -0.0682
      9 C           2.6680    2.9391   -0.3041 C.1     1  LIG1       -0.1139
     10 H           3.3366    3.7666   -0.3464 H       1  LIG1        0.1232
     11 H          -1.0107    1.8460   -0.1715 H       1  LIG1        0.0651
     12 C          -2.2182   -0.8923   -0.0419 C.ar    1  LIG1        0.0789
     13 C          -2.6764   -2.2041    0.0402 C.ar    1  LIG1        0.0519
     14 C          -4.0961   -2.1514    0.0903 C.ar    1  LIG1       -0.0203
     15 C          -4.4601   -0.8226    0.0368 C.ar    1  LIG1        0.0493
     16 N          -3.3055   -0.0883   -0.0447 N.ar    1  LIG1       -0.3520
     17 H          -3.2838    0.9216   -0.0631 H       1  LIG1        0.1660
     18 C          -1.8558   -3.3775    0.0776 C.1     1  LIG1       -0.0675
     19 C          -1.1616   -4.3615    0.1078 C.1     1  LIG1       -0.1138
     20 H          -0.5727   -5.2489    0.1365 H       1  LIG1        0.1232
     21 H          -4.7532   -2.9988    0.1854 H       1  LIG1        0.0651
     22 C          -6.0846    1.0897    0.4533 C.ar    1  LIG1        0.0344
     23 C          -7.3938    1.5789    0.4429 C.ar    1  LIG1       -0.0365
     24 C          -5.8068   -0.2261    0.0344 C.ar    1  LIG1        0.0137
     25 C          -8.4511    0.7792    0.0167 C.ar    1  LIG1        0.0007
     26 H          -7.5813    2.5891    0.7802 H       1  LIG1        0.0636
     27 C          -6.8786   -1.0094   -0.4093 C.ar    1  LIG1       -0.0508
     28 C          -8.1757   -0.5230   -0.4176 C.ar    1  LIG1       -0.0519
     29 H          -6.6772   -2.0030   -0.7862 H       1  LIG1        0.0625
     30 C          -5.0540    1.9841    0.9366 C.1     1  LIG1       -0.0690
     31 C          -4.2269    2.7592    1.3409 C.1     1  LIG1       -0.1139
     32 H          -3.5057    3.4453    1.7227 H       1  LIG1        0.1232
     33 H          -8.9734   -1.1431   -0.8081 H       1  LIG1        0.0624
     34 C          -9.8288    1.3002    0.0228 C.ar    1  LIG1        0.0621
     35 C         -10.3256    2.5711   -0.2228 C.ar    1  LIG1        0.0499
     36 C         -11.7465    2.5058   -0.0966 C.ar    1  LIG1       -0.0284
     37 C         -12.0628    1.2120    0.2220 C.ar    1  LIG1        0.0034
     38 N         -10.8996    0.4971    0.2845 N.ar    1  LIG1       -0.3597
     39 H         -10.8220   -0.4637    0.5778 H       1  LIG1        0.1654
     40 H         -13.0141    0.7476    0.4142 H       1  LIG1        0.0807
     41 C          -9.5550    3.7267   -0.5770 C.1     1  LIG1       -0.0675
     42 C          -8.9190    4.7040   -0.8710 C.1     1  LIG1       -0.1138
     43 H          -8.3565    5.5672   -1.1398 H       1  LIG1        0.1232
     44 H         -12.4306    3.3246   -0.2357 H       1  LIG1        0.0645
@<TRIPOS>BOND
     1    43    42    1
     2    42    41    3
     3    33    28    1
     4    29    27    1
     5    41    35    1
     6    28    27   ar
     7    28    25   ar
     8    27    24   ar
     9    10     9    1
    10     9     8    3
    11     8     2    1
    12    44    36    1
    13    35    36   ar
    14    35    34   ar
    15     2     1   ar
    16     2     3   ar
    17     7     1    1
    18    11     3    1
    19     1     5   ar
    20     3     4   ar
    21     5     4   ar
    22     5     6    1
    23     4    12    1
    24    36    37   ar
    25    17    16    1
    26    16    12   ar
    27    16    15   ar
    28    12    13   ar
    29    25    34    1
    30    25    23   ar
    31    34    38   ar
    32    24    15    1
    33    24    22   ar
    34    15    14   ar
    35    13    18    1
    36    13    14   ar
    37    18    19    3
    38    14    21    1
    39    19    20    1
    40    37    38   ar
    41    37    40    1
    42    38    39    1
    43    23    22   ar
    44    23    26    1
    45    22    30    1
    46    30    31    3
    47    31    32    1
