@<TRIPOS>MOLECULE
mol_data/opt/m06hf/geoms/mol2/13ea13ea-.out
 22 23 0 0 0
SMALL
GASTEIGER

@<TRIPOS>ATOM
      1 C           1.1450   -0.2984   -0.0002 C.ar    1  LIG1        0.0177
      2 C           0.7536    1.0263   -0.0000 C.ar    1  LIG1        0.0426
      3 C          -0.6714    1.0416    0.0002 C.ar    1  LIG1       -0.0195
      4 C          -1.0889   -0.2714    0.0002 C.ar    1  LIG1        0.0653
      5 N           0.0274   -1.0632   -0.0001 N.ar    1  LIG1       -0.3584
      6 H          -0.0101   -2.0744   -0.0002 H       1  LIG1        0.1654
      7 H           2.1321   -0.7250   -0.0004 H       1  LIG1        0.0819
      8 C           1.6279    2.1631   -0.0001 C.1     1  LIG1       -0.0682
      9 C           2.3572    3.1188   -0.0001 C.1     1  LIG1       -0.1139
     10 H           3.0037    3.9653   -0.0001 H       1  LIG1        0.1232
     11 H          -1.2843    1.9275    0.0004 H       1  LIG1        0.0651
     12 C          -2.4266   -0.8547    0.0004 C.ar    1  LIG1        0.0785
     13 C          -2.8440   -2.1782    0.0003 C.ar    1  LIG1        0.0513
     14 C          -4.2734   -2.1763    0.0006 C.ar    1  LIG1       -0.0283
     15 C          -4.6699   -0.8670    0.0008 C.ar    1  LIG1        0.0034
     16 N          -3.5467   -0.0842    0.0007 N.ar    1  LIG1       -0.3585
     17 H          -3.5394    0.9229    0.0008 H       1  LIG1        0.1654
     18 H          -5.6527   -0.4305    0.0010 H       1  LIG1        0.0807
     19 C          -1.9879   -3.3271   -0.0001 C.1     1  LIG1       -0.0675
     20 C          -1.2676   -4.2929   -0.0003 C.1     1  LIG1       -0.1138
     21 H          -0.6571   -5.1665   -0.0006 H       1  LIG1        0.1232
     22 H          -4.9067   -3.0464    0.0006 H       1  LIG1        0.0645
@<TRIPOS>BOND
     1    21    20    1
     2     7     1    1
     3    20    19    3
     4     1     5   ar
     5     1     2   ar
     6     6     5    1
     7    10     9    1
     8     9     8    3
     9     5     4   ar
    10    19    13    1
    11     8     2    1
    12     2     3   ar
    13     4     3   ar
    14     4    12    1
    15     3    11    1
    16    13    12   ar
    17    13    14   ar
    18    12    16   ar
    19    14    22    1
    20    14    15   ar
    21    16    15   ar
    22    16    17    1
    23    15    18    1
