@<TRIPOS>MOLECULE
mol_data/opt/m06hf/geoms/mol2/13ed13ed13ed13ed.out
 46 49 0 0 0
SMALL
GASTEIGER

@<TRIPOS>ATOM
      1 C           0.2424    0.4886   -2.3442 C.ar    1  LIG1        0.0190
      2 C           0.6366    1.0749   -1.1637 C.ar    1  LIG1        0.0600
      3 C          -0.3396    0.7099   -0.1828 C.ar    1  LIG1        0.0937
      4 C          -1.2838   -0.0777   -0.8052 C.ar    1  LIG1        0.0829
      5 N          -0.9081   -0.2018   -2.1122 N.ar    1  LIG1       -0.3573
      6 H          -1.4711   -0.6450   -2.8228 H       1  LIG1        0.1655
      7 H           0.7001    0.5282   -3.3166 H       1  LIG1        0.0820
      8 C           1.7972    1.8863   -0.9527 C.1     1  LIG1       -0.0669
      9 C           2.7658    2.5706   -0.7646 C.1     1  LIG1       -0.1138
     10 H           3.6207    3.1830   -0.5902 H       1  LIG1        0.1232
     11 N          -0.3191    1.3336    2.3210 N.1     1  LIG1       -0.1908
     12 C          -0.3314    1.0595    1.2070 C.1     1  LIG1        0.1026
     13 C          -2.4907   -0.7028   -0.2666 C.ar    1  LIG1        0.0815
     14 C          -3.5442   -0.1353    0.4225 C.ar    1  LIG1        0.0694
     15 C          -4.4618   -1.1931    0.7034 C.ar    1  LIG1        0.0944
     16 C          -3.9392   -2.3568    0.1764 C.ar    1  LIG1        0.0834
     17 N          -2.7487   -2.0389   -0.4044 N.ar    1  LIG1       -0.3498
     18 H          -2.1442   -2.6954   -0.8762 H       1  LIG1        0.1661
     19 C          -3.6775    1.2435    0.7723 C.1     1  LIG1       -0.0662
     20 C          -3.7819    2.4010    1.0709 C.1     1  LIG1       -0.1138
     21 H          -3.8678    3.4263    1.3482 H       1  LIG1        0.1232
     22 N          -6.6887   -1.0035    1.9920 N.1     1  LIG1       -0.1908
     23 C          -5.6988   -1.0867    1.4185 C.1     1  LIG1        0.1026
     24 C          -4.4753   -3.7172    0.1845 C.ar    1  LIG1        0.0815
     25 C          -5.6959   -4.1817   -0.2624 C.ar    1  LIG1        0.0694
     26 C          -5.7000   -5.5919   -0.0355 C.ar    1  LIG1        0.0944
     27 C          -4.4899   -5.9321    0.5353 C.ar    1  LIG1        0.0834
     28 N          -3.7649   -4.7854    0.6587 N.ar    1  LIG1       -0.3498
     29 H          -2.8366   -4.7352    1.0523 H       1  LIG1        0.1661
     30 C          -6.7408   -3.3951   -0.8379 C.1     1  LIG1       -0.0662
     31 C          -7.6243   -2.7355   -1.3116 C.1     1  LIG1       -0.1138
     32 H          -8.4170   -2.1498   -1.7166 H       1  LIG1        0.1232
     33 N          -7.6276   -7.2234   -0.5622 N.1     1  LIG1       -0.1908
     34 C          -6.7695   -6.4996   -0.3270 C.1     1  LIG1        0.1026
     35 C          -3.9789   -7.2343    0.9602 C.ar    1  LIG1        0.0810
     36 C          -3.8708   -8.4075    0.2447 C.ar    1  LIG1        0.0687
     37 C          -3.2937   -9.3687    1.1337 C.ar    1  LIG1        0.0850
     38 C          -3.0772   -8.7467    2.3415 C.ar    1  LIG1        0.0209
     39 N          -3.4896   -7.4606    2.2208 N.ar    1  LIG1       -0.3573
     40 H          -3.5443   -6.7974    2.9798 H       1  LIG1        0.1655
     41 H          -2.6734   -9.1391    3.2582 H       1  LIG1        0.0820
     42 C          -4.2515   -8.6054   -1.1187 C.1     1  LIG1       -0.0662
     43 C          -4.5821   -8.7751   -2.2601 C.1     1  LIG1       -0.1138
     44 H          -4.8938   -8.9352   -3.2667 H       1  LIG1        0.1232
     45 N          -2.7274  -11.8246    0.5746 N.1     1  LIG1       -0.1908
     46 C          -2.9821  -10.7336    0.8227 C.1     1  LIG1        0.1019
@<TRIPOS>BOND
     1     7     1    1
     2    44    43    1
     3     6     5    1
     4     1     5   ar
     5     1     2   ar
     6    43    42    3
     7     5     4   ar
     8    32    31    1
     9    31    30    3
    10     2     8    1
    11     2     3   ar
    12    42    36    1
    13     8     9    3
    14    18    17    1
    15    30    25    1
    16     4    13    1
    17     4     3   ar
    18     9    10    1
    19    33    34    3
    20    17    13   ar
    21    17    16   ar
    22    34    26    1
    23    13    14   ar
    24    25    26   ar
    25    25    24   ar
    26     3    12    1
    27    26    27   ar
    28    16    24    1
    29    16    15   ar
    30    24    28   ar
    31    36    35   ar
    32    36    37   ar
    33    14    15   ar
    34    14    19    1
    35    27    28   ar
    36    27    35    1
    37    45    46    3
    38    28    29    1
    39    15    23    1
    40    19    20    3
    41    46    37    1
    42    35    39   ar
    43    20    21    1
    44    37    38   ar
    45    12    11    3
    46    23    22    3
    47    39    38   ar
    48    39    40    1
    49    38    41    1
