@<TRIPOS>MOLECULE
mol_data/opt/m06hf/geoms/mol2/13ed13ed-13ed-13ed-.out
 46 49 0 0 0
SMALL
GASTEIGER

@<TRIPOS>ATOM
      1 C           1.1484   -0.1132    0.0434 C.ar    1  LIG1        0.0190
      2 C           0.6300    1.1432    0.2600 C.ar    1  LIG1        0.0600
      3 C          -0.7916    0.9952    0.2359 C.ar    1  LIG1        0.0937
      4 C          -1.0728   -0.3447    0.0121 C.ar    1  LIG1        0.0829
      5 N           0.1140   -0.9879   -0.1010 N.ar    1  LIG1       -0.3573
      6 H           0.1853   -1.9807   -0.2911 H       1  LIG1        0.1655
      7 H           2.1757   -0.4268   -0.0165 H       1  LIG1        0.0820
      8 C           1.3593    2.3570    0.4644 C.1     1  LIG1       -0.0669
      9 C           1.9631    3.3800    0.6385 C.1     1  LIG1       -0.1138
     10 H           2.4988    4.2881    0.7950 H       1  LIG1        0.1232
     11 N          -2.7163    2.6912    0.4877 N.1     1  LIG1       -0.1908
     12 C          -1.8053    1.9952    0.3830 C.1     1  LIG1        0.1026
     13 C          -2.3587   -1.0119   -0.1107 C.ar    1  LIG1        0.0815
     14 C          -2.6957   -2.2914   -0.5146 C.ar    1  LIG1        0.0694
     15 C          -4.1254   -2.3693   -0.4919 C.ar    1  LIG1        0.0944
     16 C          -4.5972   -1.1404   -0.0677 C.ar    1  LIG1        0.0834
     17 N          -3.5151   -0.3506    0.1612 N.ar    1  LIG1       -0.3498
     18 H          -3.5630    0.5731    0.5730 H       1  LIG1        0.1661
     19 C          -1.7748   -3.3157   -0.8986 C.1     1  LIG1       -0.0662
     20 C          -0.9916   -4.1726   -1.2139 C.1     1  LIG1       -0.1138
     21 H          -0.3277   -4.9538   -1.5075 H       1  LIG1        0.1232
     22 N          -5.5064   -4.4144   -1.2403 N.1     1  LIG1       -0.1908
     23 C          -4.9036   -3.4991   -0.9011 C.1     1  LIG1        0.1026
     24 C          -5.9154   -0.5495    0.1196 C.ar    1  LIG1        0.0815
     25 C          -7.0998   -1.0364    0.6295 C.ar    1  LIG1        0.0694
     26 C          -8.0040    0.0738    0.6866 C.ar    1  LIG1        0.0944
     27 C          -7.3381    1.1874    0.2122 C.ar    1  LIG1        0.0834
     28 N          -6.0781    0.7906   -0.1219 N.ar    1  LIG1       -0.3498
     29 H          -5.4334    1.3595   -0.6557 H       1  LIG1        0.1661
     30 C          -7.3400   -2.3701    1.0792 C.1     1  LIG1       -0.0662
     31 C          -7.5269   -3.4958    1.4512 C.1     1  LIG1       -0.1138
     32 H          -7.6919   -4.5003    1.7667 H       1  LIG1        0.1232
     33 N         -10.3893   -0.0082    1.6661 N.1     1  LIG1       -0.1908
     34 C          -9.3316    0.0378    1.2239 C.1     1  LIG1        0.1026
     35 C          -7.7361    2.5830    0.0654 C.ar    1  LIG1        0.0810
     36 C          -8.9095    3.1431   -0.3966 C.ar    1  LIG1        0.0687
     37 C          -8.7186    4.5610   -0.3567 C.ar    1  LIG1        0.0850
     38 C          -7.4492    4.8019    0.1164 C.ar    1  LIG1        0.0209
     39 N          -6.8674    3.6032    0.3624 N.ar    1  LIG1       -0.3573
     40 H          -5.9511    3.4811    0.7714 H       1  LIG1        0.1655
     41 H          -6.9421    5.7341    0.2941 H       1  LIG1        0.0820
     42 C         -10.0631    2.4395   -0.8598 C.1     1  LIG1       -0.0662
     43 C         -11.0304    1.8426   -1.2452 C.1     1  LIG1       -0.1138
     44 H         -11.8929    1.3073   -1.5702 H       1  LIG1        0.1232
     45 N         -10.4170    6.3675   -1.0732 N.1     1  LIG1       -0.1908
     46 C          -9.6669    5.5602   -0.7539 C.1     1  LIG1        0.1019
@<TRIPOS>BOND
     1    44    43    1
     2    21    20    1
     3    43    42    3
     4    22    23    3
     5    20    19    3
     6    45    46    3
     7    23    15    1
     8    19    14    1
     9    42    36    1
    10    46    37    1
    11    29    28    1
    12    14    15   ar
    13    14    13   ar
    14    15    16   ar
    15    36    37   ar
    16    36    35   ar
    17    37    38   ar
    18     6     5    1
    19    28    24   ar
    20    28    27   ar
    21    13     4    1
    22    13    17   ar
    23     5     4   ar
    24     5     1   ar
    25    16    24    1
    26    16    17   ar
    27     7     1    1
    28     4     3   ar
    29     1     2   ar
    30    35    27    1
    31    35    39   ar
    32    38    41    1
    33    38    39   ar
    34    24    25   ar
    35    17    18    1
    36    27    26   ar
    37     3     2   ar
    38     3    12    1
    39     2     8    1
    40    39    40    1
    41    12    11    3
    42     8     9    3
    43    25    26   ar
    44    25    30    1
    45     9    10    1
    46    26    34    1
    47    30    31    3
    48    34    33    3
    49    31    32    1
