@<TRIPOS>MOLECULE
mol_data/opt/m06hf/geoms/mol2/13ed13ed.out
 24 25 0 0 0
SMALL
GASTEIGER

@<TRIPOS>ATOM
      1 C           1.0556   -0.1758   -0.7927 C.ar    1  LIG1        0.0190
      2 C           0.8177    0.9870   -0.0976 C.ar    1  LIG1        0.0600
      3 C          -0.5363    0.9157    0.3639 C.ar    1  LIG1        0.0937
      4 C          -1.0643   -0.2812   -0.0704 C.ar    1  LIG1        0.0829
      5 N          -0.0803   -0.9259   -0.7645 N.ar    1  LIG1       -0.3573
      6 H          -0.2201   -1.7891   -1.2675 H       1  LIG1        0.1655
      7 H           1.9465   -0.5029   -1.2992 H       1  LIG1        0.0820
      8 C           1.7424    2.0556    0.1320 C.1     1  LIG1       -0.0669
      9 C           2.5062    2.9600    0.3333 C.1     1  LIG1       -0.1138
     10 H           3.1773    3.7670    0.5174 H       1  LIG1        0.1232
     11 N          -1.7545    2.6757    1.8043 N.1     1  LIG1       -0.1908
     12 C          -1.2178    1.8915    1.1617 C.1     1  LIG1        0.1026
     13 C          -2.3960   -0.8565    0.1113 C.ar    1  LIG1        0.0810
     14 C          -3.6371   -0.3238   -0.1660 C.ar    1  LIG1        0.0687
     15 C          -4.5946   -1.3268    0.1898 C.ar    1  LIG1        0.0850
     16 C          -3.9038   -2.4179    0.6630 C.ar    1  LIG1        0.0209
     17 N          -2.5820   -2.1216    0.6064 N.ar    1  LIG1       -0.3573
     18 H          -1.8404   -2.7025    0.9670 H       1  LIG1        0.1655
     19 H          -4.2701   -3.3598    1.0326 H       1  LIG1        0.0820
     20 C          -3.8970    0.9701   -0.7149 C.1     1  LIG1       -0.0662
     21 C          -4.1082    2.0617   -1.1668 C.1     1  LIG1       -0.1138
     22 H          -4.2952    3.0372   -1.5525 H       1  LIG1        0.1232
     23 N          -7.1611   -1.1742   -0.0426 N.1     1  LIG1       -0.1908
     24 C          -6.0199   -1.2334    0.0622 C.1     1  LIG1        0.1019
@<TRIPOS>BOND
     1    22    21    1
     2     7     1    1
     3     6     5    1
     4    21    20    3
     5     1     5   ar
     6     1     2   ar
     7     5     4   ar
     8    20    14    1
     9    14    13   ar
    10    14    15   ar
    11     2     8    1
    12     2     3   ar
    13     4    13    1
    14     4     3   ar
    15    23    24    3
    16    24    15    1
    17    13    17   ar
    18     8     9    3
    19    15    16   ar
    20     9    10    1
    21     3    12    1
    22    17    16   ar
    23    17    18    1
    24    16    19    1
    25    12    11    3
