@<TRIPOS>MOLECULE
mol_data/opt/m06hf/geoms/mol2/13ed13ed13ed.out
 35 37 0 0 0
SMALL
GASTEIGER

@<TRIPOS>ATOM
      1 C           0.7037    0.1999   -1.6296 C.ar    1  LIG1        0.0190
      2 C           0.7884    1.0007   -0.5134 C.ar    1  LIG1        0.0600
      3 C          -0.4098    0.7783    0.2370 C.ar    1  LIG1        0.0937
      4 C          -1.1700   -0.1433   -0.4505 C.ar    1  LIG1        0.0829
      5 N          -0.4736   -0.4811   -1.5750 N.ar    1  LIG1       -0.3573
      6 H          -0.8335   -1.0794   -2.3038 H       1  LIG1        0.1655
      7 H           1.3958    0.0830   -2.4445 H       1  LIG1        0.0820
      8 C           1.8674    1.8733   -0.1635 C.1     1  LIG1       -0.0669
      9 C           2.7686    2.6053    0.1413 C.1     1  LIG1       -0.1138
     10 H           3.5653    3.2556    0.4198 H       1  LIG1        0.1232
     11 N          -1.0323    1.8369    2.5062 N.1     1  LIG1       -0.1908
     12 C          -0.7581    1.3702    1.4948 C.1     1  LIG1        0.1026
     13 C          -2.4780   -0.7155   -0.1285 C.ar    1  LIG1        0.0815
     14 C          -3.6921   -0.0884    0.0678 C.ar    1  LIG1        0.0694
     15 C          -4.6405   -1.1188    0.3487 C.ar    1  LIG1        0.0944
     16 C          -3.9745   -2.3275    0.3123 C.ar    1  LIG1        0.0834
     17 N          -2.6710   -2.0608    0.0218 N.ar    1  LIG1       -0.3498
     18 H          -1.9499   -2.7609   -0.0782 H       1  LIG1        0.1661
     19 C          -3.9340    1.3189    0.0013 C.1     1  LIG1       -0.0662
     20 C          -4.1330    2.5012   -0.0489 C.1     1  LIG1       -0.1138
     21 H          -4.3117    3.5515   -0.0826 H       1  LIG1        0.1232
     22 N          -7.1482   -0.8073    0.8686 N.1     1  LIG1       -0.1908
     23 C          -6.0333   -0.9456    0.6374 C.1     1  LIG1        0.1026
     24 C          -4.4637   -3.6869    0.5382 C.ar    1  LIG1        0.0810
     25 C          -5.4862   -4.3712   -0.0833 C.ar    1  LIG1        0.0687
     26 C          -5.5244   -5.6694    0.5177 C.ar    1  LIG1        0.0850
     27 C          -4.5336   -5.7203    1.4708 C.ar    1  LIG1        0.0209
     28 N          -3.9001   -4.5217    1.4684 N.ar    1  LIG1       -0.3573
     29 H          -3.1930   -4.2374    2.1303 H       1  LIG1        0.1655
     30 H          -4.2580   -6.5179    2.1386 H       1  LIG1        0.0820
     31 C          -6.3236   -3.8721   -1.1285 C.1     1  LIG1       -0.0662
     32 C          -7.0310   -3.4484   -2.0005 C.1     1  LIG1       -0.1138
     33 H          -7.6721   -3.0706   -2.7635 H       1  LIG1        0.1232
     34 N          -7.1284   -7.6027   -0.0746 N.1     1  LIG1       -0.1908
     35 C          -6.4202   -6.7387    0.1863 C.1     1  LIG1        0.1019
@<TRIPOS>BOND
     1    33    32    1
     2     7     1    1
     3     6     5    1
     4    32    31    3
     5     1     5   ar
     6     1     2   ar
     7     5     4   ar
     8    31    25    1
     9     2     8    1
    10     2     3   ar
    11     4    13    1
    12     4     3   ar
    13     8     9    3
    14    13    17   ar
    15    13    14   ar
    16    25    26   ar
    17    25    24   ar
    18    21    20    1
    19    18    17    1
    20    34    35    3
    21    20    19    3
    22    19    14    1
    23    17    16   ar
    24    14    15   ar
    25     9    10    1
    26    35    26    1
    27     3    12    1
    28    16    15   ar
    29    16    24    1
    30    15    23    1
    31    26    27   ar
    32    24    28   ar
    33    23    22    3
    34    28    27   ar
    35    28    29    1
    36    27    30    1
    37    12    11    3
