@<TRIPOS>MOLECULE
mol_data/opt/m06hf/geoms/mol2/13ed13ed-13ed.out
 35 37 0 0 0
SMALL
GASTEIGER

@<TRIPOS>ATOM
      1 C           1.2639   -0.3747   -0.0008 C.ar    1  LIG1        0.0190
      2 C           0.9352    0.9607   -0.0004 C.ar    1  LIG1        0.0600
      3 C          -0.4935    1.0203    0.0003 C.ar    1  LIG1        0.0937
      4 C          -0.9736   -0.2787    0.0002 C.ar    1  LIG1        0.0829
      5 N           0.1129   -1.0970   -0.0004 N.ar    1  LIG1       -0.3573
      6 H           0.0449   -2.1082   -0.0005 H       1  LIG1        0.1655
      7 H           2.2319   -0.8429   -0.0013 H       1  LIG1        0.0820
      8 C           1.8333    2.0743   -0.0006 C.1     1  LIG1       -0.0669
      9 C           2.5796    3.0146   -0.0007 C.1     1  LIG1       -0.1138
     10 H           3.2377    3.8529   -0.0009 H       1  LIG1        0.1232
     11 N          -1.9216    3.1661    0.0012 N.1     1  LIG1       -0.1908
     12 C          -1.2813    2.2122    0.0008 C.1     1  LIG1        0.1026
     13 C          -2.3268   -0.8235    0.0007 C.ar    1  LIG1        0.0815
     14 C          -2.7138   -2.1532    0.0007 C.ar    1  LIG1        0.0694
     15 C          -4.1372   -2.1608    0.0013 C.ar    1  LIG1        0.0944
     16 C          -4.5696   -0.8451    0.0017 C.ar    1  LIG1        0.0834
     17 N          -3.4599   -0.0587    0.0013 N.ar    1  LIG1       -0.3498
     18 H          -3.4967    0.9603    0.0015 H       1  LIG1        0.1661
     19 C          -1.8768   -3.3132    0.0001 C.1     1  LIG1       -0.0662
     20 C          -1.1924   -4.3036   -0.0005 C.1     1  LIG1       -0.1138
     21 H          -0.6172   -5.2019   -0.0009 H       1  LIG1        0.1232
     22 N          -5.7313   -4.1859    0.0016 N.1     1  LIG1       -0.1908
     23 C          -4.9879   -3.3091    0.0014 C.1     1  LIG1        0.1026
     24 C          -5.9285   -0.3183    0.0023 C.ar    1  LIG1        0.0810
     25 C          -6.3760    0.9902    0.0027 C.ar    1  LIG1        0.0687
     26 C          -7.8027    0.9323    0.0033 C.ar    1  LIG1        0.0850
     27 C          -8.1628   -0.3961    0.0033 C.ar    1  LIG1        0.0209
     28 N          -7.0284   -1.1331    0.0027 N.ar    1  LIG1       -0.3573
     29 H          -6.9967   -2.1455    0.0026 H       1  LIG1        0.1655
     30 H          -9.1389   -0.8482    0.0037 H       1  LIG1        0.0820
     31 C          -5.5635    2.1654    0.0025 C.1     1  LIG1       -0.0662
     32 C          -4.8853    3.1592    0.0024 C.1     1  LIG1       -0.1138
     33 H          -4.2665    4.0292    0.0023 H       1  LIG1        0.1232
     34 N          -9.4097    2.9515    0.0043 N.1     1  LIG1       -0.1908
     35 C          -8.6955    2.0535    0.0039 C.1     1  LIG1        0.1019
@<TRIPOS>BOND
     1     7     1    1
     2    21    20    1
     3    10     9    1
     4     1     5   ar
     5     1     2   ar
     6     9     8    3
     7     8     2    1
     8     6     5    1
     9    20    19    3
    10     5     4   ar
    11     2     3   ar
    12    19    14    1
    13     4     3   ar
    14     4    13    1
    15     3    12    1
    16    14    13   ar
    17    14    15   ar
    18    13    17   ar
    19    12    11    3
    20    15    23    1
    21    15    16   ar
    22    17    18    1
    23    17    16   ar
    24    23    22    3
    25    16    24    1
    26    33    32    1
    27    24    28   ar
    28    24    25   ar
    29    32    31    3
    30    31    25    1
    31    29    28    1
    32    28    27   ar
    33    25    26   ar
    34    27    26   ar
    35    27    30    1
    36    26    35    1
    37    35    34    3
