@<TRIPOS>MOLECULE
mol_data/opt/m06hf/geoms/mol2/13ed13ed-13ed-13ed.out
 46 49 0 0 0
SMALL
GASTEIGER

@<TRIPOS>ATOM
      1 C           1.3158   -0.5028   -0.2956 C.ar    1  LIG1        0.0190
      2 C           0.9820    0.8179   -0.4901 C.ar    1  LIG1        0.0600
      3 C          -0.4415    0.8867   -0.3784 C.ar    1  LIG1        0.0937
      4 C          -0.9111   -0.3912   -0.1257 C.ar    1  LIG1        0.0829
      5 N           0.1721   -1.2080   -0.0808 N.ar    1  LIG1       -0.3573
      6 H           0.1089   -2.1998    0.1159 H       1  LIG1        0.1655
      7 H           2.2836   -0.9722   -0.2970 H       1  LIG1        0.0820
      8 C           1.8705    1.9101   -0.7444 C.1     1  LIG1       -0.0669
      9 C           2.6063    2.8345   -0.9568 C.1     1  LIG1       -0.1138
     10 H           3.2573    3.6569   -1.1458 H       1  LIG1        0.1232
     11 N          -2.0106    2.9240   -0.5265 N.1     1  LIG1       -0.1908
     12 C          -1.2745    2.0430   -0.4686 C.1     1  LIG1        0.1026
     13 C          -2.2655   -0.8841    0.0799 C.ar    1  LIG1        0.0815
     14 C          -2.6894   -2.1113    0.5577 C.ar    1  LIG1        0.0694
     15 C          -4.1159   -2.0770    0.5757 C.ar    1  LIG1        0.0944
     16 C          -4.5081   -0.8411    0.0960 C.ar    1  LIG1        0.0834
     17 N          -3.3756   -0.1392   -0.1934 N.ar    1  LIG1       -0.3498
     18 H          -3.3580    0.7830   -0.6142 H       1  LIG1        0.1661
     19 C          -1.8559   -3.1962    0.9750 C.1     1  LIG1       -0.0662
     20 C          -1.1564   -4.1111    1.3228 C.1     1  LIG1       -0.1138
     21 H          -0.5657   -4.9355    1.6526 H       1  LIG1        0.1232
     22 N          -5.5966   -3.9710    1.5078 N.1     1  LIG1       -0.1908
     23 C          -4.9562   -3.1198    1.0815 C.1     1  LIG1        0.1026
     24 C          -5.8414   -0.2814   -0.0955 C.ar    1  LIG1        0.0815
     25 C          -6.9946   -0.8841   -0.5632 C.ar    1  LIG1        0.0694
     26 C          -8.0040    0.1227   -0.5409 C.ar    1  LIG1        0.0944
     27 C          -7.4302    1.2965   -0.0794 C.ar    1  LIG1        0.0834
     28 N          -6.1275    1.0279    0.1820 N.ar    1  LIG1       -0.3498
     29 H          -5.4901    1.7166    0.5702 H       1  LIG1        0.1661
     30 C          -7.1475   -2.2262   -1.0256 C.1     1  LIG1       -0.0662
     31 C          -7.2886   -3.3517   -1.4179 C.1     1  LIG1       -0.1138
     32 H          -7.4100   -4.3576   -1.7481 H       1  LIG1        0.1232
     33 N         -10.4959   -0.0126   -1.1822 N.1     1  LIG1       -0.1908
     34 C          -9.3773   -0.0023   -0.9179 C.1     1  LIG1        0.1026
     35 C          -8.0095    2.6141    0.1376 C.ar    1  LIG1        0.0810
     36 C          -7.3764    3.8114    0.4190 C.ar    1  LIG1        0.0687
     37 C          -8.4057    4.7935    0.5442 C.ar    1  LIG1        0.0850
     38 C          -9.6093    4.1591    0.3310 C.ar    1  LIG1        0.0209
     39 N          -9.3539    2.8522    0.0894 N.ar    1  LIG1       -0.3573
     40 H         -10.0532    2.1492   -0.1187 H       1  LIG1        0.1655
     41 H         -10.6093    4.5562    0.3367 H       1  LIG1        0.0820
     42 C          -5.9630    4.0063    0.5151 C.1     1  LIG1       -0.0662
     43 C          -4.7686    4.1479    0.5660 C.1     1  LIG1       -0.1138
     44 H          -3.7073    4.2744    0.5559 H       1  LIG1        0.1232
     45 N          -8.0706    7.2977    1.0714 N.1     1  LIG1       -0.1908
     46 C          -8.2203    6.1847    0.8352 C.1     1  LIG1        0.1019
@<TRIPOS>BOND
     1    32    31    1
     2    31    30    3
     3    33    34    3
     4    10     9    1
     5    30    25    1
     6     9     8    3
     7    34    26    1
     8     8     2    1
     9    18    17    1
    10    25    26   ar
    11    25    24   ar
    12    26    27   ar
    13    11    12    3
    14     2     3   ar
    15     2     1   ar
    16    12     3    1
    17     3     4   ar
    18     7     1    1
    19     1     5   ar
    20    17    13   ar
    21    17    16   ar
    22     4     5   ar
    23     4    13    1
    24    40    39    1
    25    24    16    1
    26    24    28   ar
    27     5     6    1
    28    27    35    1
    29    27    28   ar
    30    13    14   ar
    31    39    35   ar
    32    39    38   ar
    33    16    15   ar
    34    35    36   ar
    35    28    29    1
    36    38    41    1
    37    38    37   ar
    38    36    42    1
    39    36    37   ar
    40    42    43    3
    41    37    46    1
    42    44    43    1
    43    14    15   ar
    44    14    19    1
    45    15    23    1
    46    46    45    3
    47    19    20    3
    48    23    22    3
    49    20    21    1
