@<TRIPOS>MOLECULE
mol_data/opt/m06hf/geoms/mol2/13ed13ed13ed-13ed-.out
 46 49 0 0 0
SMALL
GASTEIGER

@<TRIPOS>ATOM
      1 C           1.1096   -0.0032   -1.0952 C.ar    1  LIG1        0.0190
      2 C           0.8794    1.0569   -0.2489 C.ar    1  LIG1        0.0600
      3 C          -0.4795    0.9432    0.1869 C.ar    1  LIG1        0.0937
      4 C          -1.0172   -0.1767   -0.4122 C.ar    1  LIG1        0.0829
      5 N          -0.0355   -0.7347   -1.1795 N.ar    1  LIG1       -0.3573
      6 H          -0.1786   -1.5215   -1.7953 H       1  LIG1        0.1655
      7 H           2.0016   -0.2706   -1.6333 H       1  LIG1        0.0820
      8 C           1.8183    2.0667    0.1364 C.1     1  LIG1       -0.0669
      9 C           2.5993    2.9154    0.4696 C.1     1  LIG1       -0.1138
     10 H           3.2874    3.6707    0.7731 H       1  LIG1        0.1232
     11 N          -1.6883    2.4935    1.8590 N.1     1  LIG1       -0.1908
     12 C          -1.1536    1.8042    1.1133 C.1     1  LIG1        0.1026
     13 C          -2.3535   -0.7575   -0.3172 C.ar    1  LIG1        0.0815
     14 C          -3.5918   -0.1611   -0.4546 C.ar    1  LIG1        0.0694
     15 C          -4.5531   -1.2013   -0.2822 C.ar    1  LIG1        0.0944
     16 C          -3.8680   -2.3850   -0.0566 C.ar    1  LIG1        0.0834
     17 N          -2.5452   -2.0921   -0.0835 N.ar    1  LIG1       -0.3498
     18 H          -1.8224   -2.7655    0.1486 H       1  LIG1        0.1661
     19 C          -3.8514    1.2154   -0.7315 C.1     1  LIG1       -0.0662
     20 C          -4.0668    2.3746   -0.9547 C.1     1  LIG1       -0.1138
     21 H          -4.2536    3.4079   -1.1374 H       1  LIG1        0.1232
     22 N          -7.1290   -1.1636   -0.3155 N.1     1  LIG1       -0.1908
     23 C          -5.9801   -1.1119   -0.3135 C.1     1  LIG1        0.1026
     24 C          -4.3655   -3.7292    0.1918 C.ar    1  LIG1        0.0815
     25 C          -3.6836   -4.8748    0.5619 C.ar    1  LIG1        0.0694
     26 C          -4.6580   -5.9116    0.6887 C.ar    1  LIG1        0.0944
     27 C          -5.8891   -5.3625    0.3827 C.ar    1  LIG1        0.0834
     28 N          -5.6864   -4.0494    0.0869 N.ar    1  LIG1       -0.3498
     29 H          -6.4043   -3.4171   -0.2503 H       1  LIG1        0.1661
     30 C          -2.2771   -4.9840    0.7980 C.1     1  LIG1       -0.0662
     31 C          -1.0945   -5.0766    0.9996 C.1     1  LIG1       -0.1138
     32 H          -0.0548   -5.1995    1.2028 H       1  LIG1        0.1232
     33 N          -4.1451   -8.3127    1.4786 N.1     1  LIG1       -0.1908
     34 C          -4.3915   -7.2506    1.1206 C.1     1  LIG1        0.1026
     35 C          -7.2267   -5.9444    0.3520 C.ar    1  LIG1        0.0810
     36 C          -7.6653   -7.1487   -0.1585 C.ar    1  LIG1        0.0687
     37 C          -9.0813   -7.1776    0.0451 C.ar    1  LIG1        0.0850
     38 C          -9.4425   -6.0002    0.6583 C.ar    1  LIG1        0.0209
     39 N          -8.3172   -5.2661    0.8330 N.ar    1  LIG1       -0.3573
     40 H          -8.2752   -4.3776    1.3117 H       1  LIG1        0.1655
     41 H         -10.4106   -5.6550    0.9766 H       1  LIG1        0.0820
     42 C          -6.8654   -8.1465   -0.7948 C.1     1  LIG1       -0.0662
     43 C          -6.1899   -8.9860   -1.3234 C.1     1  LIG1       -0.1138
     44 H          -5.5864   -9.7395   -1.7744 H       1  LIG1        0.1232
     45 N         -10.6943   -9.0766   -0.6312 N.1     1  LIG1       -0.1908
     46 C          -9.9738   -8.2352   -0.3313 C.1     1  LIG1        0.1019
@<TRIPOS>BOND
     1     6     5    1
     2    44    43    1
     3     7     1    1
     4    43    42    3
     5     5     1   ar
     6     5     4   ar
     7    21    20    1
     8     1     2   ar
     9    20    19    3
    10    42    36    1
    11    19    14    1
    12    45    46    3
    13    14    13   ar
    14    14    15   ar
    15     4    13    1
    16     4     3   ar
    17    46    37    1
    18    13    17   ar
    19    22    23    3
    20    23    15    1
    21    15    16   ar
    22    29    28    1
    23     2     8    1
    24     2     3   ar
    25    36    37   ar
    26    36    35   ar
    27    17    16   ar
    28    17    18    1
    29    16    24    1
    30    37    38   ar
    31    28    24   ar
    32    28    27   ar
    33     8     9    3
    34     3    12    1
    35    24    25   ar
    36    35    27    1
    37    35    39   ar
    38    27    26   ar
    39     9    10    1
    40    25    26   ar
    41    25    30    1
    42    38    39   ar
    43    38    41    1
    44    26    34    1
    45    30    31    3
    46    39    40    1
    47    31    32    1
    48    12    11    3
    49    34    33    3
