@<TRIPOS>MOLECULE
mol_data/opt/m06hf/geoms/mol2/13ed13ed-4ed13ed.out
 48 51 0 0 0
SMALL
GASTEIGER

@<TRIPOS>ATOM
      1 C           1.3912   -0.4451   -0.2362 C.ar    1  LIG1        0.0190
      2 C           1.0648    0.8884   -0.3239 C.ar    1  LIG1        0.0600
      3 C          -0.3611    0.9559   -0.2402 C.ar    1  LIG1        0.0937
      4 C          -0.8397   -0.3364   -0.1044 C.ar    1  LIG1        0.0829
      5 N           0.2413   -1.1593   -0.1054 N.ar    1  LIG1       -0.3573
      6 H           0.1716   -2.1663   -0.0117 H       1  LIG1        0.1655
      7 H           2.3574   -0.9175   -0.2592 H       1  LIG1        0.0820
      8 C           1.9641    1.9918   -0.4692 C.1     1  LIG1       -0.0669
      9 C           2.7124    2.9229   -0.5908 C.1     1  LIG1       -0.1138
     10 H           3.3725    3.7525   -0.6995 H       1  LIG1        0.1232
     11 N          -1.8541    3.0559   -0.3111 N.1     1  LIG1       -0.1908
     12 C          -1.1682    2.1336   -0.2819 C.1     1  LIG1        0.1026
     13 C          -2.1962   -0.8534    0.0230 C.ar    1  LIG1        0.0815
     14 C          -2.6146   -2.1618    0.2036 C.ar    1  LIG1        0.0693
     15 C          -4.0357   -2.1269    0.2691 C.ar    1  LIG1        0.0930
     16 C          -4.4372   -0.8075    0.1240 C.ar    1  LIG1        0.0670
     17 N          -3.3056   -0.0657   -0.0204 N.ar    1  LIG1       -0.3509
     18 H          -3.3030    0.9471   -0.1134 H       1  LIG1        0.1660
     19 C          -1.7932   -3.3275    0.3133 C.1     1  LIG1       -0.0662
     20 C          -1.1128   -4.3159    0.4037 C.1     1  LIG1       -0.1138
     21 H          -0.5417   -5.2128    0.4889 H       1  LIG1        0.1232
     22 N          -5.5513   -4.1816    0.6429 N.1     1  LIG1       -0.1908
     23 C          -4.8763   -3.2664    0.4831 C.1     1  LIG1        0.1025
     24 C          -6.1233    1.0433    0.5321 C.ar    1  LIG1        0.0345
     25 C          -7.4410    1.5010    0.4979 C.ar    1  LIG1       -0.0353
     26 C          -5.8051   -0.2547    0.0887 C.ar    1  LIG1        0.0162
     27 C          -8.4790    0.7035    0.0173 C.ar    1  LIG1        0.0181
     28 H          -7.6541    2.4969    0.8594 H       1  LIG1        0.0637
     29 C          -6.8367   -1.0573   -0.3960 C.ar    1  LIG1       -0.0334
     30 C          -8.1467   -0.5886   -0.4267 C.ar    1  LIG1        0.0616
     31 H          -6.6317   -2.0536   -0.7636 H       1  LIG1        0.0637
     32 C          -5.1180    1.9426    1.0430 C.1     1  LIG1       -0.0690
     33 C          -4.3028    2.7257    1.4524 C.1     1  LIG1       -0.1139
     34 H          -3.5676    3.4217    1.7899 H       1  LIG1        0.1232
     35 N          -9.9909   -2.1851   -1.3171 N.1     1  LIG1       -0.1908
     36 C          -9.1646   -1.4812   -0.9430 C.1     1  LIG1        0.0998
     37 C          -9.8477    1.2490   -0.0069 C.ar    1  LIG1        0.0646
     38 C         -10.2596    2.5683   -0.1231 C.ar    1  LIG1        0.0673
     39 C         -11.6865    2.5585   -0.0724 C.ar    1  LIG1        0.0850
     40 C         -12.0878    1.2498    0.0697 C.ar    1  LIG1        0.0209
     41 N         -10.9767    0.4823    0.1078 N.ar    1  LIG1       -0.3585
     42 H         -10.9806   -0.5264    0.1775 H       1  LIG1        0.1654
     43 H         -13.0775    0.8335    0.1414 H       1  LIG1        0.0820
     44 C          -9.4489    3.7346   -0.2975 C.1     1  LIG1       -0.0662
     45 C          -8.7940    4.7313   -0.4454 C.1     1  LIG1       -0.1138
     46 H          -8.2212    5.6193   -0.5860 H       1  LIG1        0.1232
     47 N         -13.2412    4.6113   -0.2413 N.1     1  LIG1       -0.1908
     48 C         -12.5480    3.7001   -0.1658 C.1     1  LIG1        0.1019
@<TRIPOS>BOND
     1    35    36    3
     2    36    30    1
     3    31    29    1
     4    10     9    1
     5     9     8    3
     6    46    45    1
     7     8     2    1
     8    45    44    3
     9    30    29   ar
    10    30    27   ar
    11    29    26   ar
    12     2     3   ar
    13     2     1   ar
    14    11    12    3
    15    44    38    1
    16    12     3    1
    17     7     1    1
    18    47    48    3
    19     3     4   ar
    20     1     5   ar
    21    48    39    1
    22    38    39   ar
    23    38    37   ar
    24    18    17    1
    25     5     4   ar
    26     5     6    1
    27     4    13    1
    28    39    40   ar
    29    17    13   ar
    30    17    16   ar
    31    37    27    1
    32    37    41   ar
    33    27    25   ar
    34    13    14   ar
    35    40    41   ar
    36    40    43    1
    37    26    16    1
    38    26    24   ar
    39    41    42    1
    40    16    15   ar
    41    14    15   ar
    42    14    19    1
    43    15    23    1
    44    19    20    3
    45    20    21    1
    46    23    22    3
    47    25    24   ar
    48    25    28    1
    49    24    32    1
    50    32    33    3
    51    33    34    1
