@<TRIPOS>MOLECULE
mol_data/opt/m06hf/geoms/mol2/13ed6ll-6ed12fe-.out
 52 55 0 0 0
SMALL
GASTEIGER

@<TRIPOS>ATOM
      1 C           1.2878   -0.2352   -0.8960 C.ar    1  LIG1        0.0189
      2 C           1.0139    0.9878   -0.3264 C.ar    1  LIG1        0.0599
      3 C          -0.3696    0.9637    0.0279 C.ar    1  LIG1        0.0924
      4 C          -0.8852   -0.2728   -0.3426 C.ar    1  LIG1        0.0705
      5 N           0.1460   -0.9672   -0.8943 N.ar    1  LIG1       -0.3583
      6 H           0.0273   -1.9169   -1.2251 H       1  LIG1        0.1654
      7 H           2.2127   -0.6165   -1.2904 H       1  LIG1        0.0820
      8 C           1.9293    2.0692   -0.1226 C.1     1  LIG1       -0.0669
      9 C           2.6918    2.9808    0.0522 C.1     1  LIG1       -0.1138
     10 H           3.3628    3.7931    0.2112 H       1  LIG1        0.1232
     11 N          -1.6763    2.8730    1.1723 N.1     1  LIG1       -0.1908
     12 C          -1.0767    2.0331    0.6656 C.1     1  LIG1        0.1025
     13 C          -2.5558   -2.1705   -0.4917 C.ar    1  LIG1        0.2246
     14 C          -2.2449   -0.8228   -0.2200 C.ar    1  LIG1        0.0646
     15 C          -3.3052   -0.0150    0.1778 C.ar    1  LIG1       -0.0036
     16 C          -4.5862   -0.5447    0.3216 C.ar    1  LIG1        0.1469
     17 C          -4.7740   -1.9009    0.0378 C.ar    1  LIG1        0.1190
     18 N          -3.7624   -2.6662   -0.3702 N.ar    1  LIG1       -0.2086
     19 H          -3.1301    1.0298    0.3849 H       1  LIG1        0.0663
     20 O          -1.5641   -3.0003   -0.9025 O.3     1  LIG1       -0.4792
     21 C          -1.9293   -4.3697   -1.1137 C.3     1  LIG1        0.0804
     22 H          -1.0005   -4.8779   -1.3572 H       1  LIG1        0.0660
     23 H          -2.3799   -4.7745   -0.2093 H       1  LIG1        0.0660
     24 H          -2.6414   -4.4405   -1.9343 H       1  LIG1        0.0660
     25 O          -5.6547    0.1815    0.7226 O.3     1  LIG1       -0.4929
     26 C          -5.4175    1.5068    1.1869 C.3     1  LIG1        0.0789
     27 H          -6.3741    1.8600    1.5597 H       1  LIG1        0.0660
     28 H          -4.6770    1.5030    1.9896 H       1  LIG1        0.0660
     29 H          -5.0770    2.1465    0.3698 H       1  LIG1        0.0660
     30 C          -6.2507   -3.8196    0.7643 C.ar    1  LIG1        0.1233
     31 C          -6.1039   -2.5546    0.1639 C.ar    1  LIG1        0.0391
     32 C          -7.2550   -1.9421   -0.3167 C.ar    1  LIG1       -0.0302
     33 C          -8.4731   -2.6098   -0.2354 C.ar    1  LIG1        0.0815
     34 C          -8.5003   -3.9065    0.3045 C.ar    1  LIG1        0.1284
     35 N          -7.4100   -4.4716    0.8116 N.ar    1  LIG1       -0.2332
     36 H          -7.2105   -0.9450   -0.7318 H       1  LIG1        0.0638
     37 C          -5.1409   -4.4827    1.4229 C.1     1  LIG1       -0.0491
     38 C          -4.2684   -5.0445    2.0267 C.1     1  LIG1       -0.1124
     39 H          -3.5032   -5.5462    2.5733 H       1  LIG1        0.1232
     40 N         -10.6135   -1.3246   -0.9313 N.1     1  LIG1       -0.1908
     41 C          -9.6794   -1.9211   -0.6353 C.1     1  LIG1        0.1014
     42 C          -9.7319   -4.7001    0.3488 C.ar    1  LIG1        0.1966
     43 C         -10.7616   -4.8574   -0.5285 C.ar    1  LIG1        0.1799
     44 C         -11.6509   -5.8295    0.0556 C.ar    1  LIG1        0.1045
     45 C         -11.0678   -6.1858    1.2346 C.ar    1  LIG1        0.1117
     46 O          -9.9240   -5.5282    1.4114 O.2     1  LIG1       -0.4563
     47 H         -11.3677   -6.8727    2.0063 H       1  LIG1        0.1043
     48 O         -10.8918   -4.2766   -1.7322 O.3     1  LIG1       -0.5024
     49 H         -11.7791   -4.4358   -2.0783 H       1  LIG1        0.2923
     50 C         -12.8688   -6.2758   -0.5467 C.1     1  LIG1       -0.0628
     51 C         -13.8798   -6.6061   -1.1065 C.1     1  LIG1       -0.1137
     52 H         -14.7804   -6.9088   -1.5895 H       1  LIG1        0.1232
@<TRIPOS>BOND
     1    49    48    1
     2    24    21    1
     3    48    43    1
     4    52    51    1
     5    22    21    1
     6     7     1    1
     7     6     5    1
     8    21    20    1
     9    21    23    1
    10    51    50    3
    11    40    41    3
    12    20    13    1
    13     1     5   ar
    14     1     2   ar
    15     5     4   ar
    16    36    32    1
    17    41    33    1
    18    50    44    1
    19    43    44   ar
    20    43    42   ar
    21    13    18   ar
    22    13    14   ar
    23    18    17   ar
    24     4    14    1
    25     4     3   ar
    26     2     8    1
    27     2     3   ar
    28    32    33   ar
    29    32    31   ar
    30    33    34   ar
    31    14    15   ar
    32     8     9    3
    33     3    12    1
    34    17    31    1
    35    17    16   ar
    36     9    10    1
    37    44    45   ar
    38    31    30   ar
    39    15    16   ar
    40    15    19    1
    41    34    42    1
    42    34    35   ar
    43    16    25    1
    44    42    46   ar
    45    29    26    1
    46    12    11    3
    47    25    26    1
    48    30    35   ar
    49    30    37    1
    50    26    27    1
    51    26    28    1
    52    45    46   ar
    53    45    47    1
    54    37    38    3
    55    38    39    1
