@<TRIPOS>MOLECULE
mol_data/opt/m06hf/geoms/mol2/13ed13ed13ed-13ed.out
 46 49 0 0 0
SMALL
GASTEIGER

@<TRIPOS>ATOM
      1 C           1.1645   -0.0610   -0.8420 C.ar    1  LIG1        0.0190
      2 C           0.9385    0.9910    0.0143 C.ar    1  LIG1        0.0600
      3 C          -0.4425    0.9245    0.3877 C.ar    1  LIG1        0.0937
      4 C          -0.9973   -0.1596   -0.2590 C.ar    1  LIG1        0.0829
      5 N          -0.0041   -0.7433   -0.9930 N.ar    1  LIG1       -0.3573
      6 H          -0.1524   -1.5071   -1.6359 H       1  LIG1        0.1655
      7 H           2.0684   -0.3544   -1.3462 H       1  LIG1        0.0820
      8 C           1.8951    1.9575    0.4609 C.1     1  LIG1       -0.0669
      9 C           2.6858    2.7749    0.8454 C.1     1  LIG1       -0.1138
     10 H           3.3794    3.5053    1.1930 H       1  LIG1        0.1232
     11 N          -1.6420    2.4960    2.0453 N.1     1  LIG1       -0.1908
     12 C          -1.1151    1.7957    1.3048 C.1     1  LIG1        0.1026
     13 C          -2.3566   -0.6910   -0.2429 C.ar    1  LIG1        0.0815
     14 C          -3.5695   -0.0459   -0.3798 C.ar    1  LIG1        0.0694
     15 C          -4.5696   -1.0637   -0.3256 C.ar    1  LIG1        0.0944
     16 C          -3.9337   -2.2841   -0.1630 C.ar    1  LIG1        0.0834
     17 N          -2.6005   -2.0292   -0.1170 N.ar    1  LIG1       -0.3498
     18 H          -1.9020   -2.7377    0.0795 H       1  LIG1        0.1661
     19 C          -3.7823    1.3529   -0.5687 C.1     1  LIG1       -0.0662
     20 C          -3.9626    2.5298   -0.7182 C.1     1  LIG1       -0.1138
     21 H          -4.1207    3.5774   -0.8343 H       1  LIG1        0.1232
     22 N          -7.1121   -0.6997   -0.5358 N.1     1  LIG1       -0.1908
     23 C          -5.9784   -0.8567   -0.4419 C.1     1  LIG1        0.1026
     24 C          -4.4399   -3.6459   -0.0492 C.ar    1  LIG1        0.0815
     25 C          -3.7112   -4.8200    0.0443 C.ar    1  LIG1        0.0694
     26 C          -4.6595   -5.8778    0.1333 C.ar    1  LIG1        0.0944
     27 C          -5.9260   -5.3173    0.0935 C.ar    1  LIG1        0.0834
     28 N          -5.7664   -3.9717   -0.0179 N.ar    1  LIG1       -0.3498
     29 H          -6.5485   -3.3192   -0.0700 H       1  LIG1        0.1661
     30 C          -2.2893   -4.9709    0.0593 C.1     1  LIG1       -0.0662
     31 C          -1.0950   -5.1175    0.0827 C.1     1  LIG1       -0.1138
     32 H          -0.0422   -5.2861    0.1140 H       1  LIG1        0.1232
     33 N          -4.2234   -8.4110    0.3178 N.1     1  LIG1       -0.1908
     34 C          -4.3777   -7.2745    0.2389 C.1     1  LIG1        0.1026
     35 C          -7.2281   -5.9676    0.1578 C.ar    1  LIG1        0.0810
     36 C          -8.4964   -5.4167    0.1377 C.ar    1  LIG1        0.0687
     37 C          -9.4141   -6.5057    0.2377 C.ar    1  LIG1        0.0850
     38 C          -8.6739   -7.6641    0.3147 C.ar    1  LIG1        0.0209
     39 N          -7.3657   -7.3254    0.2656 N.ar    1  LIG1       -0.3573
     40 H          -6.5957   -7.9823    0.3061 H       1  LIG1        0.1655
     41 H          -8.9994   -8.6859    0.4006 H       1  LIG1        0.0820
     42 C          -8.8166   -4.0285    0.0383 C.1     1  LIG1       -0.0662
     43 C          -9.0918   -2.8606   -0.0460 C.1     1  LIG1       -0.1138
     44 H          -9.3195   -1.8213   -0.1312 H       1  LIG1        0.1232
     45 N         -11.9887   -6.3411    0.2841 N.1     1  LIG1       -0.1908
     46 C         -10.8438   -6.4120    0.2616 C.1     1  LIG1        0.1019
@<TRIPOS>BOND
     1     6     5    1
     2     7     1    1
     3     5     1   ar
     4     5     4   ar
     5     1     2   ar
     6    21    20    1
     7    20    19    3
     8    19    14    1
     9    22    23    3
    10    23    15    1
    11    14    15   ar
    12    14    13   ar
    13    15    16   ar
    14     4    13    1
    15     4     3   ar
    16    13    17   ar
    17    16    17   ar
    18    16    24    1
    19    44    43    1
    20    17    18    1
    21    29    28    1
    22    24    28   ar
    23    24    25   ar
    24    43    42    3
    25    28    27   ar
    26     2     3   ar
    27     2     8    1
    28    42    36    1
    29    25    30    1
    30    25    26   ar
    31    30    31    3
    32    31    32    1
    33    27    26   ar
    34    27    35    1
    35    26    34    1
    36    36    35   ar
    37    36    37   ar
    38    35    39   ar
    39    37    46    1
    40    37    38   ar
    41    34    33    3
    42    46    45    3
    43    39    40    1
    44    39    38   ar
    45    38    41    1
    46     3    12    1
    47     8     9    3
    48     9    10    1
    49    12    11    3
