@<TRIPOS>MOLECULE
mol_data/opt/m06hf/geoms/mol2/13ed13ed-13ed13ed-.out
 46 49 0 0 0
SMALL
GASTEIGER

@<TRIPOS>ATOM
      1 C           1.3259   -0.3146   -0.0208 C.ar    1  LIG1        0.0190
      2 C           0.9722    1.0006   -0.2154 C.ar    1  LIG1        0.0600
      3 C          -0.4575    1.0325   -0.2210 C.ar    1  LIG1        0.0937
      4 C          -0.9123   -0.2611   -0.0283 C.ar    1  LIG1        0.0829
      5 N           0.1888   -1.0505    0.0889 N.ar    1  LIG1       -0.3573
      6 H           0.1392   -2.0517    0.2348 H       1  LIG1        0.1655
      7 H           2.3031   -0.7593    0.0452 H       1  LIG1        0.0820
      8 C           1.8489    2.1187   -0.3814 C.1     1  LIG1       -0.0669
      9 C           2.5769    3.0628   -0.5220 C.1     1  LIG1       -0.1138
     10 H           3.2196    3.9033   -0.6487 H       1  LIG1        0.1232
     11 N          -1.9415    3.1170   -0.5356 N.1     1  LIG1       -0.1908
     12 C          -1.2727    2.1925   -0.3978 C.1     1  LIG1        0.1026
     13 C          -2.2570   -0.8185    0.0566 C.ar    1  LIG1        0.0815
     14 C          -2.6326   -2.1466    0.1659 C.ar    1  LIG1        0.0694
     15 C          -4.0557   -2.1628    0.2221 C.ar    1  LIG1        0.0944
     16 C          -4.4985   -0.8534    0.1435 C.ar    1  LIG1        0.0834
     17 N          -3.3940   -0.0638    0.0434 N.ar    1  LIG1       -0.3498
     18 H          -3.4317    0.9525   -0.0190 H       1  LIG1        0.1661
     19 C          -1.7819   -3.2946    0.2219 C.1     1  LIG1       -0.0662
     20 C          -1.0801   -4.2708    0.2738 C.1     1  LIG1       -0.1138
     21 H          -0.4850   -5.1547    0.3187 H       1  LIG1        0.1232
     22 N          -5.5029   -4.2827    0.4537 N.1     1  LIG1       -0.1908
     23 C          -4.8618   -3.3348    0.3522 C.1     1  LIG1        0.1026
     24 C          -5.8500   -0.3097    0.1651 C.ar    1  LIG1        0.0815
     25 C          -6.2488    1.0084    0.2983 C.ar    1  LIG1        0.0694
     26 C          -7.6708    1.0043    0.2611 C.ar    1  LIG1        0.0944
     27 C          -8.0890   -0.3087    0.1069 C.ar    1  LIG1        0.0834
     28 N          -6.9751   -1.0816    0.0533 N.ar    1  LIG1       -0.3498
     29 H          -7.0069   -2.0934   -0.0605 H       1  LIG1        0.1661
     30 C          -5.4086    2.1546    0.4353 C.1     1  LIG1       -0.0662
     31 C          -4.7086    3.1273    0.5377 C.1     1  LIG1       -0.1138
     32 H          -4.0728    3.9823    0.5987 H       1  LIG1        0.1232
     33 N          -9.3057    2.9879    0.4426 N.1     1  LIG1       -0.1908
     34 C          -8.5402    2.1340    0.3626 C.1     1  LIG1        0.1026
     35 C          -9.4386   -0.8470   -0.0010 C.ar    1  LIG1        0.0810
     36 C          -9.8597   -2.1451   -0.2264 C.ar    1  LIG1        0.0687
     37 C         -11.2874   -2.1116   -0.2467 C.ar    1  LIG1        0.0850
     38 C         -11.6728   -0.8068   -0.0357 C.ar    1  LIG1        0.0209
     39 N         -10.5533   -0.0617    0.1097 N.ar    1  LIG1       -0.3573
     40 H         -10.5390    0.9374    0.2755 H       1  LIG1        0.1655
     41 H         -12.6582   -0.3779    0.0183 H       1  LIG1        0.0820
     42 C          -9.0228   -3.2906   -0.3973 C.1     1  LIG1       -0.0662
     43 C          -8.3214   -4.2588   -0.5331 C.1     1  LIG1       -0.1138
     44 H          -7.6902   -5.1143   -0.6249 H       1  LIG1        0.1232
     45 N         -12.8565   -4.1268   -0.6131 N.1     1  LIG1       -0.1908
     46 C         -12.1585   -3.2311   -0.4498 C.1     1  LIG1        0.1019
@<TRIPOS>BOND
     1    10     9    1
     2    44    43    1
     3    45    46    3
     4    11    12    3
     5    43    42    3
     6     9     8    3
     7    46    37    1
     8    12     3    1
     9    42    36    1
    10     8     2    1
    11    37    36   ar
    12    37    38   ar
    13    36    35   ar
    14     3     2   ar
    15     3     4   ar
    16     2     1   ar
    17    29    28    1
    18    38    41    1
    19    38    39   ar
    20     4    13    1
    21     4     5   ar
    22     1     7    1
    23     1     5   ar
    24    18    17    1
    25    35    27    1
    26    35    39   ar
    27    17    13   ar
    28    17    16   ar
    29    28    27   ar
    30    28    24   ar
    31    13    14   ar
    32     5     6    1
    33    27    26   ar
    34    39    40    1
    35    16    24    1
    36    16    15   ar
    37    24    25   ar
    38    14    19    1
    39    14    15   ar
    40    19    20    3
    41    15    23    1
    42    26    25   ar
    43    26    34    1
    44    20    21    1
    45    25    30    1
    46    23    22    3
    47    34    33    3
    48    30    31    3
    49    31    32    1
