@<TRIPOS>MOLECULE
mol_data/opt/m06hf/geoms/mol2/13ed13ed-.out
 24 25 0 0 0
SMALL
GASTEIGER

@<TRIPOS>ATOM
      1 C           1.1873   -0.3116   -0.0003 C.ar    1  LIG1        0.0190
      2 C           0.8165    1.0135   -0.0001 C.ar    1  LIG1        0.0600
      3 C          -0.6128    1.0263    0.0003 C.ar    1  LIG1        0.0937
      4 C          -1.0490   -0.2877    0.0003 C.ar    1  LIG1        0.0829
      5 N           0.0592   -1.0725   -0.0001 N.ar    1  LIG1       -0.3573
      6 H           0.0182   -2.0851   -0.0002 H       1  LIG1        0.1655
      7 H           2.1704   -0.7471   -0.0006 H       1  LIG1        0.0820
      8 C           1.6795    2.1547   -0.0002 C.1     1  LIG1       -0.0669
      9 C           2.3928    3.1204   -0.0003 C.1     1  LIG1       -0.1138
     10 H           3.0200    3.9819   -0.0005 H       1  LIG1        0.1232
     11 N          -2.2565    3.0111    0.0009 N.1     1  LIG1       -0.1908
     12 C          -1.4826    2.1608    0.0006 C.1     1  LIG1        0.1026
     13 C          -2.3966   -0.8429    0.0006 C.ar    1  LIG1        0.0810
     14 C          -2.8076   -2.1644    0.0006 C.ar    1  LIG1        0.0687
     15 C          -4.2368   -2.1463    0.0010 C.ar    1  LIG1        0.0850
     16 C          -4.6322   -0.8285    0.0012 C.ar    1  LIG1        0.0209
     17 N          -3.5160   -0.0613    0.0010 N.ar    1  LIG1       -0.3573
     18 H          -3.5047    0.9525    0.0011 H       1  LIG1        0.1655
     19 H          -5.6205   -0.4041    0.0015 H       1  LIG1        0.0820
     20 C          -1.9672   -3.3217    0.0002 C.1     1  LIG1       -0.0662
     21 C          -1.2633   -4.2978   -0.0001 C.1     1  LIG1       -0.1138
     22 H          -0.6738   -5.1865   -0.0003 H       1  LIG1        0.1232
     23 N          -5.7872   -4.2087    0.0012 N.1     1  LIG1       -0.1908
     24 C          -5.0985   -3.2911    0.0011 C.1     1  LIG1        0.1019
@<TRIPOS>BOND
     1     7     1    1
     2    10     9    1
     3     9     8    3
     4     1     2   ar
     5     1     5   ar
     6    22    21    1
     7     8     2    1
     8     6     5    1
     9     2     3   ar
    10     5     4   ar
    11    21    20    3
    12    20    14    1
    13     4     3   ar
    14     4    13    1
    15     3    12    1
    16    14    13   ar
    17    14    15   ar
    18    13    17   ar
    19    12    11    3
    20    17    18    1
    21    17    16   ar
    22    15    24    1
    23    15    16   ar
    24    24    23    3
    25    16    19    1
