@<TRIPOS>MOLECULE
mol_data/opt/m06hf/geoms/mol2/13ed13ed13ed13ed-.out
 46 49 0 0 0
SMALL
GASTEIGER

@<TRIPOS>ATOM
      1 C           0.3849    0.6336   -2.1055 C.ar    1  LIG1        0.0190
      2 C           0.6955    1.1252   -0.8583 C.ar    1  LIG1        0.0600
      3 C          -0.3567    0.7063    0.0167 C.ar    1  LIG1        0.0937
      4 C          -1.2593   -0.0189   -0.7311 C.ar    1  LIG1        0.0829
      5 N          -0.7869   -0.0526   -2.0115 N.ar    1  LIG1       -0.3573
      6 H          -1.2933   -0.4460   -2.7908 H       1  LIG1        0.1655
      7 H           0.9167    0.7350   -3.0348 H       1  LIG1        0.0820
      8 C           1.8486    1.8933   -0.4993 C.1     1  LIG1       -0.0669
      9 C           2.8124    2.5352   -0.1828 C.1     1  LIG1       -0.1138
     10 H           3.6645    3.1058    0.1069 H       1  LIG1        0.1232
     11 N          -0.5254    1.1524    2.5525 N.1     1  LIG1       -0.1908
     12 C          -0.4537    0.9569    1.4243 C.1     1  LIG1        0.1026
     13 C          -2.5044   -0.6741   -0.3314 C.ar    1  LIG1        0.0815
     14 C          -3.6250   -0.1477    0.2785 C.ar    1  LIG1        0.0694
     15 C          -4.5485   -1.2270    0.4351 C.ar    1  LIG1        0.0944
     16 C          -3.9600   -2.3634   -0.0838 C.ar    1  LIG1        0.0834
     17 N          -2.7273   -2.0070   -0.5413 N.ar    1  LIG1       -0.3498
     18 H          -2.0674   -2.6398   -0.9704 H       1  LIG1        0.1661
     19 C          -3.8084    1.2119    0.6796 C.1     1  LIG1       -0.0662
     20 C          -3.9577    2.3504    1.0289 C.1     1  LIG1       -0.1138
     21 H          -4.0869    3.3575    1.3531 H       1  LIG1        0.1232
     22 N          -6.8734   -1.0919    1.5466 N.1     1  LIG1       -0.1908
     23 C          -5.8403   -1.1559    1.0515 C.1     1  LIG1        0.1026
     24 C          -4.4376   -3.7409   -0.1615 C.ar    1  LIG1        0.0815
     25 C          -5.6406   -4.2453   -0.6137 C.ar    1  LIG1        0.0694
     26 C          -5.5426   -5.6644   -0.4987 C.ar    1  LIG1        0.0944
     27 C          -4.2905   -5.9680    0.0123 C.ar    1  LIG1        0.0834
     28 N          -3.6440   -4.7926    0.2059 N.ar    1  LIG1       -0.3498
     29 H          -2.7372   -4.7255    0.6565 H       1  LIG1        0.1661
     30 C          -6.7438   -3.4914   -1.1188 C.1     1  LIG1       -0.0662
     31 C          -7.6690   -2.8479   -1.5319 C.1     1  LIG1       -0.1138
     32 H          -8.4948   -2.2702   -1.8792 H       1  LIG1        0.1232
     33 N          -7.2395   -7.5076   -1.1001 N.1     1  LIG1       -0.1908
     34 C          -6.5216   -6.6460   -0.8478 C.1     1  LIG1        0.1026
     35 C          -3.6703   -7.2476    0.3247 C.ar    1  LIG1        0.0810
     36 C          -2.4097   -7.5091    0.8333 C.ar    1  LIG1        0.0687
     37 C          -2.3017   -8.9292    0.9399 C.ar    1  LIG1        0.0850
     38 C          -3.4893   -9.4671    0.4983 C.ar    1  LIG1        0.0209
     39 N          -4.2979   -8.4446    0.1331 N.ar    1  LIG1       -0.3573
     40 H          -5.2390   -8.5457   -0.2296 H       1  LIG1        0.1655
     41 H          -3.7959  -10.4958    0.4237 H       1  LIG1        0.0820
     42 C          -1.4167   -6.5434    1.1920 C.1     1  LIG1       -0.0662
     43 C          -0.5854   -5.7303    1.5031 C.1     1  LIG1       -0.1138
     44 H           0.1701   -5.0394    1.8038 H       1  LIG1        0.1232
     45 N          -0.2466  -10.2319    1.8006 N.1     1  LIG1       -0.1908
     46 C          -1.1628   -9.6562    1.4185 C.1     1  LIG1        0.1019
@<TRIPOS>BOND
     1     7     1    1
     2     6     5    1
     3     1     5   ar
     4     1     2   ar
     5     5     4   ar
     6    32    31    1
     7    31    30    3
     8    30    25    1
     9    33    34    3
    10    18    17    1
    11     2     8    1
    12     2     3   ar
    13    34    26    1
    14     4    13    1
    15     4     3   ar
    16    25    26   ar
    17    25    24   ar
    18    17    13   ar
    19    17    16   ar
    20     8     9    3
    21    26    27   ar
    22    13    14   ar
    23    40    39    1
    24     9    10    1
    25    24    16    1
    26    24    28   ar
    27    16    15   ar
    28    27    28   ar
    29    27    35    1
    30     3    12    1
    31    39    35   ar
    32    39    38   ar
    33    28    29    1
    34    14    15   ar
    35    14    19    1
    36    35    36   ar
    37    41    38    1
    38    15    23    1
    39    38    37   ar
    40    19    20    3
    41    36    37   ar
    42    36    42    1
    43    37    46    1
    44    20    21    1
    45    23    22    3
    46    42    43    3
    47    46    45    3
    48    12    11    3
    49    43    44    1
