@<TRIPOS>MOLECULE
mol_data/opt/m06hf/geoms/mol2/13ed12fd4ll4fi-.out
 55 58 0 0 0
SMALL
GASTEIGER

@<TRIPOS>ATOM
      1 C           1.2133    0.2069   -0.4348 C.ar    1  LIG1        0.0177
      2 C           0.8369    1.2733    0.3553 C.ar    1  LIG1        0.0426
      3 C          -0.5626    1.1390    0.6090 C.ar    1  LIG1       -0.0194
      4 C          -0.9831    0.0017   -0.0346 C.ar    1  LIG1        0.0678
      5 N           0.1095   -0.5516   -0.6592 N.ar    1  LIG1       -0.3583
      6 H           0.0580   -1.3449   -1.2784 H       1  LIG1        0.1654
      7 H           2.1773   -0.0457   -0.8394 H       1  LIG1        0.0819
      8 C           1.7089    2.3060    0.8355 C.1     1  LIG1       -0.0682
      9 C           2.4337    3.1738    1.2432 C.1     1  LIG1       -0.1139
     10 H           3.0749    3.9428    1.6053 H       1  LIG1        0.1232
     11 H          -1.1703    1.7960    1.2061 H       1  LIG1        0.0651
     12 C          -2.2970   -0.6294   -0.1336 C.ar    1  LIG1        0.1074
     13 C          -3.5395   -0.0867   -0.3622 C.ar    1  LIG1        0.1678
     14 C          -4.4920   -1.1482   -0.3913 C.ar    1  LIG1        0.0932
     15 C          -3.7955   -2.3175   -0.1759 C.ar    1  LIG1        0.0717
     16 N          -2.4578   -1.9900   -0.0560 N.ar    1  LIG1       -0.3486
     17 H          -1.7854   -2.5947    0.3908 H       1  LIG1        0.1661
     18 O          -3.8440    1.2231   -0.5858 O.3     1  LIG1       -0.4911
     19 C          -4.4695    1.8415    0.5401 C.3     1  LIG1        0.0790
     20 H          -4.7002    2.8614    0.2413 H       1  LIG1        0.0660
     21 H          -5.3833    1.3055    0.8058 H       1  LIG1        0.0660
     22 H          -3.7870    1.8426    1.3920 H       1  LIG1        0.0660
     23 N          -5.8627   -0.9566   -0.6292 N.pl3   1  LIG1       -0.3535
     24 H          -6.0073   -0.1350   -1.2080 H       1  LIG1        0.1425
     25 H          -6.2994   -1.7664   -1.0575 H       1  LIG1        0.1425
     26 C          -5.5560   -3.9619    0.4023 C.ar    1  LIG1       -0.0518
     27 C          -6.0241   -5.2713    0.4342 C.ar    1  LIG1       -0.0499
     28 C          -4.2850   -3.6984   -0.1097 C.ar    1  LIG1        0.0037
     29 C          -5.2447   -6.3344   -0.0132 C.ar    1  LIG1        0.0252
     30 H          -7.0106   -5.4774    0.8306 H       1  LIG1        0.0625
     31 C          -3.4854   -4.7562   -0.5648 C.ar    1  LIG1       -0.0102
     32 C          -3.9546   -6.0650   -0.5067 C.ar    1  LIG1        0.1284
     33 H          -2.5209   -4.5340   -0.9999 H       1  LIG1        0.0661
     34 H          -6.1576   -3.1510    0.7921 H       1  LIG1        0.0624
     35 O          -3.2344   -7.1327   -0.9317 O.3     1  LIG1       -0.4945
     36 C          -1.9721   -6.9010   -1.5261 C.3     1  LIG1        0.0788
     37 H          -1.5948   -7.8802   -1.8067 H       1  LIG1        0.0660
     38 H          -2.0739   -6.2738   -2.4147 H       1  LIG1        0.0660
     39 H          -1.2881   -6.4324   -0.8136 H       1  LIG1        0.0660
     40 C          -7.0304   -8.0395   -0.5329 C.ar    1  LIG1        0.0598
     41 C          -7.5352   -9.3351   -0.4638 C.ar    1  LIG1       -0.0403
     42 C          -5.7741   -7.7282    0.0222 C.ar    1  LIG1        0.0064
     43 C          -6.8097  -10.3483    0.1513 C.ar    1  LIG1       -0.0187
     44 H          -8.5006   -9.5488   -0.9018 H       1  LIG1        0.0632
     45 C          -5.0528   -8.7462    0.6278 C.ar    1  LIG1       -0.0109
     46 C          -5.5599  -10.0474    0.6971 C.ar    1  LIG1        0.1207
     47 H          -4.0804   -8.5505    1.0572 H       1  LIG1        0.0660
     48 H          -7.2194  -11.3468    0.1935 H       1  LIG1        0.0654
     49 N          -8.4741   -6.2575   -1.7506 N.1     1  LIG1       -0.1909
     50 C          -7.8199   -7.0327   -1.2121 C.1     1  LIG1        0.0998
     51 O          -4.7710  -10.9515    1.3191 O.3     1  LIG1       -0.4951
     52 C          -5.2468  -12.2786    1.4497 C.3     1  LIG1        0.0788
     53 H          -4.4745  -12.8184    1.9896 H       1  LIG1        0.0660
     54 H          -6.1792  -12.2991    2.0191 H       1  LIG1        0.0660
     55 H          -5.3981  -12.7332    0.4678 H       1  LIG1        0.0660
@<TRIPOS>BOND
     1    38    36    1
     2    37    36    1
     3    49    50    3
     4    36    35    1
     5    36    39    1
     6     6     5    1
     7    50    40    1
     8    24    23    1
     9    25    23    1
    10    33    31    1
    11    35    32    1
    12    44    41    1
    13     7     1    1
    14     5     1   ar
    15     5     4   ar
    16    23    14    1
    17    18    13    1
    18    18    19    1
    19    31    32   ar
    20    31    28   ar
    21    40    41   ar
    22    40    42   ar
    23    32    29   ar
    24    41    43   ar
    25     1     2   ar
    26    14    13   ar
    27    14    15   ar
    28    13    12   ar
    29    15    28    1
    30    15    16   ar
    31    12    16   ar
    32    12     4    1
    33    28    26   ar
    34    16    17    1
    35     4     3   ar
    36    29    42    1
    37    29    27   ar
    38    42    45   ar
    39    43    48    1
    40    43    46   ar
    41    20    19    1
    42     2     3   ar
    43     2     8    1
    44    26    27   ar
    45    26    34    1
    46    27    30    1
    47    55    52    1
    48    19    21    1
    49    19    22    1
    50     3    11    1
    51    45    46   ar
    52    45    47    1
    53    46    51    1
    54     8     9    3
    55     9    10    1
    56    51    52    1
    57    52    53    1
    58    52    54    1
