@<TRIPOS>MOLECULE
mol_data/opt/m06hf/geoms/mol2/13ee13ee13ee13ee.out
 50 53 0 0 0
SMALL
GASTEIGER

@<TRIPOS>ATOM
      1 C           0.1761    0.3555   -2.5812 C.ar    1  LIG1        0.0189
      2 C           0.5625    0.9923   -1.4241 C.ar    1  LIG1        0.0580
      3 C          -0.4429    0.7184   -0.4376 C.ar    1  LIG1        0.0667
      4 C          -1.3967   -0.0715   -1.0451 C.ar    1  LIG1        0.0809
      5 N          -0.9988   -0.2842   -2.3381 N.ar    1  LIG1       -0.3574
      6 H          -1.5638   -0.7480   -3.0327 H       1  LIG1        0.1654
      7 H           0.6559    0.3269   -3.5434 H       1  LIG1        0.0820
      8 C           1.7514    1.7693   -1.2395 C.1     1  LIG1       -0.0669
      9 C           2.7491    2.4197   -1.0829 C.1     1  LIG1       -0.1138
     10 H           3.6313    2.9991   -0.9385 H       1  LIG1        0.1232
     11 C          -0.4517    1.1510    0.9254 C.1     1  LIG1       -0.0663
     12 C          -0.4607    1.5128    2.0704 C.1     1  LIG1       -0.1138
     13 H          -0.4776    1.8415    3.0832 H       1  LIG1        0.1232
     14 C          -2.6264   -0.6525   -0.5079 C.ar    1  LIG1        0.0814
     15 C          -3.7035   -0.0537    0.1162 C.ar    1  LIG1        0.0674
     16 C          -4.6402   -1.0917    0.4282 C.ar    1  LIG1        0.0674
     17 C          -4.0972   -2.2779   -0.0261 C.ar    1  LIG1        0.0814
     18 N          -2.8839   -1.9917   -0.5845 N.ar    1  LIG1       -0.3499
     19 H          -2.2655   -2.6714   -1.0011 H       1  LIG1        0.1661
     20 C          -3.8520    1.3442    0.3768 C.1     1  LIG1       -0.0662
     21 C          -3.9741    2.5194    0.5894 C.1     1  LIG1       -0.1138
     22 H          -4.0747    3.5622    0.7791 H       1  LIG1        0.1232
     23 C          -5.8944   -0.9427    1.0981 C.1     1  LIG1       -0.0662
     24 C          -6.9465   -0.8180    1.6628 C.1     1  LIG1       -0.1138
     25 H          -7.8839   -0.7106    2.1563 H       1  LIG1        0.1232
     26 C          -4.6146   -3.6437    0.0429 C.ar    1  LIG1        0.0814
     27 C          -5.8120   -4.1701   -0.4013 C.ar    1  LIG1        0.0674
     28 C          -5.7957   -5.5694   -0.0950 C.ar    1  LIG1        0.0674
     29 C          -4.5860   -5.8375    0.5158 C.ar    1  LIG1        0.0814
     30 N          -3.8903   -4.6644    0.5899 N.ar    1  LIG1       -0.3499
     31 H          -2.9725   -4.5672    0.9976 H       1  LIG1        0.1661
     32 C          -6.8566   -3.4476   -1.0577 C.1     1  LIG1       -0.0662
     33 C          -7.7327   -2.8413   -1.6111 C.1     1  LIG1       -0.1138
     34 H          -8.5105   -2.2984   -2.0947 H       1  LIG1        0.1232
     35 C          -6.8361   -6.5165   -0.3486 C.1     1  LIG1       -0.0662
     36 C          -7.7088   -7.3146   -0.5555 C.1     1  LIG1       -0.1138
     37 H          -8.4773   -8.0280   -0.7401 H       1  LIG1        0.1232
     38 C          -4.0451   -7.0898    1.0426 C.ar    1  LIG1        0.0809
     39 C          -3.8608   -8.3110    0.4284 C.ar    1  LIG1        0.0667
     40 C          -3.2795   -9.1864    1.4055 C.ar    1  LIG1        0.0580
     41 C          -3.1349   -8.4581    2.5641 C.ar    1  LIG1        0.0189
     42 N          -3.5930   -7.1993    2.3306 N.ar    1  LIG1       -0.3574
     43 H          -3.7015   -6.4803    3.0292 H       1  LIG1        0.1654
     44 H          -2.7470   -8.7585    3.5212 H       1  LIG1        0.0820
     45 C          -4.1680   -8.6238   -0.9328 C.1     1  LIG1       -0.0663
     46 C          -4.4263   -8.8841   -2.0763 C.1     1  LIG1       -0.1138
     47 H          -4.6669   -9.1145   -3.0878 H       1  LIG1        0.1232
     48 C          -2.9063  -10.5555    1.2116 C.1     1  LIG1       -0.0669
     49 C          -2.5921  -11.7033    1.0473 C.1     1  LIG1       -0.1138
     50 H          -2.3172  -12.7213    0.8964 H       1  LIG1        0.1232
@<TRIPOS>BOND
     1     7     1    1
     2    47    46    1
     3     6     5    1
     4     1     5   ar
     5     1     2   ar
     6     5     4   ar
     7    34    33    1
     8    46    45    3
     9    33    32    3
    10     2     8    1
    11     2     3   ar
    12     8     9    3
    13     9    10    1
    14    32    27    1
    15     4    14    1
    16     4     3   ar
    17    19    18    1
    18    45    39    1
    19    37    36    1
    20    18    14   ar
    21    18    17   ar
    22    36    35    3
    23    14    15   ar
    24     3    11    1
    25    27    28   ar
    26    27    26   ar
    27    35    28    1
    28    28    29   ar
    29    17    26    1
    30    17    16   ar
    31    26    30   ar
    32    15    20    1
    33    15    16   ar
    34    20    21    3
    35    16    23    1
    36    39    38   ar
    37    39    40   ar
    38    29    30   ar
    39    29    38    1
    40    21    22    1
    41    30    31    1
    42    50    49    1
    43    11    12    3
    44    38    42   ar
    45    49    48    3
    46    23    24    3
    47    48    40    1
    48    40    41   ar
    49    24    25    1
    50    12    13    1
    51    42    41   ar
    52    42    43    1
    53    41    44    1
