@<TRIPOS>MOLECULE
mol_data/opt/m06hf/geoms/mol2/13ee13ee13ee-13ee.out
 50 53 0 0 0
SMALL
GASTEIGER

@<TRIPOS>ATOM
      1 C           0.8637    0.1604   -1.6134 C.ar    1  LIG1        0.0189
      2 C           0.8347    1.0755   -0.5857 C.ar    1  LIG1        0.0580
      3 C          -0.4317    0.9282    0.0736 C.ar    1  LIG1        0.0667
      4 C          -1.1151   -0.0703   -0.5898 C.ar    1  LIG1        0.0809
      5 N          -0.3106   -0.5240   -1.6007 N.ar    1  LIG1       -0.3574
      6 H          -0.6002   -1.2016   -2.2890 H       1  LIG1        0.1654
      7 H           1.6331   -0.0346   -2.3394 H       1  LIG1        0.0820
      8 C           1.8811    1.9887   -0.2353 C.1     1  LIG1       -0.0669
      9 C           2.7601    2.7523    0.0603 C.1     1  LIG1       -0.1138
     10 H           3.5365    3.4302    0.3292 H       1  LIG1        0.1232
     11 C          -0.8893    1.6444    1.2233 C.1     1  LIG1       -0.0663
     12 C          -1.2695    2.2418    2.1930 C.1     1  LIG1       -0.1138
     13 H          -1.6109    2.7699    3.0524 H       1  LIG1        0.1232
     14 C          -2.4365   -0.6442   -0.3460 C.ar    1  LIG1        0.0814
     15 C          -3.6684   -0.0330   -0.2080 C.ar    1  LIG1        0.0674
     16 C          -4.6267   -1.0752    0.0011 C.ar    1  LIG1        0.0674
     17 C          -3.9362   -2.2761   -0.0309 C.ar    1  LIG1        0.0814
     18 N          -2.6231   -1.9927   -0.2422 N.ar    1  LIG1       -0.3499
     19 H          -1.8870   -2.6889   -0.2061 H       1  LIG1        0.1661
     20 C          -3.9374    1.3682   -0.2924 C.1     1  LIG1       -0.0662
     21 C          -4.1696    2.5437   -0.3703 C.1     1  LIG1       -0.1138
     22 H          -4.3695    3.5879   -0.4344 H       1  LIG1        0.1232
     23 C          -6.0300   -0.9288    0.2308 C.1     1  LIG1       -0.0662
     24 C          -7.2096   -0.8298    0.4477 C.1     1  LIG1       -0.1138
     25 H          -8.2481   -0.7369    0.6680 H       1  LIG1        0.1232
     26 C          -4.4131   -3.6400    0.1294 C.ar    1  LIG1        0.0814
     27 C          -3.7042   -4.8085    0.3622 C.ar    1  LIG1        0.0674
     28 C          -4.6618   -5.8656    0.4432 C.ar    1  LIG1        0.0674
     29 C          -5.9106   -5.2938    0.2507 C.ar    1  LIG1        0.0814
     30 N          -5.7327   -3.9593    0.0656 N.ar    1  LIG1       -0.3499
     31 H          -6.4840   -3.2920   -0.0987 H       1  LIG1        0.1661
     32 C          -2.2854   -4.9247    0.4979 C.1     1  LIG1       -0.0662
     33 C          -1.0898   -5.0145    0.6058 C.1     1  LIG1       -0.1138
     34 H          -0.0355   -5.1188    0.7236 H       1  LIG1        0.1232
     35 C          -4.3896   -7.2482    0.6857 C.1     1  LIG1       -0.0662
     36 C          -4.1672   -8.4116    0.9004 C.1     1  LIG1       -0.1138
     37 H          -3.9385   -9.4368    1.0804 H       1  LIG1        0.1232
     38 C          -7.2280   -5.9095    0.2299 C.ar    1  LIG1        0.0809
     39 C          -8.4427   -5.4105   -0.2088 C.ar    1  LIG1        0.0667
     40 C          -9.4175   -6.4388    0.0049 C.ar    1  LIG1        0.0580
     41 C          -8.7503   -7.5109    0.5551 C.ar    1  LIG1        0.0189
     42 N          -7.4406   -7.1761    0.6838 N.ar    1  LIG1       -0.3574
     43 H          -6.7007   -7.7653    1.0430 H       1  LIG1        0.1654
     44 H          -9.1277   -8.4716    0.8560 H       1  LIG1        0.0820
     45 C          -8.6520   -4.1259   -0.8000 C.1     1  LIG1       -0.0663
     46 C          -8.8003   -3.0476   -1.3138 C.1     1  LIG1       -0.1138
     47 H          -8.9332   -2.1047   -1.7923 H       1  LIG1        0.1232
     48 C         -10.8139   -6.3676   -0.3035 C.1     1  LIG1       -0.0669
     49 C         -11.9847   -6.3029   -0.5653 C.1     1  LIG1       -0.1138
     50 H         -13.0217   -6.2418   -0.8021 H       1  LIG1        0.1232
@<TRIPOS>BOND
     1     7     1    1
     2     6     5    1
     3    47    46    1
     4     1     5   ar
     5     1     2   ar
     6     5     4   ar
     7    46    45    3
     8    50    49    1
     9    45    39    1
    10     4    14    1
    11     4     3   ar
    12     2     8    1
    13     2     3   ar
    14    49    48    3
    15    22    21    1
    16    21    20    3
    17    14    18   ar
    18    14    15   ar
    19    48    40    1
    20    20    15    1
    21    18    19    1
    22    18    17   ar
    23     8     9    3
    24    39    40   ar
    25    39    38   ar
    26    15    16   ar
    27    31    30    1
    28    17    16   ar
    29    17    26    1
    30    16    23    1
    31    40    41   ar
    32     9    10    1
    33    30    26   ar
    34    30    29   ar
    35     3    11    1
    36    26    27   ar
    37    38    29    1
    38    38    42   ar
    39    23    24    3
    40    29    28   ar
    41    27    28   ar
    42    27    32    1
    43    28    35    1
    44    24    25    1
    45    32    33    3
    46    41    42   ar
    47    41    44    1
    48    33    34    1
    49    42    43    1
    50    35    36    3
    51    36    37    1
    52    11    12    3
    53    12    13    1
