@<TRIPOS>MOLECULE
mol_data/opt/m06hf/geoms/mol2/13ee13ee-.out
 26 27 0 0 0
SMALL
GASTEIGER

@<TRIPOS>ATOM
      1 C           1.1837   -0.3051   -0.0004 C.ar    1  LIG1        0.0189
      2 C           0.7989    1.0166   -0.0001 C.ar    1  LIG1        0.0580
      3 C          -0.6343    1.0295    0.0004 C.ar    1  LIG1        0.0667
      4 C          -1.0509   -0.2916    0.0004 C.ar    1  LIG1        0.0809
      5 N           0.0634   -1.0735   -0.0001 N.ar    1  LIG1       -0.3574
      6 H           0.0260   -2.0855   -0.0002 H       1  LIG1        0.1654
      7 H           2.1706   -0.7320   -0.0008 H       1  LIG1        0.0820
      8 C           1.6609    2.1591   -0.0003 C.1     1  LIG1       -0.0669
      9 C           2.3802    3.1212   -0.0005 C.1     1  LIG1       -0.1138
     10 H           3.0132    3.9778   -0.0011 H       1  LIG1        0.1232
     11 C          -1.4788    2.1838    0.0008 C.1     1  LIG1       -0.0663
     12 C          -2.1971    3.1503    0.0011 C.1     1  LIG1       -0.1138
     13 H          -2.8008    4.0286    0.0014 H       1  LIG1        0.1232
     14 C          -2.3910   -0.8607    0.0008 C.ar    1  LIG1        0.0809
     15 C          -2.8076   -2.1817    0.0009 C.ar    1  LIG1        0.0667
     16 C          -4.2408   -2.1688    0.0014 C.ar    1  LIG1        0.0580
     17 C          -4.6256   -0.8471    0.0017 C.ar    1  LIG1        0.0189
     18 N          -3.5052   -0.0788    0.0013 N.ar    1  LIG1       -0.3574
     19 H          -3.4679    0.9332    0.0014 H       1  LIG1        0.1654
     20 H          -5.6125   -0.4203    0.0021 H       1  LIG1        0.0820
     21 C          -1.9630   -3.3361    0.0004 C.1     1  LIG1       -0.0663
     22 C          -1.2448   -4.3025    0.0000 C.1     1  LIG1       -0.1138
     23 H          -0.6413   -5.1810   -0.0001 H       1  LIG1        0.1232
     24 C          -5.1028   -3.3114    0.0016 C.1     1  LIG1       -0.0669
     25 C          -5.8220   -4.2734    0.0017 C.1     1  LIG1       -0.1138
     26 H          -6.4551   -5.1301    0.0020 H       1  LIG1        0.1232
@<TRIPOS>BOND
     1    10     9    1
     2     7     1    1
     3     9     8    3
     4     1     2   ar
     5     1     5   ar
     6     8     2    1
     7     6     5    1
     8     2     3   ar
     9    23    22    1
    10     5     4   ar
    11    22    21    3
    12     3     4   ar
    13     3    11    1
    14     4    14    1
    15    21    15    1
    16    11    12    3
    17    14    15   ar
    18    14    18   ar
    19    15    16   ar
    20    12    13    1
    21    18    19    1
    22    18    17   ar
    23    16    24    1
    24    16    17   ar
    25    24    25    3
    26    17    20    1
    27    25    26    1
