@<TRIPOS>MOLECULE
mol_data/opt/m06hf/geoms/mol2/13ee4eh12de-12fh-.out
 54 57 0 0 0
SMALL
GASTEIGER

@<TRIPOS>ATOM
      1 C           1.1349    0.1452   -1.0298 C.ar    1  LIG1        0.0190
      2 C           0.8692    1.2267   -0.2224 C.ar    1  LIG1        0.0600
      3 C          -0.4864    1.0850    0.2191 C.ar    1  LIG1        0.0954
      4 C          -0.9865   -0.0701   -0.3481 C.ar    1  LIG1        0.1046
      5 N           0.0104   -0.6199   -1.0954 N.ar    1  LIG1       -0.3560
      6 H          -0.0974   -1.4710   -1.6264 H       1  LIG1        0.1655
      7 H           2.0392   -0.1182   -1.5486 H       1  LIG1        0.0820
      8 C           1.7757    2.2779    0.1266 C.1     1  LIG1       -0.0669
      9 C           2.5304    3.1624    0.4261 C.1     1  LIG1       -0.1138
     10 H           3.1940    3.9501    0.6978 H       1  LIG1        0.1232
     11 N          -1.7269    2.6150    1.8860 N.1     1  LIG1       -0.1908
     12 C          -1.1794    1.9400    1.1361 C.1     1  LIG1        0.1026
     13 C          -2.2957   -0.6861   -0.2504 C.ar    1  LIG1        0.1955
     14 C          -3.5491   -0.1812   -0.1335 C.ar    1  LIG1        0.1826
     15 C          -4.4377   -1.3161   -0.1003 C.ar    1  LIG1        0.1396
     16 C          -3.6511   -2.4350   -0.2129 C.ar    1  LIG1        0.1604
     17 O          -2.3673   -2.0492   -0.3097 O.2     1  LIG1       -0.4481
     18 O          -3.8838    1.1167   -0.1049 O.3     1  LIG1       -0.5023
     19 H          -4.7840    1.2356    0.2235 H       1  LIG1        0.2923
     20 N          -6.9411   -0.8605    0.2820 N.1     1  LIG1       -0.1906
     21 C          -5.8452   -1.1509    0.0954 C.1     1  LIG1        0.1067
     22 C          -5.1310   -4.4107   -0.5429 C.ar    1  LIG1        0.1316
     23 C          -5.3357   -5.7861   -0.4578 C.ar    1  LIG1       -0.0079
     24 C          -3.8918   -3.8811   -0.1802 C.ar    1  LIG1        0.0638
     25 C          -4.3258   -6.6410   -0.0261 C.ar    1  LIG1        0.0308
     26 H          -6.2922   -6.2145   -0.7201 H       1  LIG1        0.0661
     27 C          -2.8619   -4.7327    0.2342 C.ar    1  LIG1       -0.0051
     28 C          -3.0703   -6.1037    0.3140 C.ar    1  LIG1        0.1288
     29 H          -1.9164   -4.2919    0.5150 H       1  LIG1        0.0662
     30 O          -6.0626   -3.5335   -0.9784 O.3     1  LIG1       -0.4944
     31 C          -7.4182   -3.9504   -1.0358 C.3     1  LIG1        0.0788
     32 H          -7.9943   -3.0421   -1.1907 H       1  LIG1        0.0660
     33 H          -7.5689   -4.6416   -1.8677 H       1  LIG1        0.0660
     34 H          -7.7074   -4.4216   -0.0940 H       1  LIG1        0.0660
     35 O          -2.1159   -6.9786    0.7289 O.3     1  LIG1       -0.4945
     36 C          -0.8803   -6.4547    1.1745 C.3     1  LIG1        0.0788
     37 H          -0.2935   -7.3113    1.4940 H       1  LIG1        0.0660
     38 H          -0.3626   -5.9346    0.3639 H       1  LIG1        0.0660
     39 H          -1.0307   -5.7749    2.0171 H       1  LIG1        0.0660
     40 C          -5.7434   -8.5823    0.7012 C.ar    1  LIG1        0.1247
     41 C          -5.9838   -9.9518    0.7804 C.ar    1  LIG1       -0.0193
     42 C          -4.5883   -8.1069    0.0683 C.ar    1  LIG1        0.0274
     43 C          -5.0842  -10.8523    0.2243 C.ar    1  LIG1       -0.0554
     44 H          -6.8778  -10.3101    1.2788 H       1  LIG1        0.0654
     45 C          -3.7026   -9.0358   -0.4818 C.ar    1  LIG1       -0.0475
     46 C          -3.9312  -10.4083   -0.4216 C.ar    1  LIG1       -0.0496
     47 H          -2.8065   -8.6625   -0.9619 H       1  LIG1        0.0627
     48 H          -5.2850  -11.9146    0.2967 H       1  LIG1        0.0621
     49 O          -6.6159   -7.6758    1.2328 O.3     1  LIG1       -0.5062
     50 H          -7.2804   -8.1281    1.7627 H       1  LIG1        0.2922
     51 C          -2.9659  -11.3893   -1.0630 C.3     1  LIG1       -0.0397
     52 H          -1.9576  -10.9758   -1.0814 H       1  LIG1        0.0278
     53 H          -3.2681  -11.6054   -2.0896 H       1  LIG1        0.0278
     54 H          -2.9462  -12.3268   -0.5071 H       1  LIG1        0.0278
@<TRIPOS>BOND
     1    53    51    1
     2    33    31    1
     3     6     5    1
     4     7     1    1
     5    32    31    1
     6     5     1   ar
     7     5     4   ar
     8    52    51    1
     9    51    54    1
    10    51    46    1
    11    31    30    1
    12    31    34    1
    13     1     2   ar
    14    30    22    1
    15    47    45    1
    16    26    23    1
    17    22    23   ar
    18    22    24   ar
    19    45    46   ar
    20    45    42   ar
    21    23    25   ar
    22    46    43   ar
    23     4    13    1
    24     4     3   ar
    25    17    13   ar
    26    17    16   ar
    27    13    14   ar
    28     2     8    1
    29     2     3   ar
    30    16    24    1
    31    16    15   ar
    32    24    27   ar
    33    14    18    1
    34    14    15   ar
    35    18    19    1
    36    15    21    1
    37    25    42    1
    38    25    28   ar
    39    42    40   ar
    40    21    20    3
    41     8     9    3
    42     3    12    1
    43    43    48    1
    44    43    41   ar
    45    27    28   ar
    46    27    29    1
    47    28    35    1
    48    38    36    1
    49     9    10    1
    50    40    41   ar
    51    40    49    1
    52    35    36    1
    53    41    44    1
    54    12    11    3
    55    36    37    1
    56    36    39    1
    57    49    50    1
