@<TRIPOS>MOLECULE
mol_data/opt/m06hf/geoms/mol2/13ee13ee13ee.out
 38 40 0 0 0
SMALL
GASTEIGER

@<TRIPOS>ATOM
      1 C           0.6964    0.0513   -1.7181 C.ar    1  LIG1        0.0189
      2 C           0.7532    0.9711   -0.6957 C.ar    1  LIG1        0.0580
      3 C          -0.4770    0.8641    0.0345 C.ar    1  LIG1        0.0667
      4 C          -1.2259   -0.1171   -0.5814 C.ar    1  LIG1        0.0809
      5 N          -0.4944   -0.5989   -1.6336 N.ar    1  LIG1       -0.3574
      6 H          -0.8439   -1.2672   -2.3034 H       1  LIG1        0.1654
      7 H           1.4169   -0.1690   -2.4860 H       1  LIG1        0.0820
      8 C           1.8423    1.8567   -0.4126 C.1     1  LIG1       -0.0669
      9 C           2.7557    2.5986   -0.1729 C.1     1  LIG1       -0.1138
     10 H           3.5628    3.2579    0.0457 H       1  LIG1        0.1232
     11 C          -0.8557    1.6055    1.1975 C.1     1  LIG1       -0.0663
     12 C          -1.1758    2.2232    2.1759 C.1     1  LIG1       -0.1138
     13 H          -1.4641    2.7736    3.0406 H       1  LIG1        0.1232
     14 C          -2.5492   -0.6491   -0.2540 C.ar    1  LIG1        0.0814
     15 C          -3.7735   -0.0165   -0.1574 C.ar    1  LIG1        0.0674
     16 C          -4.7410   -1.0200    0.1714 C.ar    1  LIG1        0.0674
     17 C          -4.0661   -2.2222    0.2573 C.ar    1  LIG1        0.0814
     18 N          -2.7482   -1.9762   -0.0015 N.ar    1  LIG1       -0.3499
     19 H          -2.0224   -2.6774   -0.0056 H       1  LIG1        0.1661
     20 C          -4.0144    1.3780   -0.3624 C.1     1  LIG1       -0.0662
     21 C          -4.2102    2.5495   -0.5360 C.1     1  LIG1       -0.1138
     22 H          -4.3806    3.5896   -0.6874 H       1  LIG1        0.1232
     23 C          -6.1418   -0.8284    0.3857 C.1     1  LIG1       -0.0662
     24 C          -7.3183   -0.6742    0.5671 C.1     1  LIG1       -0.1138
     25 H          -8.3628   -0.5405    0.7253 H       1  LIG1        0.1232
     26 C          -4.5502   -3.5649    0.5800 C.ar    1  LIG1        0.0809
     27 C          -5.5087   -4.3437   -0.0347 C.ar    1  LIG1        0.0667
     28 C          -5.5689   -5.5810    0.6889 C.ar    1  LIG1        0.0580
     29 C          -4.6456   -5.4983    1.7064 C.ar    1  LIG1        0.0189
     30 N          -4.0373   -4.2852    1.6252 N.ar    1  LIG1       -0.3574
     31 H          -3.3776   -3.9167    2.2932 H       1  LIG1        0.1654
     32 H          -4.3962   -6.2150    2.4688 H       1  LIG1        0.0820
     33 C          -6.2695   -3.9842   -1.1912 C.1     1  LIG1       -0.0663
     34 C          -6.9036   -3.6802   -2.1642 C.1     1  LIG1       -0.1138
     35 H          -7.4686   -3.4061   -3.0241 H       1  LIG1        0.1232
     36 C          -6.4180   -6.6983    0.4045 C.1     1  LIG1       -0.0669
     37 C          -7.1294   -7.6354    0.1636 C.1     1  LIG1       -0.1138
     38 H          -7.7619   -8.4636   -0.0559 H       1  LIG1        0.1232
@<TRIPOS>BOND
     1    35    34    1
     2     7     1    1
     3     6     5    1
     4    34    33    3
     5     1     5   ar
     6     1     2   ar
     7     5     4   ar
     8    33    27    1
     9     2     8    1
    10     2     3   ar
    11    22    21    1
    12     4    14    1
    13     4     3   ar
    14    21    20    3
    15     8     9    3
    16    20    15    1
    17    14    15   ar
    18    14    18   ar
    19     9    10    1
    20    15    16   ar
    21    38    37    1
    22    27    26   ar
    23    27    28   ar
    24    19    18    1
    25    18    17   ar
    26     3    11    1
    27    37    36    3
    28    16    17   ar
    29    16    23    1
    30    17    26    1
    31    23    24    3
    32    36    28    1
    33    24    25    1
    34    26    30   ar
    35    28    29   ar
    36    11    12    3
    37    30    29   ar
    38    30    31    1
    39    29    32    1
    40    12    13    1
