@<TRIPOS>MOLECULE
mol_data/opt/m06hf/geoms/mol2/13ee13de-4la6hi.out
 48 51 0 0 0
SMALL
GASTEIGER

@<TRIPOS>ATOM
      1 C           0.9005    0.5978    1.2669 C.ar    1  LIG1        0.0188
      2 C           0.7713    1.2831    0.0811 C.ar    1  LIG1        0.0579
      3 C          -0.5310    0.9786   -0.4412 C.ar    1  LIG1        0.0653
      4 C          -1.1336    0.1189    0.4551 C.ar    1  LIG1        0.0645
      5 N          -0.2457   -0.1046    1.4702 N.ar    1  LIG1       -0.3585
      6 H          -0.4634   -0.6490    2.2904 H       1  LIG1        0.1654
      7 H           1.7195    0.5749    1.9637 H       1  LIG1        0.0820
      8 C           1.7571    2.1304   -0.5209 C.1     1  LIG1       -0.0669
      9 C           2.5824    2.8414   -1.0284 C.1     1  LIG1       -0.1138
     10 H           3.3092    3.4730   -1.4838 H       1  LIG1        0.1232
     11 C          -1.0778    1.4332   -1.6821 C.1     1  LIG1       -0.0663
     12 C          -1.5325    1.8082   -2.7285 C.1     1  LIG1       -0.1138
     13 H          -1.9447    2.1433   -3.6512 H       1  LIG1        0.1232
     14 C          -3.6486    0.1445    0.3147 C.ar    1  LIG1        0.0346
     15 C          -4.8414   -0.5718    0.2998 C.ar    1  LIG1       -0.0332
     16 C          -2.4411   -0.5703    0.4263 C.ar    1  LIG1        0.0167
     17 C          -4.8696   -1.9627    0.4098 C.ar    1  LIG1        0.0404
     18 H          -5.7700   -0.0244    0.2051 H       1  LIG1        0.0638
     19 C          -2.4620   -1.9534    0.5302 C.ar    1  LIG1       -0.0300
     20 C          -3.6595   -2.6872    0.5258 C.ar    1  LIG1        0.0361
     21 H          -1.5219   -2.4898    0.5846 H       1  LIG1        0.0643
     22 C          -3.6776    1.5829    0.2491 C.1     1  LIG1       -0.0690
     23 C          -3.7239    2.7823    0.2048 C.1     1  LIG1       -0.1139
     24 H          -3.7496    3.8459    0.1576 H       1  LIG1        0.1232
     25 N          -3.6150   -4.0506    0.6765 N.pl3   1  LIG1       -0.3574
     26 H          -4.4025   -4.6032    0.3758 H       1  LIG1        0.1423
     27 H          -2.7126   -4.4879    0.5844 H       1  LIG1        0.1423
     28 C          -6.1718   -2.6384    0.4281 C.ar    1  LIG1        0.1562
     29 C          -7.4172   -2.2664    0.8500 C.ar    1  LIG1        0.1135
     30 C          -8.3020   -3.3869    0.6152 C.ar    1  LIG1        0.0916
     31 C          -7.5163   -4.3518    0.0597 C.ar    1  LIG1        0.1909
     32 O          -6.2473   -3.8960   -0.0577 O.2     1  LIG1       -0.4489
     33 N          -8.0897   -0.0258    1.9366 N.1     1  LIG1       -0.1907
     34 C          -7.7882   -1.0248    1.4586 C.1     1  LIG1        0.1042
     35 C          -9.6846   -3.4725    0.9572 C.1     1  LIG1       -0.0644
     36 C         -10.8442   -3.5363    1.2593 C.1     1  LIG1       -0.1138
     37 H         -11.8746   -3.5922    1.5242 H       1  LIG1        0.1232
     38 C          -7.7573   -5.7040   -0.3918 C.ar    1  LIG1        0.2140
     39 C          -8.8459   -6.3636   -0.8700 C.ar    1  LIG1        0.1870
     40 C          -8.4238   -7.7141   -1.1343 C.ar    1  LIG1        0.1057
     41 C          -7.1082   -7.7628   -0.8047 C.ar    1  LIG1        0.1171
     42 O          -6.6959   -6.5655   -0.3577 O.2     1  LIG1       -0.4541
     43 H          -6.3721   -8.5476   -0.8384 H       1  LIG1        0.1050
     44 O         -10.0887   -5.9242   -1.1068 O.3     1  LIG1       -0.5019
     45 H         -10.5722   -6.6794   -1.4802 H       1  LIG1        0.2924
     46 N          -9.3509   -8.6546   -1.6585 N.pl3   1  LIG1       -0.3527
     47 H          -9.0581   -9.0371   -2.5507 H       1  LIG1        0.1425
     48 H          -9.5470   -9.4111   -1.0122 H       1  LIG1        0.1425
@<TRIPOS>BOND
     1    13    12    1
     2    12    11    3
     3    47    46    1
     4    11     3    1
     5    46    40    1
     6    46    48    1
     7    10     9    1
     8    45    44    1
     9    40    39   ar
    10    40    41   ar
    11    44    39    1
    12     9     8    3
    13    39    38   ar
    14    43    41    1
    15    41    42   ar
    16     8     2    1
    17     3     2   ar
    18     3     4   ar
    19    38    42   ar
    20    38    31    1
    21    32    31   ar
    22    32    28   ar
    23    31    30   ar
    24     2     1   ar
    25    24    23    1
    26    23    22    3
    27    18    15    1
    28    22    14    1
    29    15    14   ar
    30    15    17   ar
    31    14    16   ar
    32    26    25    1
    33    17    28    1
    34    17    20   ar
    35    16     4    1
    36    16    19   ar
    37    28    29   ar
    38     4     5   ar
    39    20    19   ar
    40    20    25    1
    41    19    21    1
    42    27    25    1
    43    30    29   ar
    44    30    35    1
    45    29    34    1
    46    35    36    3
    47    36    37    1
    48     1     5   ar
    49     1     7    1
    50    34    33    3
    51     5     6    1
