@<TRIPOS>MOLECULE
mol_data/opt/m06hf/geoms/mol2/13ee13ee-13ee13ee-.out
 50 53 0 0 0
SMALL
GASTEIGER

@<TRIPOS>ATOM
      1 C           1.2996   -0.2643   -0.0232 C.ar    1  LIG1        0.0189
      2 C           0.8863    0.9845   -0.4314 C.ar    1  LIG1        0.0580
      3 C          -0.5464    0.9667   -0.4302 C.ar    1  LIG1        0.0667
      4 C          -0.9338   -0.2964   -0.0145 C.ar    1  LIG1        0.0809
      5 N           0.1971   -1.0181    0.2223 N.ar    1  LIG1       -0.3574
      6 H           0.1830   -1.9833    0.5262 H       1  LIG1        0.1654
      7 H           2.2961   -0.6483    0.1036 H       1  LIG1        0.0820
      8 C           1.7252    2.0859   -0.7941 C.1     1  LIG1       -0.0669
      9 C           2.4257    3.0126   -1.0990 C.1     1  LIG1       -0.1138
     10 H           3.0436    3.8359   -1.3722 H       1  LIG1        0.1232
     11 C          -1.4249    2.0271   -0.8142 C.1     1  LIG1       -0.0663
     12 C          -2.1828    2.9004   -1.1492 C.1     1  LIG1       -0.1138
     13 H          -2.8472    3.6693   -1.4700 H       1  LIG1        0.1232
     14 C          -2.2623   -0.8588    0.1706 C.ar    1  LIG1        0.0814
     15 C          -2.6548   -2.1663    0.4197 C.ar    1  LIG1        0.0674
     16 C          -4.0802   -2.1621    0.5140 C.ar    1  LIG1        0.0674
     17 C          -4.4914   -0.8532    0.3177 C.ar    1  LIG1        0.0814
     18 N          -3.3824   -0.0925    0.1154 N.ar    1  LIG1       -0.3499
     19 H          -3.3848    0.9110   -0.0497 H       1  LIG1        0.1661
     20 C          -1.7921   -3.2978    0.5663 C.1     1  LIG1       -0.0662
     21 C          -1.0593   -4.2447    0.6955 C.1     1  LIG1       -0.1138
     22 H          -0.4380   -5.1038    0.8067 H       1  LIG1        0.1232
     23 C          -4.9359   -3.2725    0.7914 C.1     1  LIG1       -0.0662
     24 C          -5.6782   -4.1876    1.0360 C.1     1  LIG1       -0.1138
     25 H          -6.3354   -4.9909    1.2790 H       1  LIG1        0.1232
     26 C          -5.8297   -0.2875    0.3194 C.ar    1  LIG1        0.0814
     27 C          -6.2403    1.0217    0.5147 C.ar    1  LIG1        0.0674
     28 C          -7.6659    1.0258    0.4251 C.ar    1  LIG1        0.0674
     29 C          -8.0592   -0.2822    0.1796 C.ar    1  LIG1        0.0814
     30 N          -6.9394   -1.0486    0.1220 N.ar    1  LIG1       -0.3499
     31 H          -6.9375   -2.0524   -0.0413 H       1  LIG1        0.1661
     32 C          -5.3837    2.1326    0.7875 C.1     1  LIG1       -0.0662
     33 C          -4.6406    3.0482    1.0280 C.1     1  LIG1       -0.1138
     34 H          -3.9825    3.8520    1.2668 H       1  LIG1        0.1232
     35 C          -8.5282    2.1575    0.5726 C.1     1  LIG1       -0.0662
     36 C          -9.2606    3.1047    0.7025 C.1     1  LIG1       -0.1138
     37 H          -9.8815    3.9639    0.8142 H       1  LIG1        0.1232
     38 C          -9.3884   -0.8449   -0.0002 C.ar    1  LIG1        0.0809
     39 C          -9.7771   -2.1088   -0.4123 C.ar    1  LIG1        0.0667
     40 C         -11.2097   -2.1266   -0.4088 C.ar    1  LIG1        0.0580
     41 C         -11.6217   -0.8772   -0.0015 C.ar    1  LIG1        0.0189
     42 N         -10.5185   -0.1228    0.2391 N.ar    1  LIG1       -0.3574
     43 H         -10.5034    0.8428    0.5412 H       1  LIG1        0.1654
     44 H         -12.6178   -0.4929    0.1279 H       1  LIG1        0.0820
     45 C          -8.8998   -3.1698   -0.7973 C.1     1  LIG1       -0.0663
     46 C          -8.1429   -4.0437   -1.1331 C.1     1  LIG1       -0.1138
     47 H          -7.4799   -4.8135   -1.4548 H       1  LIG1        0.1232
     48 C         -12.0497   -3.2287   -0.7669 C.1     1  LIG1       -0.0669
     49 C         -12.7513   -4.1560   -1.0678 C.1     1  LIG1       -0.1138
     50 H         -13.3699   -4.9799   -1.3374 H       1  LIG1        0.1232
@<TRIPOS>BOND
     1    13    12    1
     2    47    46    1
     3    10     9    1
     4    50    49    1
     5    12    11    3
     6    46    45    3
     7     9     8    3
     8    49    48    3
     9    11     3    1
    10    45    39    1
    11     8     2    1
    12    48    40    1
    13     2     3   ar
    14     2     1   ar
    15     3     4   ar
    16    39    40   ar
    17    39    38   ar
    18    40    41   ar
    19    19    18    1
    20    31    30    1
    21     1     7    1
    22     1     5   ar
    23     4    14    1
    24     4     5   ar
    25    41    44    1
    26    41    42   ar
    27    38    29    1
    28    38    42   ar
    29    18    14   ar
    30    18    17   ar
    31    30    29   ar
    32    30    26   ar
    33    14    15   ar
    34    29    28   ar
    35     5     6    1
    36    42    43    1
    37    17    26    1
    38    17    16   ar
    39    26    27   ar
    40    15    16   ar
    41    15    20    1
    42    28    27   ar
    43    28    35    1
    44    16    23    1
    45    27    32    1
    46    20    21    3
    47    35    36    3
    48    21    22    1
    49    36    37    1
    50    32    33    3
    51    23    24    3
    52    33    34    1
    53    24    25    1
