@<TRIPOS>MOLECULE
mol_data/opt/m06hf/geoms/mol2/13ee13ee-13ee.out
 38 40 0 0 0
SMALL
GASTEIGER

@<TRIPOS>ATOM
      1 C           1.2319   -0.2849    0.3276 C.ar    1  LIG1        0.0189
      2 C           0.8662    1.0000   -0.0070 C.ar    1  LIG1        0.0580
      3 C          -0.5559    0.9934   -0.1814 C.ar    1  LIG1        0.0667
      4 C          -0.9860   -0.2999    0.0623 C.ar    1  LIG1        0.0809
      5 N           0.1104   -1.0500    0.3654 N.ar    1  LIG1       -0.3574
      6 H           0.0640   -2.0403    0.5682 H       1  LIG1        0.1654
      7 H           2.2066   -0.6889    0.5359 H       1  LIG1        0.0820
      8 C           1.7397    2.1233   -0.1623 C.1     1  LIG1       -0.0669
      9 C           2.4700    3.0675   -0.2957 C.1     1  LIG1       -0.1138
     10 H           3.1133    3.9074   -0.4172 H       1  LIG1        0.1232
     11 C          -1.3871    2.0872   -0.5774 C.1     1  LIG1       -0.0663
     12 C          -2.1052    2.9861   -0.9316 C.1     1  LIG1       -0.1138
     13 H          -2.7338    3.7765   -1.2719 H       1  LIG1        0.1232
     14 C          -2.3241   -0.8693    0.0291 C.ar    1  LIG1        0.0814
     15 C          -2.7296   -2.1950    0.0210 C.ar    1  LIG1        0.0674
     16 C          -4.1580   -2.1926   -0.0185 C.ar    1  LIG1        0.0674
     17 C          -4.5590   -0.8655   -0.0262 C.ar    1  LIG1        0.0814
     18 N          -3.4402   -0.0936    0.0015 N.ar    1  LIG1       -0.3499
     19 H          -3.4385    0.9244    0.0017 H       1  LIG1        0.1661
     20 C          -1.8768   -3.3430    0.0506 C.1     1  LIG1       -0.0662
     21 C          -1.1524   -4.3042    0.0845 C.1     1  LIG1       -0.1138
     22 H          -0.5372   -5.1747    0.1014 H       1  LIG1        0.1232
     23 C          -5.0146   -3.3376   -0.0483 C.1     1  LIG1       -0.0662
     24 C          -5.7423   -4.2964   -0.0825 C.1     1  LIG1       -0.1138
     25 H          -6.3604   -5.1648   -0.0998 H       1  LIG1        0.1232
     26 C          -5.8952   -0.2916   -0.0593 C.ar    1  LIG1        0.0809
     27 C          -6.3209    1.0031    0.1847 C.ar    1  LIG1        0.0667
     28 C          -7.7429    1.0145    0.0103 C.ar    1  LIG1        0.0580
     29 C          -8.1130   -0.2690   -0.3247 C.ar    1  LIG1        0.0189
     30 N          -6.9941   -1.0379   -0.3626 N.ar    1  LIG1       -0.3574
     31 H          -6.9511   -2.0284   -0.5657 H       1  LIG1        0.1654
     32 H          -9.0890   -0.6697   -0.5331 H       1  LIG1        0.0820
     33 C          -5.4860    2.0940    0.5811 C.1     1  LIG1       -0.0663
     34 C          -4.7648    2.9904    0.9351 C.1     1  LIG1       -0.1138
     35 H          -4.1338    3.7787    1.2759 H       1  LIG1        0.1232
     36 C          -8.6127    2.1407    0.1659 C.1     1  LIG1       -0.0669
     37 C          -9.3397    3.0874    0.2994 C.1     1  LIG1       -0.1138
     38 H          -9.9803    3.9294    0.4212 H       1  LIG1        0.1232
@<TRIPOS>BOND
     1    13    12    1
     2    12    11    3
     3    11     3    1
     4    31    30    1
     5    32    29    1
     6    10     9    1
     7    30    29   ar
     8    30    26   ar
     9    29    28   ar
    10     9     8    3
    11     3     2   ar
    12     3     4   ar
    13     8     2    1
    14    25    24    1
    15    24    23    3
    16    26    17    1
    17    26    27   ar
    18    23    16    1
    19    17    16   ar
    20    17    18   ar
    21    16    15   ar
    22     2     1   ar
    23    18    19    1
    24    18    14   ar
    25    28    36    1
    26    28    27   ar
    27    15    14   ar
    28    15    20    1
    29    14     4    1
    30    20    21    3
    31     4     5   ar
    32    21    22    1
    33    36    37    3
    34    27    33    1
    35    37    38    1
    36     1     5   ar
    37     1     7    1
    38     5     6    1
    39    33    34    3
    40    34    35    1
