@<TRIPOS>MOLECULE
mol_data/opt/m06hf/geoms/mol2/13ee12ld-12ea6ld-.out
 49 52 0 0 0
SMALL
GASTEIGER

@<TRIPOS>ATOM
      1 C           1.3850   -0.0783    0.9334 C.ar    1  LIG1        0.0189
      2 C           0.9823    1.2354    1.0181 C.ar    1  LIG1        0.0580
      3 C          -0.4140    1.2732    0.6883 C.ar    1  LIG1        0.0684
      4 C          -0.7887   -0.0288    0.4105 C.ar    1  LIG1        0.1026
      5 N           0.3113   -0.8232    0.5681 N.ar    1  LIG1       -0.3560
      6 H           0.2974   -1.8232    0.4306 H       1  LIG1        0.1655
      7 H           2.3517   -0.5150    1.1103 H       1  LIG1        0.0820
      8 C           1.7995    2.3540    1.3784 C.1     1  LIG1       -0.0669
      9 C           2.4820    3.2952    1.6791 C.1     1  LIG1       -0.1138
     10 H           3.0813    4.1344    1.9448 H       1  LIG1        0.1232
     11 C          -1.2271    2.4490    0.7010 C.1     1  LIG1       -0.0662
     12 C          -1.8591    3.4701    0.7457 C.1     1  LIG1       -0.1138
     13 H          -2.4052    4.3839    0.7811 H       1  LIG1        0.1232
     14 C          -2.0501   -0.6374    0.0270 C.ar    1  LIG1        0.1958
     15 C          -3.2037   -0.1925   -0.5429 C.ar    1  LIG1        0.1853
     16 C          -4.0438   -1.3573   -0.7082 C.ar    1  LIG1        0.1428
     17 C          -3.3211   -2.4164   -0.2368 C.ar    1  LIG1        0.1929
     18 O          -2.1275   -1.9847    0.2021 O.2     1  LIG1       -0.4450
     19 O          -3.4889    1.0563   -0.9487 O.3     1  LIG1       -0.4901
     20 C          -4.5078    1.7127   -0.1847 C.3     1  LIG1        0.0790
     21 H          -4.6057    2.7038   -0.6184 H       1  LIG1        0.0660
     22 H          -5.4508    1.1709   -0.2711 H       1  LIG1        0.0660
     23 H          -4.1923    1.7855    0.8557 H       1  LIG1        0.0660
     24 N          -6.3301   -1.3071   -1.8981 N.1     1  LIG1       -0.1906
     25 C          -5.3169   -1.3615   -1.3620 C.1     1  LIG1        0.1068
     26 C          -3.5796   -3.8400   -0.1179 C.ar    1  LIG1        0.1873
     27 C          -4.7246   -4.5687    0.0563 C.ar    1  LIG1        0.0741
     28 C          -4.3003   -5.9417    0.1026 C.ar    1  LIG1        0.0005
     29 C          -2.9478   -5.9229   -0.0292 C.ar    1  LIG1        0.1422
     30 O          -2.5092   -4.6525   -0.1611 O.2     1  LIG1       -0.4502
     31 C          -6.0518   -4.0612    0.2070 C.1     1  LIG1       -0.0657
     32 C          -7.1645   -3.6287    0.3340 C.1     1  LIG1       -0.1138
     33 H          -8.1469   -3.2264    0.4268 H       1  LIG1        0.1232
     34 H          -4.9342   -6.8057    0.2070 H       1  LIG1        0.0668
     35 C          -0.8730   -7.0567   -0.9183 C.ar    1  LIG1        0.2255
     36 C          -1.9594   -7.0113   -0.0076 C.ar    1  LIG1        0.0799
     37 C          -2.0792   -8.0562    0.8861 C.ar    1  LIG1       -0.0271
     38 C          -1.1421   -9.0990    0.8535 C.ar    1  LIG1        0.0707
     39 C          -0.1094   -9.0364   -0.0725 C.ar    1  LIG1        0.0488
     40 N           0.0169   -8.0319   -0.9375 N.ar    1  LIG1       -0.2194
     41 H          -2.8803   -8.0635    1.6137 H       1  LIG1        0.0640
     42 H           0.6365   -9.8196   -0.1183 H       1  LIG1        0.0844
     43 O          -0.7662   -6.0656   -1.7945 O.3     1  LIG1       -0.4792
     44 C           0.3130   -6.1255   -2.7314 C.3     1  LIG1        0.0804
     45 H           0.1961   -5.2404   -3.3486 H       1  LIG1        0.0660
     46 H           1.2647   -6.1146   -2.2025 H       1  LIG1        0.0660
     47 H           0.2386   -7.0337   -3.3272 H       1  LIG1        0.0660
     48 N          -1.3017  -11.0901    2.5034 N.1     1  LIG1       -0.1908
     49 C          -1.2305  -10.2088    1.7724 C.1     1  LIG1        0.1007
@<TRIPOS>BOND
     1    45    44    1
     2    47    44    1
     3    44    46    1
     4    44    43    1
     5    24    25    3
     6    43    35    1
     7    25    16    1
     8    19    15    1
     9    19    20    1
    10    40    35   ar
    11    40    39   ar
    12    35    36   ar
    13    16    15   ar
    14    16    17   ar
    15    21    20    1
    16    15    14   ar
    17    22    20    1
    18    17    26    1
    19    17    18   ar
    20    20    23    1
    21    30    26   ar
    22    30    29   ar
    23    42    39    1
    24    26    27   ar
    25    39    38   ar
    26    29    36    1
    27    29    28   ar
    28    36    37   ar
    29    14    18   ar
    30    14     4    1
    31    27    28   ar
    32    27    31    1
    33    28    34    1
    34    31    32    3
    35    32    33    1
    36     4     5   ar
    37     4     3   ar
    38     6     5    1
    39     5     1   ar
    40     3    11    1
    41     3     2   ar
    42    11    12    3
    43    12    13    1
    44    38    37   ar
    45    38    49    1
    46    37    41    1
    47     1     2   ar
    48     1     7    1
    49     2     8    1
    50     8     9    3
    51     9    10    1
    52    49    48    3
