@<TRIPOS>MOLECULE
mol_data/opt/m06hf/geoms/mol2/13ee13ee.out
 26 27 0 0 0
SMALL
GASTEIGER

@<TRIPOS>ATOM
      1 C           1.0465   -0.2095   -0.8218 C.ar    1  LIG1        0.0189
      2 C           0.8072    1.0053   -0.2214 C.ar    1  LIG1        0.0580
      3 C          -0.5530    0.9875    0.2370 C.ar    1  LIG1        0.0667
      4 C          -1.0786   -0.2395   -0.1111 C.ar    1  LIG1        0.0809
      5 N          -0.0922   -0.9484   -0.7439 N.ar    1  LIG1       -0.3574
      6 H          -0.2367   -1.8472   -1.1771 H       1  LIG1        0.1654
      7 H           1.9399   -0.5794   -1.2932 H       1  LIG1        0.0820
      8 C           1.7447    2.0781   -0.0724 C.1     1  LIG1       -0.0669
      9 C           2.5272    2.9808    0.0554 C.1     1  LIG1       -0.1138
     10 H           3.2153    3.7854    0.1722 H       1  LIG1        0.1232
     11 C          -1.2353    2.0261    0.9447 C.1     1  LIG1       -0.0663
     12 C          -1.8088    2.8962    1.5411 C.1     1  LIG1       -0.1138
     13 H          -2.3249    3.6676    2.0629 H       1  LIG1        0.1232
     14 C          -2.4095   -0.8040    0.1120 C.ar    1  LIG1        0.0809
     15 C          -3.6569   -0.3287   -0.2356 C.ar    1  LIG1        0.0667
     16 C          -4.6152   -1.2944    0.2225 C.ar    1  LIG1        0.0580
     17 C          -3.9081   -2.3111    0.8223 C.ar    1  LIG1        0.0189
     18 N          -2.5854   -2.0061    0.7443 N.ar    1  LIG1       -0.3574
     19 H          -1.8388   -2.5272    1.1771 H       1  LIG1        0.1654
     20 H          -4.2631   -3.2107    1.2933 H       1  LIG1        0.0820
     21 C          -3.9294    0.8841   -0.9428 C.1     1  LIG1       -0.0663
     22 C          -4.1565    1.9015   -1.5385 C.1     1  LIG1       -0.1138
     23 H          -4.3528    2.8090   -2.0597 H       1  LIG1        0.1232
     24 C          -6.0381   -1.2225    0.0738 C.1     1  LIG1       -0.0669
     25 C          -7.2310   -1.1574   -0.0538 C.1     1  LIG1       -0.1138
     26 H          -8.2879   -1.0924   -0.1699 H       1  LIG1        0.1232
@<TRIPOS>BOND
     1    23    22    1
     2    22    21    3
     3     7     1    1
     4     6     5    1
     5    21    15    1
     6     1     5   ar
     7     1     2   ar
     8     5     4   ar
     9    15    14   ar
    10    15    16   ar
    11     2     8    1
    12     2     3   ar
    13    26    25    1
    14     4    14    1
    15     4     3   ar
    16     8     9    3
    17    25    24    3
    18     9    10    1
    19    24    16    1
    20    14    18   ar
    21    16    17   ar
    22     3    11    1
    23    18    17   ar
    24    18    19    1
    25    17    20    1
    26    11    12    3
    27    12    13    1
