@<TRIPOS>MOLECULE
mol_data/opt/m06hf/geoms/mol2/13ee13ee-4ee13ee.out
 52 55 0 0 0
SMALL
GASTEIGER

@<TRIPOS>ATOM
      1 C           1.3579   -0.3607   -0.0444 C.ar    1  LIG1        0.0189
      2 C           0.9737    0.9358   -0.3037 C.ar    1  LIG1        0.0580
      3 C          -0.4592    0.9490   -0.3083 C.ar    1  LIG1        0.0667
      4 C          -0.8764   -0.3463   -0.0481 C.ar    1  LIG1        0.0809
      5 N           0.2380   -1.1143    0.1060 N.ar    1  LIG1       -0.3574
      6 H           0.2034   -2.1067    0.3031 H       1  LIG1        0.1654
      7 H           2.3446   -0.7798    0.0412 H       1  LIG1        0.0820
      8 C           1.8396    2.0540   -0.5273 C.1     1  LIG1       -0.0669
      9 C           2.5668    2.9920   -0.7147 C.1     1  LIG1       -0.1138
     10 H           3.2090    3.8250   -0.8837 H       1  LIG1        0.1232
     11 C          -1.3101    2.0725   -0.5483 C.1     1  LIG1       -0.0663
     12 C          -2.0459    3.0030   -0.7554 C.1     1  LIG1       -0.1138
     13 H          -2.6887    3.8290   -0.9574 H       1  LIG1        0.1232
     14 C          -2.2165   -0.9005    0.0701 C.ar    1  LIG1        0.0813
     15 C          -2.6319   -2.2097    0.2647 C.ar    1  LIG1        0.0673
     16 C          -4.0584   -2.1904    0.3228 C.ar    1  LIG1        0.0659
     17 C          -4.4553   -0.8690    0.1635 C.ar    1  LIG1        0.0650
     18 N          -3.3255   -0.1231    0.0131 N.ar    1  LIG1       -0.3510
     19 H          -3.3044    0.8858   -0.1026 H       1  LIG1        0.1660
     20 C          -1.7889   -3.3580    0.3921 C.1     1  LIG1       -0.0662
     21 C          -1.0722   -4.3197    0.4994 C.1     1  LIG1       -0.1138
     22 H          -0.4673   -5.1923    0.5922 H       1  LIG1        0.1232
     23 C          -4.8900   -3.3348    0.5377 C.1     1  LIG1       -0.0663
     24 C          -5.5726   -4.3084    0.7168 C.1     1  LIG1       -0.1138
     25 H          -6.1732   -5.1723    0.8846 H       1  LIG1        0.1232
     26 C          -6.1087    1.0040    0.5860 C.ar    1  LIG1        0.0345
     27 C          -7.4163    1.4863    0.5360 C.ar    1  LIG1       -0.0354
     28 C          -5.8113   -0.2942    0.1271 C.ar    1  LIG1        0.0161
     29 C          -8.4617    0.7165    0.0266 C.ar    1  LIG1        0.0161
     30 H          -7.6196    2.4794    0.9109 H       1  LIG1        0.0637
     31 C          -6.8545   -1.0658   -0.3809 C.ar    1  LIG1       -0.0354
     32 C          -8.1619   -0.5816   -0.4328 C.ar    1  LIG1        0.0345
     33 H          -6.6511   -2.0609   -0.7512 H       1  LIG1        0.0637
     34 C          -5.0941    1.8644    1.1494 C.1     1  LIG1       -0.0690
     35 C          -4.2579    2.5918    1.6171 C.1     1  LIG1       -0.1139
     36 H          -3.5052    3.2193    2.0374 H       1  LIG1        0.1232
     37 C          -9.1636   -1.4590   -0.9982 C.1     1  LIG1       -0.0690
     38 C          -9.9652   -2.2234   -1.4682 C.1     1  LIG1       -0.1139
     39 H         -10.6624   -2.8996   -1.9080 H       1  LIG1        0.1232
     40 C          -9.8191    1.2907    0.0113 C.ar    1  LIG1        0.0645
     41 C         -10.2270    2.6162   -0.0522 C.ar    1  LIG1        0.0653
     42 C         -11.6574    2.6222    0.0119 C.ar    1  LIG1        0.0579
     43 C         -12.0579    1.3083    0.1104 C.ar    1  LIG1        0.0188
     44 N         -10.9488    0.5303    0.1093 N.ar    1  LIG1       -0.3585
     45 H         -10.9366   -0.4795    0.1321 H       1  LIG1        0.1654
     46 H         -13.0488    0.8952    0.1786 H       1  LIG1        0.0820
     47 C          -9.4075    3.7818   -0.1867 C.1     1  LIG1       -0.0663
     48 C          -8.7369    4.7735   -0.2981 C.1     1  LIG1       -0.1138
     49 H          -8.1506    5.6563   -0.4047 H       1  LIG1        0.1232
     50 C         -12.5102    3.7712   -0.0258 C.1     1  LIG1       -0.0669
     51 C         -13.2249    4.7360   -0.0565 C.1     1  LIG1       -0.1138
     52 H         -13.8540    5.5948   -0.0843 H       1  LIG1        0.1232
@<TRIPOS>BOND
     1    39    38    1
     2    38    37    3
     3    37    32    1
     4    13    12    1
     5    10     9    1
     6    12    11    3
     7    33    31    1
     8     9     8    3
     9    11     3    1
    10     8     2    1
    11    32    31   ar
    12    32    29   ar
    13    49    48    1
    14    31    28   ar
    15     3     2   ar
    16     3     4   ar
    17     2     1   ar
    18    48    47    3
    19    47    41    1
    20    19    18    1
    21    52    51    1
    22    51    50    3
    23    41    40   ar
    24    41    42   ar
    25     4    14    1
    26     4     5   ar
    27     1     7    1
    28     1     5   ar
    29    50    42    1
    30    40    29    1
    31    40    44   ar
    32    42    43   ar
    33    18    14   ar
    34    18    17   ar
    35    29    27   ar
    36    14    15   ar
    37     5     6    1
    38    44    43   ar
    39    44    45    1
    40    43    46    1
    41    28    17    1
    42    28    26   ar
    43    17    16   ar
    44    15    16   ar
    45    15    20    1
    46    16    23    1
    47    20    21    3
    48    21    22    1
    49    27    26   ar
    50    27    30    1
    51    23    24    3
    52    26    34    1
    53    24    25    1
    54    34    35    3
    55    35    36    1
