@<TRIPOS>MOLECULE
mol_data/opt/m06hf/geoms/mol2/13ee13ee13ee13ee-.out
 50 53 0 0 0
SMALL
GASTEIGER

@<TRIPOS>ATOM
      1 C           0.2230    0.5597   -2.4577 C.ar    1  LIG1        0.0189
      2 C           0.5679    1.1216   -1.2495 C.ar    1  LIG1        0.0580
      3 C          -0.4613    0.7701   -0.3134 C.ar    1  LIG1        0.0667
      4 C          -1.3867    0.0117   -1.0000 C.ar    1  LIG1        0.0809
      5 N          -0.9494   -0.1080   -2.2919 N.ar    1  LIG1       -0.3574
      6 H          -1.4829   -0.5421   -3.0296 H       1  LIG1        0.1654
      7 H           0.7310    0.6005   -3.4048 H       1  LIG1        0.0820
      8 C           1.7393    1.8997   -0.9796 C.1     1  LIG1       -0.0669
      9 C           2.7210    2.5528   -0.7503 C.1     1  LIG1       -0.1138
     10 H           3.5881    3.1345   -0.5402 H       1  LIG1        0.1232
     11 C          -0.5168    1.1111    1.0743 C.1     1  LIG1       -0.0663
     12 C          -0.5669    1.3952    2.2399 C.1     1  LIG1       -0.1138
     13 H          -0.6183    1.6543    3.2718 H       1  LIG1        0.1232
     14 C          -2.6221   -0.6239   -0.5421 C.ar    1  LIG1        0.0814
     15 C          -3.7434   -0.0851    0.0577 C.ar    1  LIG1        0.0674
     16 C          -4.6625   -1.1619    0.2798 C.ar    1  LIG1        0.0674
     17 C          -4.0645   -2.3103   -0.2031 C.ar    1  LIG1        0.0814
     18 N          -2.8367   -1.9644   -0.6916 N.ar    1  LIG1       -0.3499
     19 H          -2.1747   -2.6100   -1.0965 H       1  LIG1        0.1661
     20 C          -3.9434    1.2929    0.3847 C.1     1  LIG1       -0.0662
     21 C          -4.1115    2.4499    0.6586 C.1     1  LIG1       -0.1138
     22 H          -4.2554    3.4761    0.9048 H       1  LIG1        0.1232
     23 C          -5.9427   -1.0768    0.9112 C.1     1  LIG1       -0.0662
     24 C          -7.0165   -1.0073    1.4450 C.1     1  LIG1       -0.1138
     25 H          -7.9716   -0.9521    1.9137 H       1  LIG1        0.1232
     26 C          -4.5158   -3.6989   -0.2152 C.ar    1  LIG1        0.0814
     27 C          -5.7039   -4.2642   -0.6376 C.ar    1  LIG1        0.0674
     28 C          -5.5750   -5.6786   -0.4587 C.ar    1  LIG1        0.0674
     29 C          -4.3096   -5.9122    0.0569 C.ar    1  LIG1        0.0814
     30 N          -3.6935   -4.7093    0.1942 N.ar    1  LIG1       -0.3499
     31 H          -2.7853   -4.5963    0.6306 H       1  LIG1        0.1661
     32 C          -6.8225   -3.5734   -1.1985 C.1     1  LIG1       -0.0662
     33 C          -7.7569   -2.9923   -1.6798 C.1     1  LIG1       -0.1138
     34 H          -8.5817   -2.4666   -2.1014 H       1  LIG1        0.1232
     35 C          -6.5542   -6.6735   -0.7703 C.1     1  LIG1       -0.0662
     36 C          -7.3707   -7.5196   -1.0285 C.1     1  LIG1       -0.1138
     37 H          -8.1150   -8.2436   -1.2688 H       1  LIG1        0.1232
     38 C          -3.6446   -7.1544    0.4174 C.ar    1  LIG1        0.0809
     39 C          -2.3649   -7.3754    0.9001 C.ar    1  LIG1        0.0667
     40 C          -2.2225   -8.7902    1.0731 C.ar    1  LIG1        0.0580
     41 C          -3.4168   -9.3591    0.6902 C.ar    1  LIG1        0.0189
     42 N          -4.2561   -8.3648    0.3008 N.ar    1  LIG1       -0.3574
     43 H          -5.2045   -8.4732   -0.0360 H       1  LIG1        0.1654
     44 H          -3.7084  -10.3942    0.6714 H       1  LIG1        0.0820
     45 C          -1.3811   -6.3730    1.1732 C.1     1  LIG1       -0.0663
     46 C          -0.5652   -5.5180    1.4046 C.1     1  LIG1       -0.1138
     47 H           0.1759   -4.7849    1.6282 H       1  LIG1        0.1232
     48 C          -1.0593   -9.4770    1.5478 C.1     1  LIG1       -0.0669
     49 C          -0.0792  -10.0484    1.9433 C.1     1  LIG1       -0.1138
     50 H           0.7906  -10.5529    2.2954 H       1  LIG1        0.1232
@<TRIPOS>BOND
     1     7     1    1
     2     6     5    1
     3     1     5   ar
     4     1     2   ar
     5     5     4   ar
     6    34    33    1
     7    33    32    3
     8    37    36    1
     9     2     8    1
    10     2     3   ar
    11    32    27    1
    12    19    18    1
    13    36    35    3
    14     4    14    1
    15     4     3   ar
    16     8     9    3
    17    35    28    1
    18     9    10    1
    19    18    14   ar
    20    18    17   ar
    21    27    28   ar
    22    27    26   ar
    23    14    15   ar
    24    28    29   ar
    25     3    11    1
    26    26    17    1
    27    26    30   ar
    28    17    16   ar
    29    43    42    1
    30    29    30   ar
    31    29    38    1
    32    15    16   ar
    33    15    20    1
    34    30    31    1
    35    16    23    1
    36    42    38   ar
    37    42    41   ar
    38    20    21    3
    39    38    39   ar
    40    21    22    1
    41    44    41    1
    42    41    40   ar
    43    39    40   ar
    44    39    45    1
    45    23    24    3
    46    40    48    1
    47    11    12    3
    48    45    46    3
    49    46    47    1
    50    24    25    1
    51    48    49    3
    52    49    50    1
    53    12    13    1
