@<TRIPOS>MOLECULE
mol_data/opt/m06hf/geoms/mol2/13ee6ee-13he12lf-12hf-6hf-13da6al-.out
 95 102 0 0 0
SMALL
GASTEIGER

@<TRIPOS>ATOM
      1 C           1.3994   -0.8728   -0.1425 C.ar    1  LIG1        0.0188
      2 C           1.1495    0.3791    0.3778 C.ar    1  LIG1        0.0579
      3 C          -0.2704    0.4963    0.5248 C.ar    1  LIG1        0.0653
      4 C          -0.8262   -0.6957    0.0876 C.ar    1  LIG1        0.0660
      5 N           0.2061   -1.4973   -0.3088 N.ar    1  LIG1       -0.3585
      6 H           0.0875   -2.4322   -0.6683 H       1  LIG1        0.1654
      7 H           2.3257   -1.3625   -0.4011 H       1  LIG1        0.0820
      8 C           2.1238    1.3716    0.7173 C.1     1  LIG1       -0.0669
      9 C           2.9377    2.2069    1.0051 C.1     1  LIG1       -0.1138
     10 H           3.6556    2.9491    1.2650 H       1  LIG1        0.1232
     11 C          -0.9715    1.6266    1.0528 C.1     1  LIG1       -0.0663
     12 C          -1.5603    2.5772    1.4943 C.1     1  LIG1       -0.1138
     13 H          -2.0734    3.4192    1.8970 H       1  LIG1        0.1232
     14 C          -2.7098   -2.4000    0.1503 C.ar    1  LIG1        0.1231
     15 C          -2.2414   -1.0836   -0.0035 C.ar    1  LIG1        0.0345
     16 C          -3.2093   -0.1231   -0.2980 C.ar    1  LIG1       -0.0324
     17 C          -4.5556   -0.4664   -0.3838 C.ar    1  LIG1        0.0528
     18 C          -4.9326   -1.8034   -0.1263 C.ar    1  LIG1        0.1057
     19 N          -3.9943   -2.7324    0.0866 N.ar    1  LIG1       -0.2350
     20 H          -2.9089    0.8978   -0.4924 H       1  LIG1        0.0638
     21 C          -1.8112   -3.5113    0.4259 C.1     1  LIG1       -0.0491
     22 C          -1.1138   -4.4620    0.6731 C.1     1  LIG1       -0.1124
     23 H          -0.5631   -5.3532    0.8968 H       1  LIG1        0.1232
     24 C          -5.4801    0.5267   -0.8654 C.1     1  LIG1       -0.0674
     25 C          -6.1959    1.3810   -1.3188 C.1     1  LIG1       -0.1138
     26 H          -6.8238    2.1319   -1.7412 H       1  LIG1        0.1232
     27 C          -6.2994   -2.3220   -0.1128 C.ar    1  LIG1        0.0889
     28 C          -7.5699   -1.8266    0.1859 C.ar    1  LIG1        0.0680
     29 C          -8.4718   -2.9358    0.1187 C.ar    1  LIG1        0.0743
     30 C          -7.7161   -4.0630   -0.1897 C.ar    1  LIG1        0.1038
     31 N          -6.4378   -3.6754   -0.3189 N.ar    1  LIG1       -0.3480
     32 H          -5.6437   -4.2834   -0.4618 H       1  LIG1        0.1661
     33 N          -7.9586   -0.5761    0.6180 N.pl3   1  LIG1       -0.3553
     34 H          -7.4597    0.2107    0.2305 H       1  LIG1        0.1424
     35 H          -8.9627   -0.4609    0.6523 H       1  LIG1        0.1424
     36 C          -9.8690   -2.8439    0.3965 C.1     1  LIG1       -0.0656
     37 C         -11.0362   -2.6916    0.6514 C.1     1  LIG1       -0.1138
     38 H         -12.0721   -2.5712    0.8693 H       1  LIG1        0.1232
     39 C          -8.0312   -5.4729   -0.3365 C.ar    1  LIG1        0.1984
     40 C          -9.1525   -6.2083   -0.5883 C.ar    1  LIG1        0.2099
     41 C          -8.7259   -7.5890   -0.6543 C.ar    1  LIG1        0.2093
     42 C          -7.3779   -7.5631   -0.4533 C.ar    1  LIG1        0.2176
     43 O          -6.9503   -6.2879   -0.2706 O.2     1  LIG1       -0.4425
     44 O         -10.4003   -5.7451   -0.8016 O.3     1  LIG1       -0.4884
     45 C         -11.3467   -6.1729    0.1807 C.3     1  LIG1        0.0791
     46 H         -12.3089   -5.7852   -0.1439 H       1  LIG1        0.0660
     47 H         -11.3722   -7.2628    0.2236 H       1  LIG1        0.0660
     48 H         -11.0797   -5.7522    1.1513 H       1  LIG1        0.0660
     49 O          -9.5274   -8.6381   -0.8866 O.3     1  LIG1       -0.5007
     50 H          -8.9695   -9.4493   -0.9947 H       1  LIG1        0.2924
     51 C          -6.3700   -8.5912   -0.4649 C.ar    1  LIG1        0.1986
     52 C          -6.3994   -9.9157   -0.7755 C.ar    1  LIG1        0.1170
     53 C          -5.0325  -10.3595   -0.6935 C.ar    1  LIG1        0.1847
     54 C          -4.2821   -9.2817   -0.3230 C.ar    1  LIG1        0.1823
     55 O          -5.1159   -8.2101   -0.1830 O.2     1  LIG1       -0.4458
     56 N          -7.5746  -10.6378   -1.1416 N.pl3   1  LIG1       -0.3521
     57 H          -7.4960  -10.9949   -2.0916 H       1  LIG1        0.1425
     58 H          -7.7120  -11.4360   -0.5252 H       1  LIG1        0.1425
     59 O          -4.6572  -11.6322   -0.9734 O.3     1  LIG1       -0.5020
     60 H          -3.7363  -11.6567   -1.2611 H       1  LIG1        0.2924
     61 C          -2.2451   -7.7899   -0.2927 C.ar    1  LIG1        0.1280
     62 C          -2.8572   -9.0669   -0.0777 C.ar    1  LIG1        0.0639
     63 C          -2.0484  -10.0955    0.3685 C.ar    1  LIG1       -0.0039
     64 C          -0.6786   -9.9070    0.5839 C.ar    1  LIG1        0.1450
     65 C          -0.1820   -8.6239    0.3902 C.ar    1  LIG1        0.1317
     66 N          -0.9572   -7.6123   -0.0346 N.ar    1  LIG1       -0.2265
     67 H          -2.4594  -11.0764    0.5771 H       1  LIG1        0.0663
     68 N          -2.9291   -6.7263   -0.7976 N.pl3   1  LIG1       -0.3426
     69 H          -2.4661   -5.8309   -0.7284 H       1  LIG1        0.1437
     70 H          -3.9344   -6.7216   -0.7218 H       1  LIG1        0.1437
     71 O           0.0890  -10.9991    0.8708 O.3     1  LIG1       -0.5045
     72 H           0.4991  -10.9546    1.7458 H       1  LIG1        0.2922
     73 C           1.2285   -8.2226    0.5755 C.ar    1  LIG1        0.0866
     74 C           2.3094   -8.6807    1.3191 C.ar    1  LIG1        0.0792
     75 C           3.4094   -7.8089    1.0816 C.ar    1  LIG1       -0.0183
     76 C           2.9637   -6.8403    0.2117 C.ar    1  LIG1        0.0498
     77 N           1.6544   -7.1112   -0.0698 N.ar    1  LIG1       -0.3518
     78 H           1.0485   -6.6090   -0.7077 H       1  LIG1        0.1660
     79 N           2.1991  -10.5916    3.0502 N.1     1  LIG1       -0.1908
     80 C           2.2693   -9.7490    2.2703 C.1     1  LIG1        0.1014
     81 H           4.3810   -7.8640    1.5427 H       1  LIG1        0.0652
     82 C           2.9808   -4.4256   -0.3750 C.ar    1  LIG1        0.0369
     83 C           3.6378   -5.6511   -0.3434 C.ar    1  LIG1        0.0199
     84 C           4.9460   -5.7315   -0.8337 C.ar    1  LIG1       -0.0079
     85 C           5.5279   -4.5754   -1.3367 C.ar    1  LIG1        0.1387
     86 C           4.7727   -3.3911   -1.3456 C.ar    1  LIG1        0.0692
     87 N           3.5388   -3.3229   -0.8784 N.ar    1  LIG1       -0.2590
     88 H           5.4595   -6.6830   -0.8279 H       1  LIG1        0.0662
     89 H           5.2206   -2.4919   -1.7498 H       1  LIG1        0.0867
     90 H           1.9859   -4.3207    0.0439 H       1  LIG1        0.0836
     91 O           6.7735   -4.4851   -1.8454 O.3     1  LIG1       -0.4936
     92 C           7.5571   -5.6653   -1.8965 C.3     1  LIG1        0.0789
     93 H           8.5044   -5.3722   -2.3388 H       1  LIG1        0.0660
     94 H           7.7244   -6.0595   -0.8915 H       1  LIG1        0.0660
     95 H           7.0730   -6.4202   -2.5210 H       1  LIG1        0.0660
@<TRIPOS>BOND
     1    95    92    1
     2    93    92    1
     3    57    56    1
     4    92    91    1
     5    92    94    1
     6    91    85    1
     7    89    86    1
     8    26    25    1
     9    86    85   ar
    10    86    87   ar
    11    85    84   ar
    12    25    24    3
    13    60    59    1
    14    56    52    1
    15    56    58    1
    16    50    49    1
    17    59    53    1
    18    49    41    1
    19    87    82   ar
    20    24    17    1
    21    84    88    1
    22    84    83   ar
    23    44    40    1
    24    44    45    1
    25    68    69    1
    26    68    70    1
    27    68    61    1
    28    52    53   ar
    29    52    51   ar
    30    78    77    1
    31    53    54   ar
    32     6     5    1
    33    41    40   ar
    34    41    42   ar
    35    40    39   ar
    36    20    16    1
    37    51    42    1
    38    51    55   ar
    39    32    31    1
    40    42    43   ar
    41     7     1    1
    42    17    16   ar
    43    17    18   ar
    44    82    83   ar
    45    82    90    1
    46    83    76    1
    47    39    43   ar
    48    39    30    1
    49    54    55   ar
    50    54    62    1
    51    31    30   ar
    52    31    27   ar
    53     5     1   ar
    54     5     4   ar
    55    16    15   ar
    56    61    62   ar
    57    61    66   ar
    58    30    29   ar
    59    46    45    1
    60     1     2   ar
    61    18    27    1
    62    18    19   ar
    63    27    28   ar
    64    62    63   ar
    65    77    76   ar
    66    77    73   ar
    67    66    65   ar
    68    15     4    1
    69    15    14   ar
    70    19    14   ar
    71     4     3   ar
    72    29    28   ar
    73    29    36    1
    74    14    21    1
    75    45    47    1
    76    45    48    1
    77    28    33    1
    78    76    75   ar
    79    34    33    1
    80    63    67    1
    81    63    64   ar
    82     2     3   ar
    83     2     8    1
    84    65    73    1
    85    65    64   ar
    86    36    37    3
    87    21    22    3
    88     3    11    1
    89    73    74   ar
    90    64    71    1
    91    33    35    1
    92    37    38    1
    93    22    23    1
    94     8     9    3
    95    71    72    1
    96     9    10    1
    97    11    12    3
    98    75    74   ar
    99    75    81    1
   100    74    80    1
   101    12    13    1
   102    80    79    3
