@<TRIPOS>MOLECULE
mol_data/opt/m06hf/geoms/mol2/13ee4ad-4ea-12he-.out
 48 51 0 0 0
SMALL
GASTEIGER

@<TRIPOS>ATOM
      1 C           1.1579    0.2512    1.0144 C.ar    1  LIG1        0.0188
      2 C           0.9404    1.2005    0.0434 C.ar    1  LIG1        0.0579
      3 C          -0.4003    1.0118   -0.4323 C.ar    1  LIG1        0.0652
      4 C          -0.9378   -0.0500    0.2725 C.ar    1  LIG1        0.0633
      5 N           0.0255   -0.4918    1.1354 N.ar    1  LIG1       -0.3585
      6 H          -0.1238   -1.2113    1.8262 H       1  LIG1        0.1654
      7 H           2.0298    0.0701    1.6176 H       1  LIG1        0.0820
      8 C           1.8788    2.1823   -0.4106 C.1     1  LIG1       -0.0669
      9 C           2.6659    3.0066   -0.7900 C.1     1  LIG1       -0.1138
     10 H           3.3604    3.7394   -1.1292 H       1  LIG1        0.1232
     11 C          -1.0385    1.7646   -1.4689 C.1     1  LIG1       -0.0663
     12 C          -1.5709    2.4018   -2.3382 C.1     1  LIG1       -0.1138
     13 H          -2.0324    2.9656   -3.1156 H       1  LIG1        0.1232
     14 C          -3.4034    0.0764   -0.0861 C.ar    1  LIG1       -0.0519
     15 C          -4.6535   -0.5221   -0.1467 C.ar    1  LIG1       -0.0521
     16 C          -2.2642   -0.6868    0.1945 C.ar    1  LIG1        0.0008
     17 C          -4.8151   -1.8919    0.0791 C.ar    1  LIG1        0.0007
     18 H          -5.5276    0.0759   -0.3663 H       1  LIG1        0.0624
     19 C          -2.4041   -2.0562    0.4074 C.ar    1  LIG1       -0.0346
     20 C          -3.6682   -2.6454    0.3596 C.ar    1  LIG1        0.0601
     21 H          -1.5414   -2.6845    0.5879 H       1  LIG1        0.0637
     22 H          -3.2982    1.1391   -0.2585 H       1  LIG1        0.0624
     23 N          -3.7735   -5.2000    0.8240 N.1     1  LIG1       -0.1908
     24 C          -3.7538   -4.0709    0.6187 C.1     1  LIG1        0.0998
     25 C          -7.2516   -2.0211    0.7261 C.ar    1  LIG1        0.0331
     26 C          -8.5125   -2.6080    0.6044 C.ar    1  LIG1       -0.0350
     27 C          -6.1637   -2.5211   -0.0105 C.ar    1  LIG1       -0.0012
     28 C          -8.7079   -3.6892   -0.2563 C.ar    1  LIG1        0.0203
     29 H          -9.3313   -2.2387    1.2089 H       1  LIG1        0.0637
     30 C          -6.3706   -3.6166   -0.8517 C.ar    1  LIG1       -0.0522
     31 C          -7.6235   -4.1984   -0.9782 C.ar    1  LIG1       -0.0504
     32 H          -5.5393   -4.0073   -1.4246 H       1  LIG1        0.0624
     33 C          -7.0961   -0.9189    1.6499 C.1     1  LIG1       -0.0690
     34 C          -7.0008   -0.0081    2.4283 C.1     1  LIG1       -0.1139
     35 H          -6.9084    0.7934    3.1244 H       1  LIG1        0.1232
     36 H          -7.7703   -5.0434   -1.6373 H       1  LIG1        0.0625
     37 C         -10.0356   -4.2902   -0.3861 C.ar    1  LIG1        0.1566
     38 C         -11.2877   -3.8396   -0.0880 C.ar    1  LIG1        0.0865
     39 C         -12.1882   -4.9149   -0.4412 C.ar    1  LIG1        0.0836
     40 C         -11.4032   -5.9135   -0.9282 C.ar    1  LIG1        0.1098
     41 O         -10.1196   -5.5466   -0.9108 O.2     1  LIG1       -0.4598
     42 H         -11.6343   -6.8936   -1.3060 H       1  LIG1        0.1043
     43 N         -11.6703   -2.6117    0.4588 N.pl3   1  LIG1       -0.3541
     44 H         -11.2582   -1.8169   -0.0176 H       1  LIG1        0.1425
     45 H         -12.6790   -2.5226    0.5032 H       1  LIG1        0.1425
     46 C         -13.6121   -4.8787   -0.3025 C.1     1  LIG1       -0.0646
     47 C         -14.8043   -4.7979   -0.1721 C.1     1  LIG1       -0.1138
     48 H         -15.8622   -4.7422   -0.0571 H       1  LIG1        0.1232
@<TRIPOS>BOND
     1    13    12    1
     2    12    11    3
     3    36    31    1
     4    11     3    1
     5    32    30    1
     6    42    40    1
     7    10     9    1
     8    31    30   ar
     9    31    28   ar
    10    40    41   ar
    11    40    39   ar
    12    41    37   ar
    13    30    27   ar
    14     9     8    3
    15    39    46    1
    16    39    38   ar
    17     3     2   ar
    18     3     4   ar
    19     8     2    1
    20    37    28    1
    21    37    38   ar
    22    18    15    1
    23    46    47    3
    24    22    14    1
    25    28    26   ar
    26    47    48    1
    27    15    14   ar
    28    15    17   ar
    29    38    43    1
    30    14    16   ar
    31    44    43    1
    32    27    17    1
    33    27    25   ar
    34     2     1   ar
    35    17    20   ar
    36    16     4    1
    37    16    19   ar
    38     4     5   ar
    39    20    19   ar
    40    20    24    1
    41    19    21    1
    42    43    45    1
    43    26    25   ar
    44    26    29    1
    45    24    23    3
    46    25    33    1
    47     1     5   ar
    48     1     7    1
    49     5     6    1
    50    33    34    3
    51    34    35    1
