@<TRIPOS>MOLECULE
mol_data/opt/m06hf/geoms/mol2/13ee13ee-13ee-13ee.out
 50 53 0 0 0
SMALL
GASTEIGER

@<TRIPOS>ATOM
      1 C           1.2310   -0.2571   -0.1864 C.ar    1  LIG1        0.0189
      2 C           0.7826    0.9816   -0.5874 C.ar    1  LIG1        0.0580
      3 C          -0.6489    0.9338   -0.5529 C.ar    1  LIG1        0.0667
      4 C          -0.9996   -0.3391   -0.1314 C.ar    1  LIG1        0.0809
      5 N           0.1501   -1.0348    0.0823 N.ar    1  LIG1       -0.3574
      6 H           0.1612   -1.9945    0.4046 H       1  LIG1        0.1654
      7 H           2.2381   -0.6192   -0.0778 H       1  LIG1        0.0820
      8 C           1.5890    2.1013   -0.9694 C.1     1  LIG1       -0.0669
      9 C           2.2615    3.0422   -1.2945 C.1     1  LIG1       -0.1138
     10 H           2.8551    3.8769   -1.5867 H       1  LIG1        0.1232
     11 C          -1.5572    1.9875   -0.8875 C.1     1  LIG1       -0.0663
     12 C          -2.3411    2.8574   -1.1717 C.1     1  LIG1       -0.1138
     13 H          -3.0227    3.6377   -1.4257 H       1  LIG1        0.1232
     14 C          -2.3129   -0.9241    0.0839 C.ar    1  LIG1        0.0814
     15 C          -2.6874   -2.1655    0.5738 C.ar    1  LIG1        0.0674
     16 C          -4.1190   -2.2019    0.5881 C.ar    1  LIG1        0.0674
     17 C          -4.5519   -0.9853    0.0925 C.ar    1  LIG1        0.0814
     18 N          -3.4484   -0.2360   -0.1992 N.ar    1  LIG1       -0.3499
     19 H          -3.4503    0.6773   -0.6398 H       1  LIG1        0.1661
     20 C          -1.7999   -3.2004    1.0068 C.1     1  LIG1       -0.0662
     21 C          -1.0440   -4.0658    1.3667 C.1     1  LIG1       -0.1138
     22 H          -0.4051   -4.8515    1.6983 H       1  LIG1        0.1232
     23 C          -4.9317   -3.2654    1.0871 C.1     1  LIG1       -0.0662
     24 C          -5.6110   -4.1561    1.5194 C.1     1  LIG1       -0.1138
     25 H          -6.2229   -4.9398    1.9004 H       1  LIG1        0.1232
     26 C          -5.8817   -0.4162   -0.0871 C.ar    1  LIG1        0.0814
     27 C          -7.0606   -0.9430   -0.5829 C.ar    1  LIG1        0.0674
     28 C          -8.0228    0.1178   -0.5686 C.ar    1  LIG1        0.0674
     29 C          -7.3832    1.2457   -0.0784 C.ar    1  LIG1        0.0814
     30 N          -6.1015    0.8993    0.2047 N.ar    1  LIG1       -0.3499
     31 H          -5.4396    1.5284    0.6455 H       1  LIG1        0.1661
     32 C          -7.2688   -2.2650   -1.0822 C.1     1  LIG1       -0.0662
     33 C          -7.4440   -3.3714   -1.5147 C.1     1  LIG1       -0.1138
     34 H          -7.5884   -4.3550   -1.8960 H       1  LIG1        0.1232
     35 C          -9.3841    0.0454   -1.0017 C.1     1  LIG1       -0.0662
     36 C         -10.5320   -0.0052   -1.3617 C.1     1  LIG1       -0.1138
     37 H         -11.5414   -0.0858   -1.6934 H       1  LIG1        0.1232
     38 C          -7.8669    2.5996    0.1371 C.ar    1  LIG1        0.0809
     39 C          -7.1883    3.7321    0.5589 C.ar    1  LIG1        0.0667
     40 C          -8.1420    4.8007    0.5935 C.ar    1  LIG1        0.0580
     41 C          -9.3477    4.2699    0.1923 C.ar    1  LIG1        0.0189
     42 N          -9.1639    2.9510   -0.0766 N.ar    1  LIG1       -0.3574
     43 H          -9.8658    2.2965   -0.3992 H       1  LIG1        0.1654
     44 H         -10.3049    4.7484    0.0837 H       1  LIG1        0.0820
     45 C          -5.7989    3.8025    0.8936 C.1     1  LIG1       -0.0663
     46 C          -4.6284    3.8359    1.1779 C.1     1  LIG1       -0.1138
     47 H          -3.5934    3.8816    1.4321 H       1  LIG1        0.1232
     48 C          -7.8888    6.1570    0.9758 C.1     1  LIG1       -0.0669
     49 C          -7.6726    7.2930    1.3011 C.1     1  LIG1       -0.1138
     50 H          -7.4785    8.2987    1.5935 H       1  LIG1        0.1232
@<TRIPOS>BOND
     1    34    33    1
     2    37    36    1
     3    10     9    1
     4    33    32    3
     5    13    12    1
     6    36    35    3
     7     9     8    3
     8    12    11    3
     9    32    27    1
    10    35    28    1
    11     8     2    1
    12    11     3    1
    13    19    18    1
    14     2     3   ar
    15     2     1   ar
    16    27    28   ar
    17    27    26   ar
    18    28    29   ar
    19     3     4   ar
    20    43    42    1
    21    18    14   ar
    22    18    17   ar
    23     1     7    1
    24     1     5   ar
    25     4     5   ar
    26     4    14    1
    27    26    17    1
    28    26    30   ar
    29    29    38    1
    30    29    30   ar
    31    42    38   ar
    32    42    41   ar
    33     5     6    1
    34    44    41    1
    35    14    15   ar
    36    17    16   ar
    37    38    39   ar
    38    41    40   ar
    39    30    31    1
    40    39    40   ar
    41    39    45    1
    42    15    16   ar
    43    15    20    1
    44    16    23    1
    45    40    48    1
    46    45    46    3
    47    48    49    3
    48    20    21    3
    49    23    24    3
    50    46    47    1
    51    49    50    1
    52    21    22    1
    53    24    25    1
