@<TRIPOS>MOLECULE
mol_data/opt/m06hf/geoms/mol2/13ee13ee-13ee-13ee-.out
 50 53 0 0 0
SMALL
GASTEIGER

@<TRIPOS>ATOM
      1 C           1.1700   -0.1521   -0.6411 C.ar    1  LIG1        0.0189
      2 C           0.6553    1.0637   -1.0330 C.ar    1  LIG1        0.0580
      3 C          -0.7654    0.9827   -0.8689 C.ar    1  LIG1        0.0667
      4 C          -1.0441   -0.2842   -0.3823 C.ar    1  LIG1        0.0809
      5 N           0.1382   -0.9463   -0.2549 N.ar    1  LIG1       -0.3574
      6 H           0.2038   -1.8970    0.0867 H       1  LIG1        0.1654
      7 H           2.1917   -0.4875   -0.6141 H       1  LIG1        0.0820
      8 C           1.3943    2.1943   -1.5080 C.1     1  LIG1       -0.0669
      9 C           2.0096    3.1473   -1.9038 C.1     1  LIG1       -0.1138
     10 H           2.5534    3.9930   -2.2562 H       1  LIG1        0.1232
     11 C          -1.7230    2.0071   -1.1530 C.1     1  LIG1       -0.0663
     12 C          -2.5408    2.8578   -1.3936 C.1     1  LIG1       -0.1138
     13 H          -3.2401    3.6285   -1.6253 H       1  LIG1        0.1232
     14 C          -2.3159   -0.8939   -0.0273 C.ar    1  LIG1        0.0814
     15 C          -2.6068   -2.1458    0.4921 C.ar    1  LIG1        0.0674
     16 C          -4.0266   -2.2134    0.6620 C.ar    1  LIG1        0.0674
     17 C          -4.5377   -1.0041    0.2307 C.ar    1  LIG1        0.0814
     18 N          -3.4905   -0.2276   -0.1753 N.ar    1  LIG1       -0.3499
     19 H          -3.5616    0.6826   -0.6163 H       1  LIG1        0.1661
     20 C          -1.6567   -3.1652    0.8145 C.1     1  LIG1       -0.0662
     21 C          -0.8480   -4.0159    1.0818 C.1     1  LIG1       -0.1138
     22 H          -0.1581   -4.7893    1.3302 H       1  LIG1        0.1232
     23 C          -4.7682   -3.2989    1.2230 C.1     1  LIG1       -0.0662
     24 C          -5.3919   -4.2054    1.7042 C.1     1  LIG1       -0.1138
     25 H          -5.9551   -5.0051    2.1258 H       1  LIG1        0.1232
     26 C          -5.9057   -0.4940    0.2073 C.ar    1  LIG1        0.0814
     27 C          -7.0754   -1.0445   -0.2808 C.ar    1  LIG1        0.0674
     28 C          -8.1134   -0.0793   -0.0699 C.ar    1  LIG1        0.0674
     29 C          -7.5310    1.0206    0.5288 C.ar    1  LIG1        0.0814
     30 N          -6.2020    0.7497    0.6883 N.ar    1  LIG1       -0.3499
     31 H          -5.5313    1.3853    1.0948 H       1  LIG1        0.1661
     32 C          -7.2110   -2.3228   -0.9074 C.1     1  LIG1       -0.0662
     33 C          -7.3228   -3.3950   -1.4371 C.1     1  LIG1       -0.1138
     34 H          -7.4157   -4.3489   -1.9021 H       1  LIG1        0.1232
     35 C          -9.4964   -0.2217   -0.4053 C.1     1  LIG1       -0.0662
     36 C         -10.6577   -0.3414   -0.6863 C.1     1  LIG1       -0.1138
     37 H         -11.6876   -0.4424   -0.9387 H       1  LIG1        0.1232
     38 C          -8.1163    2.2841    0.9772 C.ar    1  LIG1        0.0809
     39 C          -8.8298    3.2380    0.2816 C.ar    1  LIG1        0.0667
     40 C          -9.1432    4.2855    1.2110 C.ar    1  LIG1        0.0580
     41 C          -8.6045    3.9223    2.4244 C.ar    1  LIG1        0.0189
     42 N          -7.9865    2.7217    2.2681 N.ar    1  LIG1       -0.3574
     43 H          -7.5805    2.1734    3.0109 H       1  LIG1        0.1654
     44 H          -8.6299    4.4358    3.3691 H       1  LIG1        0.0820
     45 C          -9.1637    3.1909   -1.1081 C.1     1  LIG1       -0.0663
     46 C          -9.4419    3.1477   -2.2754 C.1     1  LIG1       -0.1138
     47 H          -9.6962    3.1027   -3.3088 H       1  LIG1        0.1232
     48 C          -9.8687    5.4879    0.9309 C.1     1  LIG1       -0.0669
     49 C         -10.4776    6.4955    0.6930 C.1     1  LIG1       -0.1138
     50 H         -11.0203    7.3857    0.4754 H       1  LIG1        0.1232
@<TRIPOS>BOND
     1    47    46    1
     2    46    45    3
     3    10     9    1
     4     9     8    3
     5    34    33    1
     6    13    12    1
     7     8     2    1
     8    33    32    3
     9    12    11    3
    10    11     3    1
    11    45    39    1
    12     2     3   ar
    13     2     1   ar
    14    37    36    1
    15    32    27    1
    16     3     4   ar
    17    36    35    3
    18     1     7    1
    19     1     5   ar
    20    19    18    1
    21    35    28    1
    22     4     5   ar
    23     4    14    1
    24    27    28   ar
    25    27    26   ar
    26     5     6    1
    27    18    14   ar
    28    18    17   ar
    29    28    29   ar
    30    14    15   ar
    31    26    17    1
    32    26    30   ar
    33    17    16   ar
    34    39    38   ar
    35    39    40   ar
    36    50    49    1
    37    15    16   ar
    38    15    20    1
    39    29    30   ar
    40    29    38    1
    41    16    23    1
    42    30    31    1
    43    49    48    3
    44    20    21    3
    45    48    40    1
    46    38    42   ar
    47    21    22    1
    48    40    41   ar
    49    23    24    3
    50    24    25    1
    51    42    41   ar
    52    42    43    1
    53    41    44    1
