@<TRIPOS>MOLECULE
mol_data/opt/m06hf/geoms/mol2/13ee13ee13ee-13ee-.out
 50 53 0 0 0
SMALL
GASTEIGER

@<TRIPOS>ATOM
      1 C           1.1016    0.0031   -1.1009 C.ar    1  LIG1        0.0189
      2 C           0.8381    1.0956   -0.3066 C.ar    1  LIG1        0.0580
      3 C          -0.5372    1.0041    0.0932 C.ar    1  LIG1        0.0667
      4 C          -1.0463   -0.1417   -0.4836 C.ar    1  LIG1        0.0809
      5 N          -0.0369   -0.7336   -1.1945 N.ar    1  LIG1       -0.3574
      6 H          -0.1614   -1.5470   -1.7780 H       1  LIG1        0.1654
      7 H           2.0125   -0.2833   -1.5960 H       1  LIG1        0.0820
      8 C           1.7702    2.1177    0.0651 C.1     1  LIG1       -0.0669
      9 C           2.5524    2.9730    0.3806 C.1     1  LIG1       -0.1138
     10 H           3.2423    3.7325    0.6664 H       1  LIG1        0.1232
     11 C          -1.2412    1.8993    0.9581 C.1     1  LIG1       -0.0663
     12 C          -1.8326    2.6478    1.6879 C.1     1  LIG1       -0.1138
     13 H          -2.3620    3.3119    2.3308 H       1  LIG1        0.1232
     14 C          -2.3785   -0.7363   -0.4141 C.ar    1  LIG1        0.0814
     15 C          -3.6241   -0.1834   -0.6448 C.ar    1  LIG1        0.0674
     16 C          -4.5812   -1.2322   -0.4661 C.ar    1  LIG1        0.0674
     17 C          -3.8746   -2.3800   -0.1416 C.ar    1  LIG1        0.0814
     18 N          -2.5545   -2.0575   -0.1178 N.ar    1  LIG1       -0.3499
     19 H          -1.8286   -2.7006    0.1778 H       1  LIG1        0.1661
     20 C          -3.8971    1.1648   -1.0330 C.1     1  LIG1       -0.0662
     21 C          -4.1247    2.2963   -1.3646 C.1     1  LIG1       -0.1138
     22 H          -4.3167    3.3032   -1.6541 H       1  LIG1        0.1232
     23 C          -6.0005   -1.1303   -0.6166 C.1     1  LIG1       -0.0662
     24 C          -7.1953   -1.0554   -0.7472 C.1     1  LIG1       -0.1138
     25 H          -8.2475   -0.9504   -0.8818 H       1  LIG1        0.1232
     26 C          -4.3418   -3.7262    0.1467 C.ar    1  LIG1        0.0814
     27 C          -3.6351   -4.8740    0.4712 C.ar    1  LIG1        0.0674
     28 C          -4.5923   -5.9228    0.6499 C.ar    1  LIG1        0.0674
     29 C          -5.8378   -5.3699    0.4192 C.ar    1  LIG1        0.0814
     30 N          -5.6618   -4.0487    0.1230 N.ar    1  LIG1       -0.3499
     31 H          -6.3877   -3.4056   -0.1726 H       1  LIG1        0.1661
     32 C          -2.2159   -4.9759    0.6217 C.1     1  LIG1       -0.0662
     33 C          -1.0211   -5.0508    0.7523 C.1     1  LIG1       -0.1138
     34 H           0.0311   -5.1563    0.8868 H       1  LIG1        0.1232
     35 C          -4.3192   -7.2710    1.0381 C.1     1  LIG1       -0.0662
     36 C          -4.0917   -8.4025    1.3696 C.1     1  LIG1       -0.1138
     37 H          -3.8996   -9.4095    1.6588 H       1  LIG1        0.1232
     38 C          -7.1700   -5.9645    0.4888 C.ar    1  LIG1        0.0809
     39 C          -7.6791   -7.1102   -0.0881 C.ar    1  LIG1        0.0667
     40 C          -9.0545   -7.2018    0.3119 C.ar    1  LIG1        0.0580
     41 C          -9.3179   -6.1094    1.1063 C.ar    1  LIG1        0.0189
     42 N          -8.1794   -5.3726    1.1998 N.ar    1  LIG1       -0.3574
     43 H          -8.0549   -4.5593    1.7833 H       1  LIG1        0.1654
     44 H         -10.2288   -5.8230    1.6014 H       1  LIG1        0.0820
     45 C          -6.9752   -8.0054   -0.9531 C.1     1  LIG1       -0.0663
     46 C          -6.3838   -8.7537   -1.6831 C.1     1  LIG1       -0.1138
     47 H          -5.8544   -9.4177   -2.3261 H       1  LIG1        0.1232
     48 C          -9.9865   -8.2239   -0.0598 C.1     1  LIG1       -0.0669
     49 C         -10.7687   -9.0791   -0.3754 C.1     1  LIG1       -0.1138
     50 H         -11.4589   -9.8382   -0.6618 H       1  LIG1        0.1232
@<TRIPOS>BOND
     1    47    46    1
     2     6     5    1
     3    46    45    3
     4    22    21    1
     5     7     1    1
     6    21    20    3
     7     5     1   ar
     8     5     4   ar
     9     1     2   ar
    10    20    15    1
    11    45    39    1
    12    25    24    1
    13    24    23    3
    14    50    49    1
    15    15    16   ar
    16    15    14   ar
    17    23    16    1
    18     4    14    1
    19     4     3   ar
    20    16    17   ar
    21    14    18   ar
    22    49    48    3
    23     2     8    1
    24     2     3   ar
    25    31    30    1
    26    17    18   ar
    27    17    26    1
    28    18    19    1
    29    39    40   ar
    30    39    38   ar
    31    48    40    1
    32     8     9    3
    33     3    11    1
    34    30    26   ar
    35    30    29   ar
    36    26    27   ar
    37    40    41   ar
    38     9    10    1
    39    29    38    1
    40    29    28   ar
    41    27    32    1
    42    27    28   ar
    43    38    42   ar
    44    32    33    3
    45    28    35    1
    46    33    34    1
    47    11    12    3
    48    35    36    3
    49    41    42   ar
    50    41    44    1
    51    42    43    1
    52    36    37    1
    53    12    13    1
