@<TRIPOS>MOLECULE
mol_data/opt/m06hf/geoms/mol2/13ef13ef13ef.out
 35 37 0 0 0
SMALL
GASTEIGER

@<TRIPOS>ATOM
      1 C           1.2245   -0.1509    0.2206 C.ar    1  LIG1        0.0213
      2 C           0.7744    1.0261   -0.3417 C.ar    1  LIG1        0.0840
      3 C          -0.6526    0.9525   -0.3699 C.ar    1  LIG1        0.1589
      4 C          -1.0148   -0.2644    0.1703 C.ar    1  LIG1        0.1074
      5 N           0.1505   -0.9206    0.5182 N.ar    1  LIG1       -0.3554
      6 H           0.1770   -1.7658    1.0655 H       1  LIG1        0.1655
      7 H           2.2309   -0.4653    0.4327 H       1  LIG1        0.0820
      8 C           1.5792    2.1112   -0.8139 C.1     1  LIG1       -0.0645
      9 C           2.2571    3.0211   -1.2086 C.1     1  LIG1       -0.1137
     10 H           2.8484    3.8331   -1.5619 H       1  LIG1        0.1232
     11 O          -1.4387    1.9097   -0.9032 O.3     1  LIG1       -0.5035
     12 H          -2.2898    1.9455   -0.4416 H       1  LIG1        0.2923
     13 C          -2.3253   -0.8741    0.3226 C.ar    1  LIG1        0.0862
     14 C          -3.5408   -0.2935    0.6403 C.ar    1  LIG1        0.0935
     15 C          -4.5302   -1.3250    0.5895 C.ar    1  LIG1        0.1596
     16 C          -3.8869   -2.4968    0.2610 C.ar    1  LIG1        0.1079
     17 N          -2.5393   -2.2030    0.1114 N.ar    1  LIG1       -0.3478
     18 H          -1.8997   -2.7826   -0.4117 H       1  LIG1        0.1661
     19 C          -3.7358    1.0807    0.9766 C.1     1  LIG1       -0.0638
     20 C          -3.8609    2.2505    1.2355 C.1     1  LIG1       -0.1137
     21 H          -3.9864    3.2764    1.4957 H       1  LIG1        0.1232
     22 O          -5.8240   -1.1194    0.9016 O.3     1  LIG1       -0.5034
     23 H          -6.3932   -1.7411    0.4230 H       1  LIG1        0.2923
     24 C          -4.4017   -3.8508    0.1313 C.ar    1  LIG1        0.0857
     25 C          -5.6156   -4.2927   -0.3717 C.ar    1  LIG1        0.0928
     26 C          -5.6225   -5.7150   -0.2434 C.ar    1  LIG1        0.1501
     27 C          -4.4295   -6.0922    0.3129 C.ar    1  LIG1        0.0454
     28 N          -3.6992   -4.9426    0.5299 N.ar    1  LIG1       -0.3554
     29 H          -2.8377   -4.8942    1.0493 H       1  LIG1        0.1655
     30 H          -4.0479   -7.0652    0.5660 H       1  LIG1        0.0845
     31 C          -6.6358   -3.4608   -0.9247 C.1     1  LIG1       -0.0638
     32 C          -7.4800   -2.7231   -1.3661 C.1     1  LIG1       -0.1137
     33 H          -8.2243   -2.0882   -1.7888 H       1  LIG1        0.1232
     34 O          -6.6699   -6.4769   -0.6490 O.3     1  LIG1       -0.5040
     35 H          -6.4750   -7.4108   -0.5215 H       1  LIG1        0.2923
@<TRIPOS>BOND
     1    33    32    1
     2    10     9    1
     3    32    31    3
     4     9     8    3
     5    31    25    1
     6    11    12    1
     7    11     3    1
     8     8     2    1
     9    34    35    1
    10    34    26    1
    11    18    17    1
    12    25    26   ar
    13    25    24   ar
    14     3     2   ar
    15     3     4   ar
    16     2     1   ar
    17    26    27   ar
    18    17    16   ar
    19    17    13   ar
    20    24    16    1
    21    24    28   ar
    22     4    13    1
    23     4     5   ar
    24     1     7    1
    25     1     5   ar
    26    16    15   ar
    27    27    28   ar
    28    27    30    1
    29    13    14   ar
    30    23    22    1
    31     5     6    1
    32    28    29    1
    33    15    14   ar
    34    15    22    1
    35    14    19    1
    36    19    20    3
    37    20    21    1
