@<TRIPOS>MOLECULE
mol_data/opt/m06hf/geoms/mol2/13ef13ef13ef13ef.out
 46 49 0 0 0
SMALL
GASTEIGER

@<TRIPOS>ATOM
      1 C           0.6319    0.3210   -1.8804 C.ar    1  LIG1        0.0213
      2 C           0.7309    1.1307   -0.7681 C.ar    1  LIG1        0.0840
      3 C          -0.4273    0.8782    0.0309 C.ar    1  LIG1        0.1589
      4 C          -1.1782   -0.0781   -0.6187 C.ar    1  LIG1        0.1074
      5 N          -0.5082   -0.4053   -1.7827 N.ar    1  LIG1       -0.3554
      6 H          -0.9090   -0.9462   -2.5322 H       1  LIG1        0.1655
      7 H           1.2918    0.2392   -2.7262 H       1  LIG1        0.0820
      8 C           1.7902    2.0450   -0.4688 C.1     1  LIG1       -0.0645
      9 C           2.6811    2.8119   -0.2217 C.1     1  LIG1       -0.1137
     10 H           3.4651    3.4954    0.0053 H       1  LIG1        0.1232
     11 O          -0.6548    1.4593    1.2277 O.3     1  LIG1       -0.5035
     12 H          -1.6061    1.5795    1.3661 H       1  LIG1        0.2923
     13 C          -2.4116   -0.7328   -0.2097 C.ar    1  LIG1        0.0862
     14 C          -3.5356   -0.1956    0.4004 C.ar    1  LIG1        0.0935
     15 C          -4.4630   -1.2618    0.5948 C.ar    1  LIG1        0.1596
     16 C          -3.8813   -2.4100    0.1003 C.ar    1  LIG1        0.1079
     17 N          -2.6348   -2.0604   -0.3854 N.ar    1  LIG1       -0.3478
     18 H          -1.9845   -2.6945   -0.8214 H       1  LIG1        0.1661
     19 C          -3.7007    1.1797    0.7482 C.1     1  LIG1       -0.0638
     20 C          -3.7892    2.3444    1.0417 C.1     1  LIG1       -0.1137
     21 H          -3.8950    3.3766    1.2837 H       1  LIG1        0.1232
     22 O          -5.6584   -1.1103    1.1994 O.3     1  LIG1       -0.5034
     23 H          -6.3083   -1.7217    0.8211 H       1  LIG1        0.2923
     24 C          -4.3749   -3.7787    0.1043 C.ar    1  LIG1        0.0862
     25 C          -5.6521   -4.2529   -0.1565 C.ar    1  LIG1        0.0935
     26 C          -5.6178   -5.6707   -0.0022 C.ar    1  LIG1        0.1596
     27 C          -4.3283   -6.0167    0.3418 C.ar    1  LIG1        0.1079
     28 N          -3.5914   -4.8487    0.3963 N.ar    1  LIG1       -0.3478
     29 H          -2.6140   -4.7980    0.6356 H       1  LIG1        0.1661
     30 C          -6.7710   -3.4390   -0.5118 C.1     1  LIG1       -0.0638
     31 C          -7.6903   -2.7115   -0.7886 C.1     1  LIG1       -0.1137
     32 H          -8.5093   -2.0878   -1.0646 H       1  LIG1        0.1232
     33 O          -6.7007   -6.4613   -0.1419 O.3     1  LIG1       -0.5034
     34 H          -6.4452   -7.3298   -0.4884 H       1  LIG1        0.2923
     35 C          -3.7639   -7.3209    0.6577 C.ar    1  LIG1        0.0857
     36 C          -4.0018   -8.5468    0.0575 C.ar    1  LIG1        0.0928
     37 C          -3.2290   -9.5137    0.7692 C.ar    1  LIG1        0.1501
     38 C          -2.5457   -8.8567    1.7579 C.ar    1  LIG1        0.0454
     39 N          -2.8837   -7.5228    1.6726 N.ar    1  LIG1       -0.3554
     40 H          -2.6487   -6.8276    2.3633 H       1  LIG1        0.1655
     41 H          -1.8601   -9.2219    2.5022 H       1  LIG1        0.0845
     42 C          -4.8594   -8.7652   -1.0629 C.1     1  LIG1       -0.0638
     43 C          -5.6091   -8.9144   -1.9940 C.1     1  LIG1       -0.1137
     44 H          -6.2437   -9.0637   -2.8370 H       1  LIG1        0.1232
     45 O          -3.2223  -10.8284    0.4339 O.3     1  LIG1       -0.5040
     46 H          -2.6740  -11.3298    1.0457 H       1  LIG1        0.2923
@<TRIPOS>BOND
     1    44    43    1
     2     7     1    1
     3     6     5    1
     4    43    42    3
     5     1     5   ar
     6     1     2   ar
     7     5     4   ar
     8    32    31    1
     9    42    36    1
    10    18    17    1
    11    31    30    3
    12     2     8    1
    13     2     3   ar
    14     4    13    1
    15     4     3   ar
    16    30    25    1
    17    34    33    1
    18     8     9    3
    19    17    13   ar
    20    17    16   ar
    21     9    10    1
    22    13    14   ar
    23    25    26   ar
    24    25    24   ar
    25    33    26    1
    26    26    27   ar
    27     3    11    1
    28    36    35   ar
    29    36    37   ar
    30    16    24    1
    31    16    15   ar
    32    24    28   ar
    33    27    28   ar
    34    27    35    1
    35    28    29    1
    36    14    15   ar
    37    14    19    1
    38    45    37    1
    39    45    46    1
    40    15    22    1
    41    35    39   ar
    42    19    20    3
    43    37    38   ar
    44    23    22    1
    45    20    21    1
    46    11    12    1
    47    39    38   ar
    48    39    40    1
    49    38    41    1
