@<TRIPOS>MOLECULE
mol_data/opt/m06hf/geoms/mol2/13ef13ef-13ef.out
 35 37 0 0 0
SMALL
GASTEIGER

@<TRIPOS>ATOM
      1 C           1.2425   -0.3639    0.0122 C.ar    1  LIG1        0.0213
      2 C           0.8239    0.9560    0.0165 C.ar    1  LIG1        0.0840
      3 C          -0.5983    0.9260    0.0126 C.ar    1  LIG1        0.1589
      4 C          -0.9973   -0.3879    0.0061 C.ar    1  LIG1        0.1074
      5 N           0.1461   -1.1526    0.0060 N.ar    1  LIG1       -0.3554
      6 H           0.1345   -2.1633    0.0018 H       1  LIG1        0.1655
      7 H           2.2393   -0.7668    0.0133 H       1  LIG1        0.0820
      8 C           1.5952    2.1606    0.0236 C.1     1  LIG1       -0.0645
      9 C           2.1773    3.2137    0.0294 C.1     1  LIG1       -0.1137
     10 H           2.7072    4.1381    0.0346 H       1  LIG1        0.1232
     11 O          -1.4495    1.9859    0.0146 O.3     1  LIG1       -0.5035
     12 H          -0.9352    2.8034    0.0187 H       1  LIG1        0.2923
     13 C          -2.3384   -0.9343    0.0001 C.ar    1  LIG1        0.0862
     14 C          -2.7731   -2.2590   -0.0071 C.ar    1  LIG1        0.0935
     15 C          -4.1934   -2.2096   -0.0108 C.ar    1  LIG1        0.1596
     16 C          -4.5769   -0.8909   -0.0059 C.ar    1  LIG1        0.1079
     17 N          -3.4271   -0.1371    0.0007 N.ar    1  LIG1       -0.3478
     18 H          -3.3978    0.8797    0.0053 H       1  LIG1        0.1661
     19 C          -1.9792   -3.4455   -0.0103 C.1     1  LIG1       -0.0638
     20 C          -1.3357   -4.4652   -0.0132 C.1     1  LIG1       -0.1137
     21 H          -0.7787   -5.3735   -0.0158 H       1  LIG1        0.1232
     22 O          -5.0637   -3.2599   -0.0179 O.3     1  LIG1       -0.5034
     23 H          -4.5690   -4.0881   -0.0205 H       1  LIG1        0.2923
     24 C          -5.9157   -0.3339   -0.0071 C.ar    1  LIG1        0.0857
     25 C          -6.3474    0.9855   -0.0018 C.ar    1  LIG1        0.0928
     26 C          -7.7728    0.9413   -0.0063 C.ar    1  LIG1        0.1501
     27 C          -8.1554   -0.3754   -0.0141 C.ar    1  LIG1        0.0454
     28 N          -7.0073   -1.1337   -0.0144 N.ar    1  LIG1       -0.3554
     29 H          -6.9449   -2.1425   -0.0193 H       1  LIG1        0.1655
     30 H          -9.1326   -0.8239   -0.0193 H       1  LIG1        0.0845
     31 C          -5.5077    2.1413    0.0066 C.1     1  LIG1       -0.0638
     32 C          -4.7726    3.0947    0.0136 C.1     1  LIG1       -0.1137
     33 H          -4.1404    3.9514    0.0200 H       1  LIG1        0.1232
     34 O          -8.5382    2.0656   -0.0029 O.3     1  LIG1       -0.5040
     35 H          -9.4714    1.8302   -0.0095 H       1  LIG1        0.2923
@<TRIPOS>BOND
     1    23    22    1
     2    29    28    1
     3    30    27    1
     4    22    15    1
     5    21    20    1
     6    28    27   ar
     7    28    24   ar
     8    27    26   ar
     9    20    19    3
    10    15    14   ar
    11    15    16   ar
    12    19    14    1
    13    35    34    1
    14    14    13   ar
    15    24    16    1
    16    24    25   ar
    17    26    34    1
    18    26    25   ar
    19    16    17   ar
    20    25    31    1
    21    13    17   ar
    22    13     4    1
    23    17    18    1
    24     6     5    1
    25     5     4   ar
    26     5     1   ar
    27     4     3   ar
    28    31    32    3
    29     1     7    1
    30     1     2   ar
    31     3    11    1
    32     3     2   ar
    33    32    33    1
    34    11    12    1
    35     2     8    1
    36     8     9    3
    37     9    10    1
