@<TRIPOS>MOLECULE
mol_data/opt/m06hf/geoms/mol2/13ef13ef-13ef-13ef-.out
 46 49 0 0 0
SMALL
GASTEIGER

@<TRIPOS>ATOM
      1 C           1.2401   -0.2682   -0.5182 C.ar    1  LIG1        0.0213
      2 C           0.7175    0.9412   -0.9456 C.ar    1  LIG1        0.0840
      3 C          -0.6896    0.8560   -0.7603 C.ar    1  LIG1        0.1589
      4 C          -0.9774   -0.3799   -0.2360 C.ar    1  LIG1        0.1074
      5 N           0.2180   -1.0441   -0.0975 N.ar    1  LIG1       -0.3554
      6 H           0.2892   -1.9833    0.2683 H       1  LIG1        0.1655
      7 H           2.2625   -0.6014   -0.4934 H       1  LIG1        0.0820
      8 C           1.3869    2.0883   -1.4766 C.1     1  LIG1       -0.0645
      9 C           1.8860    3.0845   -1.9300 C.1     1  LIG1       -0.1137
     10 H           2.3464    3.9577   -2.3307 H       1  LIG1        0.1232
     11 O          -1.6243    1.8067   -1.0384 O.3     1  LIG1       -0.5035
     12 H          -1.1933    2.5609   -1.4606 H       1  LIG1        0.2923
     13 C          -2.2664   -0.9348    0.1212 C.ar    1  LIG1        0.0862
     14 C          -2.6111   -2.1772    0.6416 C.ar    1  LIG1        0.0935
     15 C          -4.0317   -2.1842    0.7779 C.ar    1  LIG1        0.1596
     16 C          -4.5028   -0.9702    0.3399 C.ar    1  LIG1        0.1079
     17 N          -3.4030   -0.2268   -0.0484 N.ar    1  LIG1       -0.3478
     18 H          -3.4228    0.6754   -0.5073 H       1  LIG1        0.1661
     19 C          -1.7318   -3.2451    0.9970 C.1     1  LIG1       -0.0638
     20 C          -1.0110   -4.1618    1.3047 C.1     1  LIG1       -0.1137
     21 H          -0.3849   -4.9787    1.5827 H       1  LIG1        0.1232
     22 O          -4.7900   -3.1843    1.2786 O.3     1  LIG1       -0.5034
     23 H          -4.2293   -3.9494    1.4531 H       1  LIG1        0.2923
     24 C          -5.8577   -0.4405    0.2881 C.ar    1  LIG1        0.0862
     25 C          -7.0333   -1.0245   -0.1597 C.ar    1  LIG1        0.0935
     26 C          -8.0643   -0.0504   -0.0089 C.ar    1  LIG1        0.1596
     27 C          -7.4998    1.0898    0.5090 C.ar    1  LIG1        0.1079
     28 N          -6.1552    0.8232    0.6842 N.ar    1  LIG1       -0.3478
     29 H          -5.4868    1.4835    1.0496 H       1  LIG1        0.1661
     30 C          -7.2382   -2.3288   -0.7042 C.1     1  LIG1       -0.0638
     31 C          -7.4849   -3.4071   -1.1769 C.1     1  LIG1       -0.1137
     32 H          -7.6807   -4.3696   -1.5880 H       1  LIG1        0.1232
     33 O          -9.3705   -0.2116   -0.3110 O.3     1  LIG1       -0.5034
     34 H          -9.4951   -1.0963   -0.6776 H       1  LIG1        0.2923
     35 C          -8.1015    2.3716    0.8550 C.ar    1  LIG1        0.0857
     36 C          -8.9388    3.1894    0.1162 C.ar    1  LIG1        0.0928
     37 C          -9.2325    4.3250    0.9312 C.ar    1  LIG1        0.1501
     38 C          -8.5713    4.1752    2.1197 C.ar    1  LIG1        0.0454
     39 N          -7.8864    2.9828    2.0510 N.ar    1  LIG1       -0.3554
     40 H          -7.4125    2.5442    2.8240 H       1  LIG1        0.1655
     41 H          -8.5420    4.8107    2.9850 H       1  LIG1        0.0845
     42 C          -9.4215    3.0065   -1.2158 C.1     1  LIG1       -0.0638
     43 C          -9.8612    2.9176   -2.3321 C.1     1  LIG1       -0.1137
     44 H         -10.2458    2.8090   -3.3192 H       1  LIG1        0.1232
     45 O         -10.0177    5.3743    0.5785 O.3     1  LIG1       -0.5040
     46 H         -10.3527    5.2159   -0.3132 H       1  LIG1        0.2923
@<TRIPOS>BOND
     1    44    43    1
     2    43    42    3
     3    10     9    1
     4     9     8    3
     5    32    31    1
     6     8     2    1
     7    12    11    1
     8    42    36    1
     9    31    30    3
    10    11     3    1
    11     2     3   ar
    12     2     1   ar
    13     3     4   ar
    14    30    25    1
    15    34    33    1
    16     1     7    1
    17     1     5   ar
    18    18    17    1
    19    46    45    1
    20    33    26    1
    21     4     5   ar
    22     4    13    1
    23    25    26   ar
    24    25    24   ar
    25     5     6    1
    26    17    13   ar
    27    17    16   ar
    28    26    27   ar
    29    36    35   ar
    30    36    37   ar
    31    13    14   ar
    32    24    16    1
    33    24    28   ar
    34    16    15   ar
    35    27    28   ar
    36    27    35    1
    37    45    37    1
    38    14    15   ar
    39    14    19    1
    40    28    29    1
    41    15    22    1
    42    35    39   ar
    43    37    38   ar
    44    19    20    3
    45    22    23    1
    46    20    21    1
    47    39    38   ar
    48    39    40    1
    49    38    41    1
