@<TRIPOS>MOLECULE
mol_data/opt/m06hf/geoms/mol2/13ef13ef-.out
 24 25 0 0 0
SMALL
GASTEIGER

@<TRIPOS>ATOM
      1 C           1.1691   -0.3342    0.0274 C.ar    1  LIG1        0.0213
      2 C           0.7423    0.9831    0.0296 C.ar    1  LIG1        0.0840
      3 C          -0.6795    0.9432    0.0156 C.ar    1  LIG1        0.1589
      4 C          -1.0704   -0.3725    0.0052 C.ar    1  LIG1        0.1074
      5 N           0.0770   -1.1292    0.0126 N.ar    1  LIG1       -0.3554
      6 H           0.0697   -2.1401    0.0075 H       1  LIG1        0.1655
      7 H           2.1686   -0.7301    0.0352 H       1  LIG1        0.0820
      8 C           1.5058    2.1925    0.0430 C.1     1  LIG1       -0.0645
      9 C           2.0803    3.2500    0.0540 C.1     1  LIG1       -0.1137
     10 H           2.6062    4.1767    0.0638 H       1  LIG1        0.1232
     11 O          -1.5387    2.0005    0.0125 O.3     1  LIG1       -0.5035
     12 H          -1.0278    2.8202    0.0214 H       1  LIG1        0.2923
     13 C          -2.4094   -0.9288   -0.0106 C.ar    1  LIG1        0.0857
     14 C          -2.8433   -2.2486   -0.0215 C.ar    1  LIG1        0.0928
     15 C          -4.2716   -2.2066   -0.0352 C.ar    1  LIG1        0.1501
     16 C          -4.6528   -0.8923   -0.0323 C.ar    1  LIG1        0.0454
     17 N          -3.5027   -0.1358   -0.0173 N.ar    1  LIG1       -0.3554
     18 H          -3.4416    0.8734   -0.0116 H       1  LIG1        0.1655
     19 H          -5.6336   -0.4555   -0.0397 H       1  LIG1        0.0845
     20 C          -2.0403   -3.4290   -0.0196 C.1     1  LIG1       -0.0638
     21 C          -1.3858   -4.4421   -0.0181 C.1     1  LIG1       -0.1137
     22 H          -0.8190   -5.3446   -0.0173 H       1  LIG1        0.1232
     23 O          -5.1061   -3.2783   -0.0487 O.3     1  LIG1       -0.5040
     24 H          -4.5777   -4.0851   -0.0482 H       1  LIG1        0.2923
@<TRIPOS>BOND
     1    23    24    1
     2    23    15    1
     3    19    16    1
     4    15    16   ar
     5    15    14   ar
     6    16    17   ar
     7    14    20    1
     8    14    13   ar
     9    20    21    3
    10    21    22    1
    11    17    18    1
    12    17    13   ar
    13    13     4    1
    14     4     5   ar
    15     4     3   ar
    16     6     5    1
    17    11     3    1
    18    11    12    1
    19     5     1   ar
    20     3     2   ar
    21     1     2   ar
    22     1     7    1
    23     2     8    1
    24     8     9    3
    25     9    10    1
