@<TRIPOS>MOLECULE
mol_data/opt/m06hf/geoms/mol2/13ef13ef13ef-13ef.out
 46 49 0 0 0
SMALL
GASTEIGER

@<TRIPOS>ATOM
      1 C           1.2010   -0.0693   -0.7158 C.ar    1  LIG1        0.0213
      2 C           0.8899    1.0335    0.0538 C.ar    1  LIG1        0.0840
      3 C          -0.5053    0.9506    0.3486 C.ar    1  LIG1        0.1589
      4 C          -0.9872   -0.1968   -0.2459 C.ar    1  LIG1        0.1074
      5 N           0.0760   -0.8019   -0.8879 N.ar    1  LIG1       -0.3554
      6 H          -0.0174   -1.5841   -1.5162 H       1  LIG1        0.1655
      7 H           2.1423   -0.3542   -1.1517 H       1  LIG1        0.0820
      8 C           1.7903    2.0597    0.4826 C.1     1  LIG1       -0.0645
      9 C           2.5483    2.9200    0.8410 C.1     1  LIG1       -0.1137
     10 H           3.2120    3.6869    1.1647 H       1  LIG1        0.1232
     11 O          -1.1550    1.8424    1.1274 O.3     1  LIG1       -0.5035
     12 H          -2.0861    1.9003    0.8742 H       1  LIG1        0.2923
     13 C          -2.3122   -0.7934   -0.2140 C.ar    1  LIG1        0.0862
     14 C          -3.5622   -0.1834   -0.2471 C.ar    1  LIG1        0.0935
     15 C          -4.5288   -1.2251   -0.1769 C.ar    1  LIG1        0.1596
     16 C          -3.8585   -2.4214   -0.1152 C.ar    1  LIG1        0.1079
     17 N          -2.5121   -2.1309   -0.1380 N.ar    1  LIG1       -0.3478
     18 H          -1.7908   -2.8248    0.0119 H       1  LIG1        0.1661
     19 C          -3.8349    1.2137   -0.3479 C.1     1  LIG1       -0.0638
     20 C          -4.0721    2.3940   -0.4107 C.1     1  LIG1       -0.1137
     21 H          -4.2809    3.4362   -0.4929 H       1  LIG1        0.1232
     22 O          -5.8823   -1.1107   -0.1871 O.3     1  LIG1       -0.5034
     23 H          -6.1289   -0.1784   -0.2059 H       1  LIG1        0.2923
     24 C          -4.3804   -3.7684   -0.0292 C.ar    1  LIG1        0.0862
     25 C          -3.7008   -4.9820    0.0733 C.ar    1  LIG1        0.0935
     26 C          -4.6991   -5.9911    0.1363 C.ar    1  LIG1        0.1596
     27 C          -5.9288   -5.3819    0.0720 C.ar    1  LIG1        0.1079
     28 N          -5.7048   -4.0296   -0.0302 N.ar    1  LIG1       -0.3478
     29 H          -6.4382   -3.3278   -0.0943 H       1  LIG1        0.1661
     30 C          -2.2907   -5.1994    0.1219 C.1     1  LIG1       -0.0638
     31 C          -1.1047   -5.4131    0.1706 C.1     1  LIG1       -0.1137
     32 H          -0.0594   -5.6157    0.2236 H       1  LIG1        0.1232
     33 O          -4.5169   -7.3384    0.2427 O.3     1  LIG1       -0.5034
     34 H          -3.5789   -7.5286    0.3627 H       1  LIG1        0.2923
     35 C          -7.2454   -5.9883    0.1028 C.ar    1  LIG1        0.0857
     36 C          -8.5071   -5.4126    0.0418 C.ar    1  LIG1        0.0928
     37 C          -9.4420   -6.4868    0.1183 C.ar    1  LIG1        0.1501
     38 C          -8.7340   -7.6565    0.2220 C.ar    1  LIG1        0.0454
     39 N          -7.3983   -7.3284    0.2103 N.ar    1  LIG1       -0.3554
     40 H          -6.6153   -7.9641    0.2752 H       1  LIG1        0.1655
     41 H          -9.0696   -8.6751    0.3008 H       1  LIG1        0.0845
     42 C          -8.7885   -4.0171   -0.0751 C.1     1  LIG1       -0.0638
     43 C          -8.9986   -2.8356   -0.1744 C.1     1  LIG1       -0.1137
     44 H          -9.2143   -1.7968   -0.2632 H       1  LIG1        0.1232
     45 O         -10.7872   -6.2900    0.0862 O.3     1  LIG1       -0.5040
     46 H         -11.2466   -7.1331    0.1527 H       1  LIG1        0.2923
@<TRIPOS>BOND
     1     6     5    1
     2     7     1    1
     3     5     1   ar
     4     5     4   ar
     5     1     2   ar
     6    21    20    1
     7    20    19    3
     8    19    14    1
     9    44    43    1
    10    14    13   ar
    11    14    15   ar
    12     4    13    1
    13     4     3   ar
    14    13    17   ar
    15    23    22    1
    16    22    15    1
    17    15    16   ar
    18    43    42    3
    19    17    16   ar
    20    17    18    1
    21    16    24    1
    22    29    28    1
    23    42    36    1
    24    28    24   ar
    25    28    27   ar
    26    24    25   ar
    27    36    35   ar
    28    36    37   ar
    29     2     3   ar
    30     2     8    1
    31    27    35    1
    32    27    26   ar
    33    25    30    1
    34    25    26   ar
    35    45    37    1
    36    45    46    1
    37    35    39   ar
    38    37    38   ar
    39    30    31    3
    40    26    33    1
    41    31    32    1
    42    39    38   ar
    43    39    40    1
    44    38    41    1
    45    33    34    1
    46     3    11    1
    47     8     9    3
    48     9    10    1
    49    12    11    1
