@<TRIPOS>MOLECULE
mol_data/opt/m06hf/geoms/mol2/13ef13ef-4ef13ef.out
 48 51 0 0 0
SMALL
GASTEIGER

@<TRIPOS>ATOM
      1 C           1.3832   -0.4533    0.0959 C.ar    1  LIG1        0.0213
      2 C           0.9908    0.8720    0.1789 C.ar    1  LIG1        0.0840
      3 C          -0.4312    0.8724    0.1352 C.ar    1  LIG1        0.1589
      4 C          -0.8552   -0.4295    0.0302 C.ar    1  LIG1        0.1074
      5 N           0.2730   -1.2160    0.0051 N.ar    1  LIG1       -0.3554
      6 H           0.2446   -2.2235   -0.0711 H       1  LIG1        0.1655
      7 H           2.3723   -0.8758    0.0963 H       1  LIG1        0.0820
      8 C           1.7894    2.0521    0.3010 C.1     1  LIG1       -0.0645
      9 C           2.4039    3.0806    0.4109 C.1     1  LIG1       -0.1137
     10 H           2.9662    3.9804    0.5072 H       1  LIG1        0.1232
     11 O          -1.2590    1.9509    0.1828 O.3     1  LIG1       -0.5035
     12 H          -0.7391    2.7354    0.3988 H       1  LIG1        0.2923
     13 C          -2.2042   -0.9534   -0.0287 C.ar    1  LIG1        0.0862
     14 C          -2.6563   -2.2697   -0.0917 C.ar    1  LIG1        0.0934
     15 C          -4.0739   -2.2043   -0.1230 C.ar    1  LIG1        0.1581
     16 C          -4.4524   -0.8751   -0.0845 C.ar    1  LIG1        0.0915
     17 N          -3.2798   -0.1475   -0.0245 N.ar    1  LIG1       -0.3490
     18 H          -3.2292    0.8666    0.0026 H       1  LIG1        0.1661
     19 C          -1.8850   -3.4698   -0.1229 C.1     1  LIG1       -0.0638
     20 C          -1.2668   -4.5047   -0.1521 C.1     1  LIG1       -0.1137
     21 H          -0.7278   -5.4236   -0.1773 H       1  LIG1        0.1232
     22 O          -4.9057   -3.2784   -0.1840 O.3     1  LIG1       -0.5035
     23 H          -4.3701   -4.0808   -0.2205 H       1  LIG1        0.2923
     24 C          -6.0706    1.0695   -0.3238 C.ar    1  LIG1        0.0347
     25 C          -7.3852    1.5399   -0.2880 C.ar    1  LIG1       -0.0330
     26 C          -5.7974   -0.2901   -0.0779 C.ar    1  LIG1        0.0208
     27 C          -8.4686    0.7092   -0.0125 C.ar    1  LIG1        0.0422
     28 H          -7.5620    2.5877   -0.4859 H       1  LIG1        0.0638
     29 C          -6.8831   -1.1302    0.1866 C.ar    1  LIG1       -0.0091
     30 C          -8.1821   -0.6489    0.2076 C.ar    1  LIG1        0.1267
     31 H          -6.7004   -2.1812    0.3749 H       1  LIG1        0.0661
     32 C          -5.0394    2.0273   -0.6515 C.1     1  LIG1       -0.0690
     33 C          -4.2031    2.8470   -0.9315 C.1     1  LIG1       -0.1139
     34 H          -3.4564    3.5600   -1.1952 H       1  LIG1        0.1232
     35 O          -9.2237   -1.5030    0.4540 O.3     1  LIG1       -0.5061
     36 H          -8.8945   -2.3973    0.5926 H       1  LIG1        0.2922
     37 C          -9.8374    1.2552    0.0224 C.ar    1  LIG1        0.0692
     38 C         -10.2792    2.5767    0.1028 C.ar    1  LIG1        0.0913
     39 C         -11.7015    2.5345    0.0689 C.ar    1  LIG1        0.1500
     40 C         -12.0840    1.2203   -0.0250 C.ar    1  LIG1        0.0454
     41 N         -10.9403    0.4693   -0.0511 N.ar    1  LIG1       -0.3565
     42 H         -10.8838   -0.5379   -0.0736 H       1  LIG1        0.1655
     43 H         -13.0611    0.7723   -0.0705 H       1  LIG1        0.0845
     44 C          -9.5129    3.7769    0.2332 C.1     1  LIG1       -0.0639
     45 C          -8.8899    4.7998    0.3470 C.1     1  LIG1       -0.1137
     46 H          -8.3451    5.7077    0.4588 H       1  LIG1        0.1232
     47 O         -12.4699    3.6559    0.1254 O.3     1  LIG1       -0.5040
     48 H         -13.4016    3.4164    0.1207 H       1  LIG1        0.2923
@<TRIPOS>BOND
     1    34    33    1
     2    33    32    3
     3    32    24    1
     4    28    25    1
     5    24    25   ar
     6    24    26   ar
     7    25    27   ar
     8    23    22    1
     9    22    15    1
    10    21    20    1
    11    20    19    3
    12    15    14   ar
    13    15    16   ar
    14    19    14    1
    15    14    13   ar
    16    16    26    1
    17    16    17   ar
    18    26    29   ar
    19    42    41    1
    20     6     5    1
    21    43    40    1
    22    41    40   ar
    23    41    37   ar
    24    13    17   ar
    25    13     4    1
    26    40    39   ar
    27    17    18    1
    28    27    37    1
    29    27    30   ar
    30     5     4   ar
    31     5     1   ar
    32    37    38   ar
    33     4     3   ar
    34    39    38   ar
    35    39    47    1
    36     1     7    1
    37     1     2   ar
    38    38    44    1
    39    48    47    1
    40     3     2   ar
    41     3    11    1
    42     2     8    1
    43    11    12    1
    44    29    30   ar
    45    29    31    1
    46    30    35    1
    47    44    45    3
    48     8     9    3
    49    45    46    1
    50     9    10    1
    51    35    36    1
