@<TRIPOS>MOLECULE
mol_data/opt/m06hf/geoms/mol2/13ef4ed-6if-6di.out
 52 55 0 0 0
SMALL
GASTEIGER

@<TRIPOS>ATOM
      1 C           1.3031   -0.1668   -0.6881 C.ar    1  LIG1        0.0213
      2 C           0.9640    1.1404   -0.4030 C.ar    1  LIG1        0.0839
      3 C          -0.4270    1.1445   -0.0856 C.ar    1  LIG1        0.1574
      4 C          -0.8868   -0.1560   -0.1910 C.ar    1  LIG1        0.0909
      5 N           0.1935   -0.9294   -0.5698 N.ar    1  LIG1       -0.3566
      6 H           0.1765   -1.9360   -0.6155 H       1  LIG1        0.1655
      7 H           2.2604   -0.5842   -0.9468 H       1  LIG1        0.0820
      8 C           1.8346    2.2759   -0.4258 C.1     1  LIG1       -0.0645
      9 C           2.5718    3.2241   -0.4470 C.1     1  LIG1       -0.1137
     10 H           3.2183    4.0698   -0.4666 H       1  LIG1        0.1232
     11 O          -1.1212    2.2750    0.1725 O.3     1  LIG1       -0.5035
     12 H          -1.7779    2.1085    0.8620 H       1  LIG1        0.2923
     13 C          -3.1482   -0.3870    0.9067 C.ar    1  LIG1        0.0345
     14 C          -4.4273   -0.9540    0.9405 C.ar    1  LIG1       -0.0367
     15 C          -2.2329   -0.7339   -0.1035 C.ar    1  LIG1        0.0185
     16 C          -4.8210   -1.8986    0.0012 C.ar    1  LIG1        0.0025
     17 H          -5.1091   -0.6716    1.7319 H       1  LIG1        0.0636
     18 C          -2.6373   -1.6740   -1.0575 C.ar    1  LIG1       -0.0333
     19 C          -3.9008   -2.2512   -0.9977 C.ar    1  LIG1        0.0602
     20 H          -1.9757   -1.9302   -1.8747 H       1  LIG1        0.0637
     21 C          -2.7778    0.5281    1.9592 C.1     1  LIG1       -0.0690
     22 C          -2.4835    1.2869    2.8462 C.1     1  LIG1       -0.1139
     23 H          -2.2152    1.9399    3.6458 H       1  LIG1        0.1232
     24 N          -4.5563   -3.9738   -2.8280 N.1     1  LIG1       -0.1908
     25 C          -4.2776   -3.2098   -2.0185 C.1     1  LIG1        0.0998
     26 C          -6.3879   -3.8587    0.3447 C.ar    1  LIG1        0.0469
     27 C          -6.1883   -2.4951    0.0554 C.ar    1  LIG1        0.0079
     28 C          -7.2912   -1.6765   -0.1524 C.ar    1  LIG1       -0.0086
     29 C          -8.5657   -2.2282   -0.0941 C.ar    1  LIG1        0.1434
     30 C          -8.6732   -3.5973    0.1603 C.ar    1  LIG1        0.1153
     31 N          -7.6134   -4.3670    0.3842 N.ar    1  LIG1       -0.2475
     32 H          -7.1814   -0.6193   -0.3587 H       1  LIG1        0.0661
     33 C          -5.2563   -4.8209    0.6410 C.3     1  LIG1       -0.0217
     34 H          -4.4098   -4.3053    1.0939 H       1  LIG1        0.0293
     35 H          -4.9293   -5.3034   -0.2824 H       1  LIG1        0.0293
     36 H          -5.6376   -5.5788    1.3227 H       1  LIG1        0.0293
     37 O          -9.6370   -1.4159   -0.2863 O.3     1  LIG1       -0.5046
     38 H         -10.4412   -1.8369    0.0428 H       1  LIG1        0.2922
     39 C         -10.3799   -5.0685    1.2961 C.ar    1  LIG1        0.1493
     40 C         -10.0096   -4.2595    0.2138 C.ar    1  LIG1        0.0400
     41 C         -10.9331   -4.1267   -0.8217 C.ar    1  LIG1       -0.0454
     42 C         -12.1596   -4.7863   -0.7578 C.ar    1  LIG1       -0.0316
     43 C         -12.4025   -5.5644    0.3752 C.ar    1  LIG1        0.0320
     44 N         -11.5413   -5.7037    1.3786 N.ar    1  LIG1       -0.2437
     45 H         -10.6799   -3.5237   -1.6882 H       1  LIG1        0.0628
     46 H         -13.3389   -6.1006    0.4788 H       1  LIG1        0.0832
     47 N          -8.8064   -5.3264    3.3582 N.1     1  LIG1       -0.1893
     48 C          -9.4848   -5.2234    2.4399 C.1     1  LIG1        0.1198
     49 C         -13.1726   -4.6833   -1.8790 C.3     1  LIG1       -0.0383
     50 H         -14.1042   -5.1719   -1.5980 H       1  LIG1        0.0278
     51 H         -12.7822   -5.1629   -2.7778 H       1  LIG1        0.0278
     52 H         -13.3791   -3.6373   -2.1077 H       1  LIG1        0.0278
@<TRIPOS>BOND
     1    24    25    3
     2    51    49    1
     3    52    49    1
     4    25    19    1
     5    49    50    1
     6    49    42    1
     7    20    18    1
     8    45    41    1
     9    18    19   ar
    10    18    15   ar
    11    19    16   ar
    12     7     1    1
    13    41    42   ar
    14    41    40   ar
    15    42    43   ar
    16     1     5   ar
    17     1     2   ar
    18     6     5    1
    19     5     4   ar
    20    10     9    1
    21     9     8    3
    22     8     2    1
    23     2     3   ar
    24    32    28    1
    25    37    29    1
    26    37    38    1
    27    35    33    1
    28     4    15    1
    29     4     3   ar
    30    28    29   ar
    31    28    27   ar
    32    15    13   ar
    33    29    30   ar
    34     3    11    1
    35    16    27    1
    36    16    14   ar
    37    27    26   ar
    38    30    40    1
    39    30    31   ar
    40    11    12    1
    41    40    39   ar
    42    26    31   ar
    43    26    33    1
    44    43    46    1
    45    43    44   ar
    46    33    34    1
    47    33    36    1
    48    13    14   ar
    49    13    21    1
    50    14    17    1
    51    39    44   ar
    52    39    48    1
    53    21    22    3
    54    48    47    3
    55    22    23    1
