@<TRIPOS>MOLECULE
mol_data/opt/m06hf/geoms/mol2/13ef4fd13li-4id-.out
 53 56 0 0 0
SMALL
GASTEIGER

@<TRIPOS>ATOM
      1 C           0.3031    0.4732    2.3630 C.ar    1  LIG1        0.0189
      2 C           0.6010    1.1893    1.2262 C.ar    1  LIG1        0.0580
      3 C          -0.4412    0.9248    0.2768 C.ar    1  LIG1        0.0667
      4 C          -1.3266    0.0599    0.8857 C.ar    1  LIG1        0.0810
      5 N          -0.8542   -0.2062    2.1436 N.ar    1  LIG1       -0.3574
      6 H          -1.3608   -0.7332    2.8381 H       1  LIG1        0.1654
      7 H           0.8336    0.4156    3.2968 H       1  LIG1        0.0820
      8 C           1.7418    2.0320    1.0296 C.1     1  LIG1       -0.0669
      9 C           2.6979    2.7395    0.8644 C.1     1  LIG1       -0.1138
     10 H           3.5422    3.3705    0.7120 H       1  LIG1        0.1232
     11 C          -0.5499    1.4342   -1.0544 C.1     1  LIG1       -0.0663
     12 C          -0.6540    1.8641   -2.1706 C.1     1  LIG1       -0.1138
     13 H          -0.7577    2.2573   -3.1549 H       1  LIG1        0.1232
     14 C          -2.5511   -0.5501    0.3733 C.ar    1  LIG1        0.0834
     15 C          -3.6551    0.0103   -0.2358 C.ar    1  LIG1        0.0944
     16 C          -4.5773   -1.0437   -0.5261 C.ar    1  LIG1        0.0680
     17 C          -3.9980   -2.2158   -0.0773 C.ar    1  LIG1        0.0673
     18 N          -2.7834   -1.8915    0.4551 N.ar    1  LIG1       -0.3509
     19 H          -2.1323   -2.5656    0.8308 H       1  LIG1        0.1660
     20 N          -4.0428    2.5162   -0.7140 N.1     1  LIG1       -0.1908
     21 C          -3.8574    1.4041   -0.5000 C.1     1  LIG1        0.1026
     22 C          -5.8375   -0.9045   -1.1880 C.1     1  LIG1       -0.0662
     23 C          -6.8845   -0.7589   -1.7594 C.1     1  LIG1       -0.1138
     24 H          -7.8048   -0.6128   -2.2754 H       1  LIG1        0.1232
     25 C          -5.7605   -3.9514    0.2347 C.ar    1  LIG1        0.1298
     26 C          -6.2099   -5.2634    0.0987 C.ar    1  LIG1       -0.0115
     27 C          -4.4550   -3.6155   -0.1607 C.ar    1  LIG1        0.0412
     28 C          -5.3567   -6.2576   -0.3916 C.ar    1  LIG1       -0.0111
     29 H          -7.2236   -5.5285    0.3675 H       1  LIG1        0.0660
     30 C          -3.6139   -4.6139   -0.6480 C.ar    1  LIG1       -0.0485
     31 C          -4.0492   -5.9304   -0.7581 C.ar    1  LIG1       -0.0531
     32 H          -2.6157   -4.3473   -0.9751 H       1  LIG1        0.0625
     33 O          -6.5078   -2.9521    0.7464 O.3     1  LIG1       -0.4944
     34 C          -7.9165   -3.0983    0.7595 C.3     1  LIG1        0.0788
     35 H          -8.3089   -2.1187    1.0167 H       1  LIG1        0.0660
     36 H          -8.2729   -3.3947   -0.2297 H       1  LIG1        0.0660
     37 H          -8.2255   -3.8312    1.5088 H       1  LIG1        0.0660
     38 H          -3.3908   -6.7005   -1.1385 H       1  LIG1        0.0624
     39 C          -5.6999   -8.4182   -1.6809 C.ar    1  LIG1        0.1239
     40 C          -5.8482   -7.6623   -0.4920 C.ar    1  LIG1        0.0220
     41 C          -6.4775   -8.2794    0.5782 C.ar    1  LIG1       -0.0464
     42 C          -6.9329   -9.5978    0.4894 C.ar    1  LIG1       -0.0316
     43 C          -6.7188  -10.2354   -0.7251 C.ar    1  LIG1        0.0326
     44 N          -6.1315   -9.6699   -1.7795 N.ar    1  LIG1       -0.2398
     45 H          -6.5948   -7.7272    1.5054 H       1  LIG1        0.0628
     46 H          -7.0425  -11.2614   -0.8650 H       1  LIG1        0.0833
     47 N          -5.0729   -7.8964   -2.7943 N.pl3   1  LIG1       -0.3427
     48 H          -5.2269   -8.4450   -3.6285 H       1  LIG1        0.1437
     49 H          -5.1118   -6.8943   -2.9160 H       1  LIG1        0.1437
     50 C          -7.6097  -10.2919    1.6545 C.3     1  LIG1       -0.0383
     51 H          -7.8939  -11.3065    1.3763 H       1  LIG1        0.0278
     52 H          -8.5092   -9.7522    1.9545 H       1  LIG1        0.0278
     53 H          -6.9378  -10.3452    2.5126 H       1  LIG1        0.0278
@<TRIPOS>BOND
     1    48    47    1
     2    13    12    1
     3    49    47    1
     4    47    39    1
     5    24    23    1
     6    12    11    3
     7    44    39   ar
     8    44    43   ar
     9    23    22    3
    10    39    40   ar
    11    22    16    1
    12    38    31    1
    13    11     3    1
    14    32    30    1
    15    46    43    1
    16    31    30   ar
    17    31    28   ar
    18    43    42   ar
    19    20    21    3
    20    30    27   ar
    21    16    15   ar
    22    16    17   ar
    23    21    15    1
    24    40    28    1
    25    40    41   ar
    26    28    26   ar
    27    15    14   ar
    28    36    34    1
    29    27    17    1
    30    27    25   ar
    31    17    18   ar
    32    26    25   ar
    33    26    29    1
    34    25    33    1
    35     3     4   ar
    36     3     2   ar
    37    14    18   ar
    38    14     4    1
    39    18    19    1
    40    42    41   ar
    41    42    50    1
    42    41    45    1
    43    10     9    1
    44    33    34    1
    45    34    35    1
    46    34    37    1
    47     9     8    3
    48     4     5   ar
    49     8     2    1
    50     2     1   ar
    51    51    50    1
    52    50    52    1
    53    50    53    1
    54     5     1   ar
    55     5     6    1
    56     1     7    1
