@<TRIPOS>MOLECULE
mol_data/opt/m06hf/geoms/mol2/13ef13le12ae4la-.out
 55 58 0 0 0
SMALL
GASTEIGER

@<TRIPOS>ATOM
      1 C         -10.3356    0.4945   12.1678 C.ar    1  LIG1        0.0213
      2 C         -10.9888    1.6303   11.7326 C.ar    1  LIG1        0.0839
      3 C         -11.1786    1.4830   10.3225 C.ar    1  LIG1        0.1574
      4 C         -10.6289    0.2674    9.9524 C.ar    1  LIG1        0.0916
      5 N         -10.1307   -0.3147   11.1033 N.ar    1  LIG1       -0.3565
      6 H          -9.5922   -1.1654   11.1154 H       1  LIG1        0.1655
      7 H         -10.0016    0.2363   13.1576 H       1  LIG1        0.0820
      8 C         -11.4035    2.7390   12.5373 C.1     1  LIG1       -0.0645
      9 C         -11.7464    3.6688   13.2174 C.1     1  LIG1       -0.1137
     10 H         -12.0554    4.4970   13.8111 H       1  LIG1        0.1232
     11 O         -11.8219    2.3732    9.5460 O.3     1  LIG1       -0.5035
     12 H         -11.4493    2.2926    8.6331 H       1  LIG1        0.2923
     13 C         -10.4420    0.2854    7.4641 C.ar    1  LIG1        0.0347
     14 C         -10.4955   -0.3868    6.2481 C.ar    1  LIG1       -0.0292
     15 C         -10.6344   -0.4250    8.6569 C.ar    1  LIG1        0.0260
     16 C         -10.7208   -1.7608    6.1667 C.ar    1  LIG1        0.0254
     17 H         -10.3284    0.1622    5.3284 H       1  LIG1        0.0643
     18 C         -10.8335   -1.8062    8.5850 C.ar    1  LIG1       -0.0086
     19 C         -10.8730   -2.4710    7.3654 C.ar    1  LIG1        0.1253
     20 H         -11.0183   -2.3605    9.4991 H       1  LIG1        0.0661
     21 N         -10.2121    1.6915    7.5289 N.pl3   1  LIG1       -0.3574
     22 H          -9.4286    1.9077    8.1445 H       1  LIG1        0.1423
     23 H         -10.0526    2.1004    6.6149 H       1  LIG1        0.1423
     24 O         -11.0813   -3.8191    7.2985 O.3     1  LIG1       -0.5061
     25 H         -11.4058   -4.1497    8.1426 H       1  LIG1        0.2922
     26 C         -11.5130   -1.7903    3.7982 C.ar    1  LIG1       -0.0531
     27 C         -11.5666   -2.3745    2.5392 C.ar    1  LIG1       -0.0498
     28 C         -10.8127   -2.4175    4.8310 C.ar    1  LIG1       -0.0109
     29 C         -10.9417   -3.5925    2.2703 C.ar    1  LIG1        0.0272
     30 H         -12.1060   -1.8865    1.7389 H       1  LIG1        0.0625
     31 C         -10.1859   -3.6372    4.5805 C.ar    1  LIG1       -0.0117
     32 C         -10.2500   -4.2179    3.3171 C.ar    1  LIG1        0.1252
     33 H          -9.6489   -4.1384    5.3772 H       1  LIG1        0.0660
     34 H         -12.0367   -0.8625    3.9882 H       1  LIG1        0.0624
     35 O          -9.6360   -5.4080    3.0624 O.3     1  LIG1       -0.5061
     36 H          -9.1785   -5.7171    3.8509 H       1  LIG1        0.2922
     37 C         -10.7776   -3.4744   -0.2462 C.ar    1  LIG1        0.1281
     38 C         -10.8850   -4.0784   -1.4901 C.ar    1  LIG1       -0.0159
     39 C         -11.0339   -4.2253    0.9213 C.ar    1  LIG1        0.0307
     40 C         -11.2477   -5.4258   -1.6036 C.ar    1  LIG1       -0.0165
     41 H         -10.6892   -3.5195   -2.3937 H       1  LIG1        0.0655
     42 C         -11.3892   -5.5583    0.7951 C.ar    1  LIG1       -0.0086
     43 C         -11.5011   -6.1669   -0.4593 C.ar    1  LIG1        0.1209
     44 H         -11.5805   -6.1567    1.6750 H       1  LIG1        0.0661
     45 H         -11.3238   -5.8635   -2.5890 H       1  LIG1        0.0655
     46 O         -10.4270   -2.1685   -0.0721 O.3     1  LIG1       -0.4945
     47 C         -10.0669   -1.4243   -1.2167 C.3     1  LIG1        0.0788
     48 H          -9.7780   -0.4413   -0.8544 H       1  LIG1        0.0660
     49 H          -9.2225   -1.8914   -1.7311 H       1  LIG1        0.0660
     50 H         -10.9128   -1.3297   -1.9033 H       1  LIG1        0.0660
     51 O         -11.8645   -7.4805   -0.4524 O.3     1  LIG1       -0.4951
     52 C         -11.9917   -8.1276   -1.7001 C.3     1  LIG1        0.0788
     53 H         -12.2873   -9.1499   -1.4798 H       1  LIG1        0.0660
     54 H         -12.7598   -7.6459   -2.3118 H       1  LIG1        0.0660
     55 H         -11.0389   -8.1274   -2.2371 H       1  LIG1        0.0660
@<TRIPOS>BOND
     1    45    40    1
     2    41    38    1
     3    54    52    1
     4    55    52    1
     5    50    47    1
     6    49    47    1
     7    52    53    1
     8    52    51    1
     9    40    38   ar
    10    40    43   ar
    11    38    37   ar
    12    47    48    1
    13    47    46    1
    14    43    51    1
    15    43    42   ar
    16    37    46    1
    17    37    39   ar
    18    42    39   ar
    19    42    44    1
    20    39    29    1
    21    30    27    1
    22    29    27   ar
    23    29    32   ar
    24    27    26   ar
    25    35    32    1
    26    35    36    1
    27    32    31   ar
    28    26    34    1
    29    26    28   ar
    30    31    28   ar
    31    31    33    1
    32    28    16    1
    33    17    14    1
    34    16    14   ar
    35    16    19   ar
    36    14    13   ar
    37    23    21    1
    38    24    19    1
    39    24    25    1
    40    19    18   ar
    41    13    21    1
    42    13    15   ar
    43    21    22    1
    44    18    15   ar
    45    18    20    1
    46    12    11    1
    47    15     4    1
    48    11     3    1
    49     4     3   ar
    50     4     5   ar
    51     3     2   ar
    52     5     6    1
    53     5     1   ar
    54     2     1   ar
    55     2     8    1
    56     1     7    1
    57     8     9    3
    58     9    10    1
