@<TRIPOS>MOLECULE
mol_data/opt/m06hf/geoms/mol2/13ef4hf4af-4ll.out
 54 57 0 0 0
SMALL
GASTEIGER

@<TRIPOS>ATOM
      1 C           1.3487   -0.1026    0.3018 C.ar    1  LIG1        0.0213
      2 C           0.9254    1.2051    0.4285 C.ar    1  LIG1        0.0839
      3 C          -0.4977    1.1874    0.3190 C.ar    1  LIG1        0.1575
      4 C          -0.8904   -0.1238    0.1339 C.ar    1  LIG1        0.0933
      5 N           0.2611   -0.8882    0.1321 N.ar    1  LIG1       -0.3565
      6 H           0.2885   -1.8687   -0.0974 H       1  LIG1        0.1655
      7 H           2.3477   -0.5016    0.3075 H       1  LIG1        0.0820
      8 C           1.7495    2.3555    0.6411 C.1     1  LIG1       -0.0645
      9 C           2.4449    3.3185    0.8210 C.1     1  LIG1       -0.1137
     10 H           3.0527    4.1769    0.9860 H       1  LIG1        0.1232
     11 O          -1.2728    2.2869    0.4423 O.3     1  LIG1       -0.5035
     12 H          -2.0489    2.1744   -0.1257 H       1  LIG1        0.2923
     13 C          -3.2906   -0.1375   -0.6226 C.ar    1  LIG1        0.1268
     14 C          -4.5385   -0.7340   -0.7046 C.ar    1  LIG1       -0.0091
     15 C          -2.2178   -0.7430    0.0539 C.ar    1  LIG1        0.0446
     16 C          -4.7874   -1.9814   -0.1201 C.ar    1  LIG1        0.0227
     17 H          -5.3445   -0.2444   -1.2389 H       1  LIG1        0.0661
     18 C          -2.4675   -1.9793    0.6409 C.ar    1  LIG1       -0.0310
     19 C          -3.7174   -2.5953    0.5518 C.ar    1  LIG1        0.0618
     20 H          -1.6853   -2.4698    1.2061 H       1  LIG1        0.0638
     21 O          -3.0535    1.0659   -1.2208 O.3     1  LIG1       -0.5061
     22 H          -3.8070    1.3443   -1.7538 H       1  LIG1        0.2922
     23 N          -3.9934   -4.9123    1.6875 N.1     1  LIG1       -0.1908
     24 C          -3.8717   -3.8804    1.1967 C.1     1  LIG1        0.0998
     25 C          -6.1362   -2.5508   -0.2410 C.ar    1  LIG1        0.0908
     26 C          -7.3222   -1.9026   -0.5569 C.ar    1  LIG1        0.1487
     27 C          -8.3795   -2.8436   -0.5728 C.ar    1  LIG1        0.0171
     28 C          -7.7985   -4.0621   -0.2675 C.ar    1  LIG1        0.0537
     29 N          -6.4629   -3.8715   -0.0790 N.ar    1  LIG1       -0.3510
     30 H          -5.8300   -4.6020    0.2182 H       1  LIG1        0.1660
     31 O          -7.4649   -0.5684   -0.8285 O.3     1  LIG1       -0.4927
     32 C          -7.8247    0.1997    0.3215 C.3     1  LIG1        0.0789
     33 H          -7.9673    1.2221   -0.0206 H       1  LIG1        0.0660
     34 H          -8.7515   -0.1837    0.7516 H       1  LIG1        0.0660
     35 H          -7.0265    0.1541    1.0652 H       1  LIG1        0.0660
     36 C          -9.8119   -2.5532   -0.9392 C.3     1  LIG1       -0.0342
     37 H         -10.2935   -3.4572   -1.3137 H       1  LIG1        0.0279
     38 H          -9.8361   -1.7882   -1.7154 H       1  LIG1        0.0279
     39 H         -10.3787   -2.1886   -0.0790 H       1  LIG1        0.0279
     40 C          -9.4635   -5.7359    0.6265 C.ar    1  LIG1       -0.0413
     41 C          -9.9667   -7.0408    0.6135 C.ar    1  LIG1       -0.0570
     42 C          -8.3824   -5.4234   -0.2144 C.ar    1  LIG1        0.0028
     43 C          -9.4188   -8.0250   -0.1948 C.ar    1  LIG1       -0.0441
     44 H         -10.7973   -7.2884    1.2631 H       1  LIG1        0.0621
     45 C          -7.8222   -6.4103   -1.0298 C.ar    1  LIG1       -0.0350
     46 C          -8.3362   -7.7031   -1.0155 C.ar    1  LIG1        0.0524
     47 H          -6.9996   -6.1640   -1.6889 H       1  LIG1        0.0637
     48 H          -9.8135   -9.0318   -0.1939 H       1  LIG1        0.0630
     49 C         -10.0851   -4.7128    1.5576 C.3     1  LIG1       -0.0391
     50 H         -10.3676   -5.1938    2.4939 H       1  LIG1        0.0278
     51 H         -10.9838   -4.2898    1.1038 H       1  LIG1        0.0278
     52 H          -9.3854   -3.9037    1.7633 H       1  LIG1        0.0278
     53 N          -7.3028   -9.5284   -2.5473 N.1     1  LIG1       -0.1909
     54 C          -7.7550   -8.7196   -1.8705 C.1     1  LIG1        0.0992
@<TRIPOS>BOND
     1    53    54    3
     2    54    46    1
     3    22    21    1
     4    38    36    1
     5    47    45    1
     6    37    36    1
     7    17    14    1
     8    21    13    1
     9    45    46   ar
    10    45    42   ar
    11    46    43   ar
    12    36    27    1
    13    36    39    1
    14    31    26    1
    15    31    32    1
    16    14    13   ar
    17    14    16   ar
    18    13    15   ar
    19    27    26   ar
    20    27    28   ar
    21    26    25   ar
    22    28    42    1
    23    28    29   ar
    24    25    16    1
    25    25    29   ar
    26    42    40   ar
    27    43    48    1
    28    43    41   ar
    29    12    11    1
    30    16    19   ar
    31     6     5    1
    32    29    30    1
    33    33    32    1
    34    15     4    1
    35    15    18   ar
    36     5     4   ar
    37     5     1   ar
    38     4     3   ar
    39     1     7    1
    40     1     2   ar
    41     3     2   ar
    42     3    11    1
    43    32    34    1
    44    32    35    1
    45     2     8    1
    46    19    18   ar
    47    19    24    1
    48    41    40   ar
    49    41    44    1
    50    40    49    1
    51    18    20    1
    52     8     9    3
    53     9    10    1
    54    51    49    1
    55    24    23    3
    56    49    52    1
    57    49    50    1
