@<TRIPOS>MOLECULE
mol_data/opt/m06hf/geoms/mol2/13ef13ef13ef-13ef-.out
 46 49 0 0 0
SMALL
GASTEIGER

@<TRIPOS>ATOM
      1 C           1.2599   -0.0756   -0.5329 C.ar    1  LIG1        0.0213
      2 C           0.8353    1.1275   -0.0064 C.ar    1  LIG1        0.0840
      3 C          -0.5806    1.0314    0.1527 C.ar    1  LIG1        0.1589
      4 C          -0.9617   -0.2227   -0.2768 C.ar    1  LIG1        0.1074
      5 N           0.1820   -0.8793   -0.6882 N.ar    1  LIG1       -0.3554
      6 H           0.1821   -1.7648   -1.1691 H       1  LIG1        0.1655
      7 H           2.2512   -0.3861   -0.8127 H       1  LIG1        0.0820
      8 C           1.6509    2.2566    0.3218 C.1     1  LIG1       -0.0645
      9 C           2.3342    3.2058    0.5958 C.1     1  LIG1       -0.1137
     10 H           2.9302    4.0528    0.8432 H       1  LIG1        0.1232
     11 O          -1.3358    2.0106    0.6952 O.3     1  LIG1       -0.5035
     12 H          -2.2328    1.9895    0.3352 H       1  LIG1        0.2923
     13 C          -2.2695   -0.8568   -0.2822 C.ar    1  LIG1        0.0862
     14 C          -3.5166   -0.3051   -0.5607 C.ar    1  LIG1        0.0935
     15 C          -4.4693   -1.3490   -0.4046 C.ar    1  LIG1        0.1596
     16 C          -3.7935   -2.4919   -0.0565 C.ar    1  LIG1        0.1079
     17 N          -2.4580   -2.1653    0.0143 N.ar    1  LIG1       -0.3478
     18 H          -1.7502   -2.7998    0.3624 H       1  LIG1        0.1661
     19 C          -3.7952    1.0397   -0.9487 C.1     1  LIG1       -0.0638
     20 C          -4.0374    2.1796   -1.2567 C.1     1  LIG1       -0.1137
     21 H          -4.2455    3.1824   -1.5532 H       1  LIG1        0.1232
     22 O          -5.8181   -1.2856   -0.5768 O.3     1  LIG1       -0.5034
     23 H          -6.0700   -0.3959   -0.8526 H       1  LIG1        0.2923
     24 C          -4.3134   -3.8164    0.2082 C.ar    1  LIG1        0.0862
     25 C          -3.6578   -4.9895    0.5657 C.ar    1  LIG1        0.0935
     26 C          -4.6604   -5.9981    0.6888 C.ar    1  LIG1        0.1596
     27 C          -5.8745   -5.4215    0.4029 C.ar    1  LIG1        0.1079
     28 N          -5.6321   -4.0907    0.1176 N.ar    1  LIG1       -0.3478
     29 H          -6.3137   -3.4221   -0.2181 H       1  LIG1        0.1661
     30 C          -2.2606   -5.1683    0.8004 C.1     1  LIG1       -0.0638
     31 C          -1.0873   -5.3500    1.0111 C.1     1  LIG1       -0.1137
     32 H          -0.0557   -5.5287    1.2102 H       1  LIG1        0.1232
     33 O          -4.4705   -7.2862    1.0495 O.3     1  LIG1       -0.5034
     34 H          -3.5328   -7.4334    1.2202 H       1  LIG1        0.2923
     35 C          -7.2188   -5.9834    0.4131 C.ar    1  LIG1        0.0857
     36 C          -7.7087   -7.1551   -0.1386 C.ar    1  LIG1        0.0928
     37 C          -9.1009   -7.2089    0.1764 C.ar    1  LIG1        0.1501
     38 C          -9.4175   -6.0848    0.8898 C.ar    1  LIG1        0.0454
     39 N          -8.2594   -5.3528    1.0197 N.ar    1  LIG1       -0.3554
     40 H          -8.1576   -4.5244    1.5840 H       1  LIG1        0.1655
     41 H         -10.3555   -5.7627    1.3018 H       1  LIG1        0.0845
     42 C          -7.0261   -8.1383   -0.9184 C.1     1  LIG1       -0.0638
     43 C          -6.5230   -9.0036   -1.5857 C.1     1  LIG1       -0.1137
     44 H          -6.0555   -9.7604   -2.1710 H       1  LIG1        0.1232
     45 O          -9.9589   -8.1959   -0.1857 O.3     1  LIG1       -0.5040
     46 H          -9.4656   -8.8566   -0.6880 H       1  LIG1        0.2923
@<TRIPOS>BOND
     1    44    43    1
     2    43    42    3
     3    21    20    1
     4    20    19    3
     5     6     5    1
     6    19    14    1
     7    42    36    1
     8    23    22    1
     9     7     1    1
    10     5     1   ar
    11     5     4   ar
    12    46    45    1
    13    22    15    1
    14    14    15   ar
    15    14    13   ar
    16     1     2   ar
    17    15    16   ar
    18    13     4    1
    19    13    17   ar
    20     4     3   ar
    21    29    28    1
    22    45    37    1
    23    36    37   ar
    24    36    35   ar
    25    16    17   ar
    26    16    24    1
    27     2     3   ar
    28     2     8    1
    29    17    18    1
    30    28    24   ar
    31    28    27   ar
    32     3    11    1
    33    37    38   ar
    34    24    25   ar
    35     8     9    3
    36    12    11    1
    37    27    35    1
    38    27    26   ar
    39    35    39   ar
    40    25    26   ar
    41    25    30    1
    42     9    10    1
    43    26    33    1
    44    30    31    3
    45    38    39   ar
    46    38    41    1
    47    31    32    1
    48    39    40    1
    49    33    34    1
