@<TRIPOS>MOLECULE
mol_data/opt/m06hf/geoms/mol2/13ef13ef-13ef13ef-.out
 46 49 0 0 0
SMALL
GASTEIGER

@<TRIPOS>ATOM
      1 C           1.2935   -0.3131   -0.0015 C.ar    1  LIG1        0.0213
      2 C           0.8666    1.0046   -0.0008 C.ar    1  LIG1        0.0840
      3 C          -0.5551    0.9658    0.0001 C.ar    1  LIG1        0.1589
      4 C          -0.9453   -0.3510   -0.0001 C.ar    1  LIG1        0.1074
      5 N           0.2030   -1.1083   -0.0010 N.ar    1  LIG1       -0.3554
      6 H           0.1969   -2.1191   -0.0013 H       1  LIG1        0.1655
      7 H           2.2941   -0.7076   -0.0022 H       1  LIG1        0.0820
      8 C           1.6322    2.2120   -0.0009 C.1     1  LIG1       -0.0645
      9 C           2.2156    3.2642   -0.0009 C.1     1  LIG1       -0.1137
     10 H           2.7511    4.1851   -0.0009 H       1  LIG1        0.1232
     11 O          -1.4100    2.0242    0.0009 O.3     1  LIG1       -0.5035
     12 H          -0.8937    2.8402    0.0009 H       1  LIG1        0.2923
     13 C          -2.2811   -0.9096    0.0006 C.ar    1  LIG1        0.0862
     14 C          -2.7023   -2.2383    0.0004 C.ar    1  LIG1        0.0935
     15 C          -4.1234   -2.2048    0.0013 C.ar    1  LIG1        0.1596
     16 C          -4.5204   -0.8890    0.0020 C.ar    1  LIG1        0.1079
     17 N          -3.3768   -0.1230    0.0015 N.ar    1  LIG1       -0.3478
     18 H          -3.3480    0.8923    0.0018 H       1  LIG1        0.1661
     19 C          -1.8955   -3.4157   -0.0005 C.1     1  LIG1       -0.0638
     20 C          -1.2395   -4.4272   -0.0012 C.1     1  LIG1       -0.1137
     21 H          -0.6670   -5.3261   -0.0018 H       1  LIG1        0.1232
     22 O          -4.9782   -3.2634    0.0015 O.3     1  LIG1       -0.5034
     23 H          -4.4704   -4.0836    0.0006 H       1  LIG1        0.2923
     24 C          -5.8604   -0.3427    0.0030 C.ar    1  LIG1        0.0862
     25 C          -6.2876    0.9839    0.0036 C.ar    1  LIG1        0.0935
     26 C          -7.7074    0.9440    0.0045 C.ar    1  LIG1        0.1596
     27 C          -8.0998   -0.3725    0.0043 C.ar    1  LIG1        0.1079
     28 N          -6.9549   -1.1345    0.0034 N.ar    1  LIG1       -0.3478
     29 H          -6.9311   -2.1497    0.0031 H       1  LIG1        0.1661
     30 C          -5.4814    2.1613    0.0035 C.1     1  LIG1       -0.0638
     31 C          -4.8148    3.1648    0.0034 C.1     1  LIG1       -0.1137
     32 H          -4.2206    4.0486    0.0033 H       1  LIG1        0.1232
     33 O          -8.5682    2.0017    0.0053 O.3     1  LIG1       -0.5034
     34 H          -8.0620    2.8230    0.0052 H       1  LIG1        0.2923
     35 C          -9.4399   -0.9229    0.0050 C.ar    1  LIG1        0.0857
     36 C          -9.8756   -2.2417    0.0049 C.ar    1  LIG1        0.0928
     37 C         -11.3039   -2.1979    0.0058 C.ar    1  LIG1        0.1501
     38 C         -11.6841   -0.8832    0.0064 C.ar    1  LIG1        0.0454
     39 N         -10.5328   -0.1280    0.0059 N.ar    1  LIG1       -0.3554
     40 H         -10.4701    0.8810    0.0061 H       1  LIG1        0.1655
     41 H         -12.6646   -0.4447    0.0071 H       1  LIG1        0.0845
     42 C          -9.0733   -3.4220    0.0041 C.1     1  LIG1       -0.0638
     43 C          -8.4149   -4.4315    0.0034 C.1     1  LIG1       -0.1137
     44 H          -7.8296   -5.3210    0.0028 H       1  LIG1        0.1232
     45 O         -12.1354   -3.2730    0.0060 O.3     1  LIG1       -0.5040
     46 H         -11.5995   -4.0749    0.0054 H       1  LIG1        0.2923
@<TRIPOS>BOND
     1     7     1    1
     2    21    20    1
     3     1     5   ar
     4     1     2   ar
     5     6     5    1
     6    20    19    3
     7     5     4   ar
     8     9    10    1
     9     9     8    3
    10     8     2    1
    11     2     3   ar
    12    19    14    1
    13     4     3   ar
    14     4    13    1
    15     3    11    1
    16    14    13   ar
    17    14    15   ar
    18    13    17   ar
    19    23    22    1
    20    12    11    1
    21    15    22    1
    22    15    16   ar
    23    17    18    1
    24    17    16   ar
    25    16    24    1
    26    44    43    1
    27    24    28   ar
    28    24    25   ar
    29    29    28    1
    30    32    31    1
    31    31    30    3
    32    28    27   ar
    33    43    42    3
    34    30    25    1
    35    25    26   ar
    36    42    36    1
    37    27    26   ar
    38    27    35    1
    39    26    33    1
    40    36    35   ar
    41    36    37   ar
    42    35    39   ar
    43    34    33    1
    44    46    45    1
    45    37    45    1
    46    37    38   ar
    47    39    40    1
    48    39    38   ar
    49    38    41    1
