@<TRIPOS>MOLECULE
mol_data/opt/m06hf/geoms/mol2/13ef13ef.out
 24 25 0 0 0
SMALL
GASTEIGER

@<TRIPOS>ATOM
      1 C           1.1154   -0.2394   -0.5870 C.ar    1  LIG1        0.0213
      2 C           0.7849    0.9628    0.0033 C.ar    1  LIG1        0.0840
      3 C          -0.6079    0.8998    0.3182 C.ar    1  LIG1        0.1589
      4 C          -1.0680   -0.3356   -0.0849 C.ar    1  LIG1        0.1074
      5 N           0.0041   -1.0125   -0.6337 N.ar    1  LIG1       -0.3554
      6 H          -0.0758   -1.8799   -1.1395 H       1  LIG1        0.1655
      7 H           2.0607   -0.5699   -0.9808 H       1  LIG1        0.0820
      8 C           1.6659    2.0624    0.2570 C.1     1  LIG1       -0.0645
      9 C           2.4062    2.9850    0.4685 C.1     1  LIG1       -0.1137
     10 H           3.0542    3.8075    0.6621 H       1  LIG1        0.1232
     11 O          -1.2792    1.8857    0.9510 O.3     1  LIG1       -0.5035
     12 H          -2.1959    1.9194    0.6399 H       1  LIG1        0.2923
     13 C          -2.3897   -0.9333    0.0377 C.ar    1  LIG1        0.0857
     14 C          -3.6388   -0.3539   -0.1184 C.ar    1  LIG1        0.0928
     15 C          -4.6038   -1.3749    0.1374 C.ar    1  LIG1        0.1501
     16 C          -3.9264   -2.5291    0.4268 C.ar    1  LIG1        0.0454
     17 N          -2.5795   -2.2399    0.3575 N.ar    1  LIG1       -0.3554
     18 H          -1.8409   -2.8551    0.6581 H       1  LIG1        0.1655
     19 H          -4.2850   -3.5128    0.6725 H       1  LIG1        0.0845
     20 C          -3.8774    1.0060   -0.4830 C.1     1  LIG1       -0.0638
     21 C          -4.0348    2.1649   -0.7720 C.1     1  LIG1       -0.1137
     22 H          -4.1912    3.1798   -1.0565 H       1  LIG1        0.1232
     23 O          -5.9403   -1.1489    0.0609 O.3     1  LIG1       -0.5040
     24 H          -6.4273   -1.9648    0.2136 H       1  LIG1        0.2923
@<TRIPOS>BOND
     1     6     5    1
     2    22    21    1
     3     7     1    1
     4    21    20    3
     5     5     1   ar
     6     5     4   ar
     7     1     2   ar
     8    20    14    1
     9    14    13   ar
    10    14    15   ar
    11     4    13    1
    12     4     3   ar
    13     2     8    1
    14     2     3   ar
    15    13    17   ar
    16    23    15    1
    17    23    24    1
    18    15    16   ar
    19     8     9    3
    20     3    11    1
    21    17    16   ar
    22    17    18    1
    23    16    19    1
    24     9    10    1
    25    12    11    1
