@<TRIPOS>MOLECULE
mol_data/opt/m06hf/geoms/mol2/13ef13ef13ef13ef-.out
 46 49 0 0 0
SMALL
GASTEIGER

@<TRIPOS>ATOM
      1 C           0.7488    0.3382   -1.6430 C.ar    1  LIG1        0.0213
      2 C           0.7501    1.1484   -0.5265 C.ar    1  LIG1        0.0840
      3 C          -0.4678    0.8871    0.1750 C.ar    1  LIG1        0.1589
      4 C          -1.1566   -0.0734   -0.5349 C.ar    1  LIG1        0.1074
      5 N          -0.3902   -0.3956   -1.6394 N.ar    1  LIG1       -0.3554
      6 H          -0.7209   -0.9448   -2.4166 H       1  LIG1        0.1655
      7 H           1.4765    0.2614   -2.4316 H       1  LIG1        0.0820
      8 C           1.7732    2.0732   -0.1442 C.1     1  LIG1       -0.0645
      9 C           2.6329    2.8511    0.1703 C.1     1  LIG1       -0.1137
     10 H           3.3876    3.5454    0.4567 H       1  LIG1        0.1232
     11 O          -0.7939    1.4647    1.3500 O.3     1  LIG1       -0.5035
     12 H          -1.7547    1.5671    1.4199 H       1  LIG1        0.2923
     13 C          -2.4131   -0.7408   -0.2314 C.ar    1  LIG1        0.0862
     14 C          -3.5860   -0.2221    0.2991 C.ar    1  LIG1        0.0935
     15 C          -4.5145   -1.2988    0.4063 C.ar    1  LIG1        0.1596
     16 C          -3.8878   -2.4336   -0.0644 C.ar    1  LIG1        0.1079
     17 N          -2.6110   -2.0656   -0.4470 N.ar    1  LIG1       -0.3478
     18 H          -1.9158   -2.6954   -0.8159 H       1  LIG1        0.1661
     19 C          -3.7928    1.1459    0.6525 C.1     1  LIG1       -0.0638
     20 C          -3.9191    2.3051    0.9544 C.1     1  LIG1       -0.1137
     21 H          -4.0574    3.3323    1.2016 H       1  LIG1        0.1232
     22 O          -5.7530   -1.1589    0.9225 O.3     1  LIG1       -0.5034
     23 H          -6.3551   -1.8229    0.5590 H       1  LIG1        0.2923
     24 C          -4.3500   -3.8099   -0.1279 C.ar    1  LIG1        0.0862
     25 C          -5.6125   -4.3098   -0.4321 C.ar    1  LIG1        0.0935
     26 C          -5.5251   -5.7264   -0.3374 C.ar    1  LIG1        0.1596
     27 C          -4.2351   -6.0497    0.0017 C.ar    1  LIG1        0.1079
     28 N          -3.5425   -4.8678    0.1263 N.ar    1  LIG1       -0.3478
     29 H          -2.5964   -4.8204    0.4831 H       1  LIG1        0.1661
     30 C          -6.7715   -3.5558   -0.7866 C.1     1  LIG1       -0.0638
     31 C          -7.7587   -2.9214   -1.0640 C.1     1  LIG1       -0.1137
     32 H          -8.6225   -2.3573   -1.3338 H       1  LIG1        0.1232
     33 O          -6.5071   -6.6440   -0.5549 O.3     1  LIG1       -0.5034
     34 H          -7.3353   -6.1927   -0.7585 H       1  LIG1        0.2923
     35 C          -3.6332   -7.3501    0.2141 C.ar    1  LIG1        0.0857
     36 C          -2.3336   -7.6890    0.5713 C.ar    1  LIG1        0.0928
     37 C          -2.2918   -9.1150    0.6435 C.ar    1  LIG1        0.1501
     38 C          -3.5389   -9.5869    0.3337 C.ar    1  LIG1        0.0454
     39 N          -4.3360   -8.4950    0.0768 N.ar    1  LIG1       -0.3554
     40 H          -5.3130   -8.5087   -0.1807 H       1  LIG1        0.1655
     41 H          -3.9040  -10.5957    0.2793 H       1  LIG1        0.0845
     42 C          -1.2478   -6.7988    0.8337 C.1     1  LIG1       -0.0638
     43 C          -0.3197   -6.0634    1.0647 C.1     1  LIG1       -0.1137
     44 H           0.5061   -5.4257    1.2841 H       1  LIG1        0.1232
     45 O          -1.2129   -9.8738    0.9646 O.3     1  LIG1       -0.5040
     46 H          -0.4571   -9.2956    1.1203 H       1  LIG1        0.2923
@<TRIPOS>BOND
     1     7     1    1
     2     6     5    1
     3     1     5   ar
     4     1     2   ar
     5     5     4   ar
     6    32    31    1
     7    31    30    3
     8    18    17    1
     9    30    25    1
    10    34    33    1
    11    33    26    1
    12     4    13    1
    13     4     3   ar
    14     2     8    1
    15     2     3   ar
    16    17    13   ar
    17    17    16   ar
    18    25    26   ar
    19    25    24   ar
    20    26    27   ar
    21    13    14   ar
    22    40    39    1
    23     8     9    3
    24    24    16    1
    25    24    28   ar
    26    16    15   ar
    27    27    28   ar
    28    27    35    1
    29    39    35   ar
    30    39    38   ar
    31    28    29    1
    32     9    10    1
    33     3    11    1
    34    35    36   ar
    35    41    38    1
    36    14    15   ar
    37    14    19    1
    38    38    37   ar
    39    15    22    1
    40    23    22    1
    41    36    37   ar
    42    36    42    1
    43    37    45    1
    44    19    20    3
    45    42    43    3
    46    20    21    1
    47    45    46    1
    48    43    44    1
    49    11    12    1
