@<TRIPOS>MOLECULE
mol_data/opt/m06hf/geoms/mol2/13ef13ef-13ef-13ef.out
 46 49 0 0 0
SMALL
GASTEIGER

@<TRIPOS>ATOM
      1 C           1.2454   -0.2451   -0.1132 C.ar    1  LIG1        0.0213
      2 C           0.7595    1.0038   -0.4628 C.ar    1  LIG1        0.0840
      3 C          -0.6584    0.9048   -0.4294 C.ar    1  LIG1        0.1589
      4 C          -0.9884   -0.3791   -0.0700 C.ar    1  LIG1        0.1074
      5 N           0.1918   -1.0573    0.1192 N.ar    1  LIG1       -0.3554
      6 H           0.2325   -2.0282    0.3965 H       1  LIG1        0.1655
      7 H           2.2626   -0.5818   -0.0197 H       1  LIG1        0.0820
      8 C           1.4717    2.1957   -0.8059 C.1     1  LIG1       -0.0645
      9 C           2.0097    3.2287   -1.1066 C.1     1  LIG1       -0.1137
     10 H           2.5045    4.1345   -1.3704 H       1  LIG1        0.1232
     11 O          -1.5663    1.8856   -0.6969 O.3     1  LIG1       -0.5035
     12 H          -1.1017    2.6605   -1.0385 H       1  LIG1        0.2923
     13 C          -2.3017   -0.9655    0.0959 C.ar    1  LIG1        0.0862
     14 C          -2.6899   -2.2425    0.4862 C.ar    1  LIG1        0.0935
     15 C          -4.1169   -2.2616    0.4695 C.ar    1  LIG1        0.1596
     16 C          -4.5490   -1.0197    0.0681 C.ar    1  LIG1        0.1079
     17 N          -3.4201   -0.2517   -0.1501 N.ar    1  LIG1       -0.3478
     18 H          -3.4011    0.6872   -0.5302 H       1  LIG1        0.1661
     19 C          -1.8447   -3.3315    0.8587 C.1     1  LIG1       -0.0638
     20 C          -1.1523   -4.2659    1.1781 C.1     1  LIG1       -0.1137
     21 H          -0.5505   -5.0972    1.4661 H       1  LIG1        0.1232
     22 O          -4.9124   -3.2978    0.8154 O.3     1  LIG1       -0.5034
     23 H          -4.3640   -4.0251    1.1325 H       1  LIG1        0.2923
     24 C          -5.8754   -0.4400   -0.0565 C.ar    1  LIG1        0.0862
     25 C          -7.0949   -0.9751   -0.4595 C.ar    1  LIG1        0.0935
     26 C          -8.0337    0.0929   -0.4173 C.ar    1  LIG1        0.1596
     27 C          -7.3786    1.2291   -0.0118 C.ar    1  LIG1        0.1079
     28 N          -6.0707    0.8753    0.2069 N.ar    1  LIG1       -0.3478
     29 H          -5.3906    1.5127    0.6016 H       1  LIG1        0.1661
     30 C          -7.4194   -2.2894   -0.9126 C.1     1  LIG1       -0.0638
     31 C          -7.7743   -3.3654   -1.3176 C.1     1  LIG1       -0.1137
     32 H          -8.0567   -4.3298   -1.6699 H       1  LIG1        0.1232
     33 O          -9.3569    0.0393   -0.7364 O.3     1  LIG1       -0.5034
     34 H          -9.5681   -0.8556   -1.0328 H       1  LIG1        0.2923
     35 C          -7.8707    2.5795    0.1636 C.ar    1  LIG1        0.0857
     36 C          -7.1900    3.7420    0.5042 C.ar    1  LIG1        0.0928
     37 C          -8.1641    4.7836    0.5273 C.ar    1  LIG1        0.1501
     38 C          -9.3783    4.2335    0.2054 C.ar    1  LIG1        0.0454
     39 N          -9.1739    2.8893   -0.0119 N.ar    1  LIG1       -0.3554
     40 H          -9.8664    2.2032   -0.2776 H       1  LIG1        0.1655
     41 H         -10.3510    4.6837    0.1150 H       1  LIG1        0.0845
     42 C          -5.7849    3.8377    0.7515 C.1     1  LIG1       -0.0638
     43 C          -4.5956    3.8616    0.9476 C.1     1  LIG1       -0.1137
     44 H          -3.5442    3.8996    1.1177 H       1  LIG1        0.1232
     45 O          -7.8495    6.0715    0.8303 O.3     1  LIG1       -0.5040
     46 H          -8.6286    6.6302    0.7485 H       1  LIG1        0.2923
@<TRIPOS>BOND
     1    32    31    1
     2    10     9    1
     3    31    30    3
     4     9     8    3
     5    12    11    1
     6    34    33    1
     7    30    25    1
     8     8     2    1
     9    33    26    1
    10    11     3    1
    11    18    17    1
    12     2     3   ar
    13     2     1   ar
    14    25    26   ar
    15    25    24   ar
    16     3     4   ar
    17    26    27   ar
    18    40    39    1
    19    17    16   ar
    20    17    13   ar
    21     1     7    1
    22     1     5   ar
    23     4    13    1
    24     4     5   ar
    25    24    16    1
    26    24    28   ar
    27    39    35   ar
    28    39    38   ar
    29    27    35    1
    30    27    28   ar
    31    16    15   ar
    32    13    14   ar
    33    41    38    1
    34     5     6    1
    35    35    36   ar
    36    38    37   ar
    37    28    29    1
    38    15    14   ar
    39    15    22    1
    40    14    19    1
    41    36    37   ar
    42    36    42    1
    43    37    45    1
    44    46    45    1
    45    42    43    3
    46    22    23    1
    47    19    20    3
    48    43    44    1
    49    20    21    1
