@<TRIPOS>MOLECULE
mol_data/opt/m06hf/geoms/mol2/13eg13eg13eg.out
 35 37 0 0 0
SMALL
GASTEIGER

@<TRIPOS>ATOM
      1 C           1.1847   -0.0398    0.4099 C.ar    1  LIG1        0.0188
      2 C           0.7672    0.9570   -0.4466 C.ar    1  LIG1        0.0557
      3 C          -0.6529    0.8331   -0.5806 C.ar    1  LIG1        0.0469
      4 C          -1.0364   -0.2356    0.1995 C.ar    1  LIG1        0.0787
      5 N           0.0930   -0.7484    0.7917 N.ar    1  LIG1       -0.3575
      6 H           0.0825   -1.4694    1.4956 H       1  LIG1        0.1654
      7 H           2.1736   -0.2703    0.7659 H       1  LIG1        0.0820
      8 C           1.6107    1.9224   -1.0863 C.1     1  LIG1       -0.0671
      9 C           2.3132    2.7332   -1.6268 C.1     1  LIG1       -0.1138
     10 H           2.9290    3.4563   -2.1083 H       1  LIG1        0.1232
     11 S          -1.6556    1.8196   -1.6477 S.3     1  LIG1       -0.1394
     12 H          -2.6094    2.0757   -0.7431 H       1  LIG1        0.1072
     13 C          -2.3517   -0.8378    0.4153 C.ar    1  LIG1        0.0811
     14 C          -3.5462   -0.2738    0.8280 C.ar    1  LIG1        0.0652
     15 C          -4.5299   -1.3124    0.8412 C.ar    1  LIG1        0.0476
     16 C          -3.8937   -2.4693    0.4475 C.ar    1  LIG1        0.0791
     17 N          -2.5792   -2.1646    0.1978 N.ar    1  LIG1       -0.3500
     18 H          -1.9381   -2.7729   -0.2904 H       1  LIG1        0.1661
     19 C          -3.7232    1.0947    1.2053 C.1     1  LIG1       -0.0664
     20 C          -3.8614    2.2489    1.5137 C.1     1  LIG1       -0.1138
     21 H          -3.9884    3.2667    1.8021 H       1  LIG1        0.1232
     22 S          -6.2025   -1.1354    1.3800 S.3     1  LIG1       -0.1393
     23 H          -6.7557   -1.6371    0.2667 H       1  LIG1        0.1072
     24 C          -4.4099   -3.8272    0.2756 C.ar    1  LIG1        0.0807
     25 C          -5.4650   -4.2884   -0.4912 C.ar    1  LIG1        0.0645
     26 C          -5.5342   -5.7041   -0.3062 C.ar    1  LIG1        0.0381
     27 C          -4.5229   -6.0481    0.5533 C.ar    1  LIG1        0.0167
     28 N          -3.8480   -4.9047    0.8887 N.ar    1  LIG1       -0.3575
     29 H          -3.1200   -4.8402    1.5825 H       1  LIG1        0.1654
     30 H          -4.2394   -7.0079    0.9492 H       1  LIG1        0.0818
     31 C          -6.2985   -3.4906   -1.3356 C.1     1  LIG1       -0.0664
     32 C          -7.0082   -2.8263   -2.0442 C.1     1  LIG1       -0.1138
     33 H          -7.6262   -2.2431   -2.6871 H       1  LIG1        0.1232
     34 S          -6.7388   -6.7279   -1.0957 S.3     1  LIG1       -0.1400
     35 H          -6.2137   -7.8818   -0.6688 H       1  LIG1        0.1072
@<TRIPOS>BOND
     1    33    32    1
     2    10     9    1
     3    32    31    3
     4    11    12    1
     5    11     3    1
     6     9     8    3
     7    31    25    1
     8    34    35    1
     9    34    26    1
    10     8     2    1
    11     3     2   ar
    12     3     4   ar
    13    25    26   ar
    14    25    24   ar
    15     2     1   ar
    16    26    27   ar
    17    18    17    1
    18    17    13   ar
    19    17    16   ar
    20     4    13    1
    21     4     5   ar
    22    23    22    1
    23    24    16    1
    24    24    28   ar
    25     1     7    1
    26     1     5   ar
    27    13    14   ar
    28    16    15   ar
    29    27    28   ar
    30    27    30    1
    31     5     6    1
    32    14    15   ar
    33    14    19    1
    34    15    22    1
    35    28    29    1
    36    19    20    3
    37    20    21    1
