@<TRIPOS>MOLECULE
mol_data/opt/m06hf/geoms/mol2/13eg13eg13eg-.out
 35 37 0 0 0
SMALL
GASTEIGER

@<TRIPOS>ATOM
      1 C           0.7244    0.1412    1.6153 C.ar    1  LIG1        0.0188
      2 C           0.8269    0.9211    0.4823 C.ar    1  LIG1        0.0557
      3 C          -0.3617    0.7060   -0.2863 C.ar    1  LIG1        0.0469
      4 C          -1.1319   -0.1969    0.4117 C.ar    1  LIG1        0.0787
      5 N          -0.4579   -0.5229    1.5621 N.ar    1  LIG1       -0.3575
      6 H          -0.8425   -1.0904    2.3018 H       1  LIG1        0.1654
      7 H           1.4064    0.0342    2.4401 H       1  LIG1        0.0820
      8 C           1.9285    1.7739    0.1483 C.1     1  LIG1       -0.0671
      9 C           2.8519    2.4884   -0.1338 C.1     1  LIG1       -0.1138
     10 H           3.6668    3.1236   -0.3911 H       1  LIG1        0.1232
     11 S          -0.6967    1.3938   -1.8775 S.3     1  LIG1       -0.1394
     12 H          -1.8790    1.9410   -1.5548 H       1  LIG1        0.1072
     13 C          -2.4399   -0.7692    0.0903 C.ar    1  LIG1        0.0811
     14 C          -3.6551   -0.1436   -0.1326 C.ar    1  LIG1        0.0652
     15 C          -4.6189   -1.1633   -0.4008 C.ar    1  LIG1        0.0476
     16 C          -3.9548   -2.3695   -0.3304 C.ar    1  LIG1        0.0791
     17 N          -2.6442   -2.1091   -0.0226 N.ar    1  LIG1       -0.3500
     18 H          -1.9306   -2.8119    0.1025 H       1  LIG1        0.1661
     19 C          -3.8661    1.2709   -0.0873 C.1     1  LIG1       -0.0664
     20 C          -4.0258    2.4625   -0.0549 C.1     1  LIG1       -0.1138
     21 H          -4.1803    3.5158   -0.0095 H       1  LIG1        0.1232
     22 S          -6.3113   -0.8809   -0.8206 S.3     1  LIG1       -0.1393
     23 H          -6.8124   -1.7899    0.0273 H       1  LIG1        0.1072
     24 C          -4.4307   -3.7355   -0.5510 C.ar    1  LIG1        0.0807
     25 C          -5.4503   -4.4398    0.0638 C.ar    1  LIG1        0.0645
     26 C          -5.4903   -5.7360   -0.5369 C.ar    1  LIG1        0.0381
     27 C          -4.4973   -5.7733   -1.4813 C.ar    1  LIG1        0.0167
     28 N          -3.8624   -4.5602   -1.4730 N.ar    1  LIG1       -0.3575
     29 H          -3.1600   -4.2643   -2.1335 H       1  LIG1        0.1654
     30 H          -4.2036   -6.5591   -2.1554 H       1  LIG1        0.0818
     31 C          -6.2851   -3.9538    1.1180 C.1     1  LIG1       -0.0664
     32 C          -6.9974   -3.5461    1.9978 C.1     1  LIG1       -0.1138
     33 H          -7.6215   -3.1937    2.7863 H       1  LIG1        0.1232
     34 S          -6.6516   -6.9839   -0.0678 S.3     1  LIG1       -0.1400
     35 H          -6.1403   -7.9306   -0.8622 H       1  LIG1        0.1072
@<TRIPOS>BOND
     1    30    27    1
     2    29    28    1
     3    11    12    1
     4    11     3    1
     5    27    28   ar
     6    27    26   ar
     7    28    24   ar
     8    35    34    1
     9    22    15    1
    10    22    23    1
    11    24    16    1
    12    24    25   ar
    13    26    34    1
    14    26    25   ar
    15    15    16   ar
    16    15    14   ar
    17    10     9    1
    18    16    17   ar
    19     3     4   ar
    20     3     2   ar
    21     9     8    3
    22    14    19    1
    23    14    13   ar
    24    19    20    3
    25    20    21    1
    26    17    13   ar
    27    17    18    1
    28    25    31    1
    29    13     4    1
    30     8     2    1
    31     4     5   ar
    32     2     1   ar
    33    31    32    3
    34     5     1   ar
    35     5     6    1
    36     1     7    1
    37    32    33    1
