@<TRIPOS>MOLECULE
mol_data/opt/m06hf/geoms/mol2/13eg13eg-13eg13eg.out
 46 49 0 0 0
SMALL
GASTEIGER

@<TRIPOS>ATOM
      1 C           1.2203    0.0700    0.3209 C.ar    1  LIG1        0.0188
      2 C           0.7548    1.1986   -0.3201 C.ar    1  LIG1        0.0557
      3 C          -0.6661    1.0634   -0.4376 C.ar    1  LIG1        0.0469
      4 C          -1.0014   -0.1436    0.1349 C.ar    1  LIG1        0.0787
      5 N           0.1564   -0.7274    0.5899 N.ar    1  LIG1       -0.3575
      6 H           0.1824   -1.5703    1.1415 H       1  LIG1        0.1654
      7 H           2.2241   -0.1943    0.6031 H       1  LIG1        0.0820
      8 C           1.5569    2.2910   -0.7844 C.1     1  LIG1       -0.0671
      9 C           2.2262    3.2078   -1.1773 C.1     1  LIG1       -0.1138
     10 H           2.8131    4.0242   -1.5283 H       1  LIG1        0.1232
     11 S          -1.7292    2.2074   -1.2617 S.3     1  LIG1       -0.1394
     12 H          -2.6210    2.3107   -0.2646 H       1  LIG1        0.1072
     13 C          -2.2972   -0.8023    0.2963 C.ar    1  LIG1        0.0811
     14 C          -3.4627   -0.3566    0.8926 C.ar    1  LIG1        0.0652
     15 C          -4.4317   -1.4041    0.7843 C.ar    1  LIG1        0.0476
     16 C          -3.8164   -2.4493    0.1290 C.ar    1  LIG1        0.0791
     17 N          -2.5259   -2.0683   -0.1534 N.ar    1  LIG1       -0.3500
     18 H          -1.9204   -2.5512   -0.8009 H       1  LIG1        0.1661
     19 C          -3.6250    0.9119    1.5343 C.1     1  LIG1       -0.0664
     20 C          -3.7493    1.9841    2.0649 C.1     1  LIG1       -0.1138
     21 H          -3.8608    2.9283    2.5459 H       1  LIG1        0.1232
     22 S          -6.0329   -1.3487    1.5238 S.3     1  LIG1       -0.1393
     23 H          -6.6925   -1.8987    0.4949 H       1  LIG1        0.1072
     24 C          -4.3033   -3.7782   -0.2349 C.ar    1  LIG1        0.0811
     25 C          -5.4565   -4.1748   -0.8895 C.ar    1  LIG1        0.0652
     26 C          -5.4335   -5.6030   -0.9744 C.ar    1  LIG1        0.0476
     27 C          -4.2613   -6.0196   -0.3839 C.ar    1  LIG1        0.0791
     28 N          -3.5907   -4.9044    0.0554 N.ar    1  LIG1       -0.3500
     29 H          -2.8115   -4.9290    0.6965 H       1  LIG1        0.1661
     30 C          -6.4463   -3.2950   -1.4312 C.1     1  LIG1       -0.0664
     31 C          -7.2735   -2.5473   -1.8835 C.1     1  LIG1       -0.1138
     32 H          -7.9999   -1.8889   -2.3016 H       1  LIG1        0.1232
     33 S          -6.6467   -6.5863   -1.7995 S.3     1  LIG1       -0.1393
     34 H          -6.7999   -7.4734   -0.8048 H       1  LIG1        0.1072
     35 C          -3.7056   -7.3607   -0.2050 C.ar    1  LIG1        0.0807
     36 C          -4.2477   -8.4841    0.3936 C.ar    1  LIG1        0.0645
     37 C          -3.2742   -9.5266    0.2948 C.ar    1  LIG1        0.0381
     38 C          -2.1844   -9.0004   -0.3496 C.ar    1  LIG1        0.0167
     39 N          -2.4572   -7.6900   -0.6369 N.ar    1  LIG1       -0.3575
     40 H          -1.8764   -7.0817   -1.1921 H       1  LIG1        0.1654
     41 H          -1.2514   -9.4580   -0.6284 H       1  LIG1        0.0818
     42 C          -5.5331   -8.5635    1.0149 C.1     1  LIG1       -0.0664
     43 C          -6.6172   -8.6372    1.5312 C.1     1  LIG1       -0.1138
     44 H          -7.5702   -8.6996    2.0036 H       1  LIG1        0.1232
     45 S          -3.5330  -11.1594    0.9194 S.3     1  LIG1       -0.1400
     46 H          -2.2789  -11.5738    0.7063 H       1  LIG1        0.1072
@<TRIPOS>BOND
     1    32    31    1
     2    31    30    3
     3    33    26    1
     4    33    34    1
     5    10     9    1
     6    30    25    1
     7    11     3    1
     8    11    12    1
     9    40    39    1
    10     9     8    3
    11    26    25   ar
    12    26    27   ar
    13    25    24   ar
    14    18    17    1
    15     8     2    1
    16    39    38   ar
    17    39    35   ar
    18    41    38    1
    19     3     2   ar
    20     3     4   ar
    21    27    35    1
    22    27    28   ar
    23    38    37   ar
    24     2     1   ar
    25    24    28   ar
    26    24    16    1
    27    35    36   ar
    28    17    16   ar
    29    17    13   ar
    30    28    29    1
    31    16    15   ar
    32     4    13    1
    33     4     5   ar
    34    37    36   ar
    35    37    45    1
    36    13    14   ar
    37     1     5   ar
    38     1     7    1
    39    36    42    1
    40    23    22    1
    41     5     6    1
    42    46    45    1
    43    15    14   ar
    44    15    22    1
    45    14    19    1
    46    42    43    3
    47    43    44    1
    48    19    20    3
    49    20    21    1
