@<TRIPOS>MOLECULE
mol_data/opt/m06hf/geoms/mol2/13eg13eg13eg-13eg.out
 46 49 0 0 0
SMALL
GASTEIGER

@<TRIPOS>ATOM
      1 C           0.1843    0.4961    2.4490 C.ar    1  LIG1        0.0188
      2 C           0.6824    0.9651    1.2514 C.ar    1  LIG1        0.0557
      3 C          -0.2444    0.5815    0.2302 C.ar    1  LIG1        0.0469
      4 C          -1.2620   -0.1070    0.8517 C.ar    1  LIG1        0.0787
      5 N          -0.9848   -0.1435    2.1957 N.ar    1  LIG1       -0.3575
      6 H          -1.6175   -0.5024    2.8942 H       1  LIG1        0.1654
      7 H           0.5845    0.5896    3.4430 H       1  LIG1        0.0820
      8 C           1.9055    1.6905    1.0766 C.1     1  LIG1       -0.0671
      9 C           2.9322    2.2962    0.9280 C.1     1  LIG1       -0.1138
     10 H           3.8401    2.8354    0.7887 H       1  LIG1        0.1232
     11 S          -0.0397    0.8633   -1.5011 S.3     1  LIG1       -0.1394
     12 H          -1.2401    1.4285   -1.6939 H       1  LIG1        0.1072
     13 C          -2.4617   -0.7298    0.2909 C.ar    1  LIG1        0.0811
     14 C          -3.4966   -0.1725   -0.4413 C.ar    1  LIG1        0.0652
     15 C          -4.4215   -1.2190   -0.7404 C.ar    1  LIG1        0.0476
     16 C          -3.9165   -2.3716   -0.1776 C.ar    1  LIG1        0.0791
     17 N          -2.7391   -2.0532    0.4473 N.ar    1  LIG1       -0.3500
     18 H          -2.1553   -2.7052    0.9498 H       1  LIG1        0.1661
     19 C          -3.5914    1.2073   -0.8085 C.1     1  LIG1       -0.0664
     20 C          -3.6549    2.3670   -1.1210 C.1     1  LIG1       -0.1138
     21 H          -3.7269    3.3964   -1.3864 H       1  LIG1        0.1232
     22 S          -5.8745   -1.0476   -1.7302 S.3     1  LIG1       -0.1393
     23 H          -6.7097   -1.6146   -0.8492 H       1  LIG1        0.1072
     24 C          -4.4397   -3.7381   -0.1967 C.ar    1  LIG1        0.0811
     25 C          -5.6537   -4.2337    0.2482 C.ar    1  LIG1        0.0652
     26 C          -5.6641   -5.6386   -0.0106 C.ar    1  LIG1        0.0476
     27 C          -4.4551   -5.9451   -0.5990 C.ar    1  LIG1        0.0791
     28 N          -3.7282   -4.7861   -0.6923 N.ar    1  LIG1       -0.3500
     29 H          -2.7994   -4.7200   -1.0815 H       1  LIG1        0.1661
     30 C          -6.6863   -3.4536    0.8584 C.1     1  LIG1       -0.0664
     31 C          -7.5539   -2.7893    1.3609 C.1     1  LIG1       -0.1138
     32 H          -8.3231   -2.2124    1.8198 H       1  LIG1        0.1232
     33 S          -7.0397   -6.7043    0.2836 S.3     1  LIG1       -0.1393
     34 H          -6.3339   -7.6912    0.8562 H       1  LIG1        0.1072
     35 C          -3.9291   -7.2183   -1.0918 C.ar    1  LIG1        0.0807
     36 C          -3.7728   -8.4292   -0.4418 C.ar    1  LIG1        0.0645
     37 C          -3.2115   -9.3456   -1.3839 C.ar    1  LIG1        0.0381
     38 C          -3.0391   -8.6599   -2.5586 C.ar    1  LIG1        0.0167
     39 N          -3.4768   -7.3771   -2.3661 N.ar    1  LIG1       -0.3575
     40 H          -3.5745   -6.6808   -3.0892 H       1  LIG1        0.1654
     41 H          -2.6481   -8.9862   -3.5063 H       1  LIG1        0.0818
     42 C          -4.0939   -8.6924    0.9266 C.1     1  LIG1       -0.0664
     43 C          -4.3730   -8.9240    2.0739 C.1     1  LIG1       -0.1138
     44 H          -4.6103   -9.1316    3.0918 H       1  LIG1        0.1232
     45 S          -2.8213  -11.0221   -0.9821 S.3     1  LIG1       -0.1400
     46 H          -2.6200  -11.4141   -2.2453 H       1  LIG1        0.1072
@<TRIPOS>BOND
     1    41    38    1
     2    40    39    1
     3    38    39   ar
     4    38    37   ar
     5    39    35   ar
     6    46    45    1
     7    22    23    1
     8    22    15    1
     9    12    11    1
    10    11     3    1
    11    21    20    1
    12    37    45    1
    13    37    36   ar
    14    20    19    3
    15    35    27    1
    16    35    36   ar
    17    29    28    1
    18    19    14    1
    19    15    14   ar
    20    15    16   ar
    21    28    27   ar
    22    28    24   ar
    23    27    26   ar
    24    36    42    1
    25    14    13   ar
    26    24    16    1
    27    24    25   ar
    28    16    17   ar
    29    26    25   ar
    30    26    33    1
    31     3     4   ar
    32     3     2   ar
    33    25    30    1
    34    33    34    1
    35    13    17   ar
    36    13     4    1
    37    17    18    1
    38    10     9    1
    39     4     5   ar
    40    30    31    3
    41    42    43    3
    42     9     8    3
    43     8     2    1
    44     2     1   ar
    45    31    32    1
    46    43    44    1
    47     5     1   ar
    48     5     6    1
    49     1     7    1
