@<TRIPOS>MOLECULE
mol_data/opt/m06hf/geoms/mol2/13eg13eg-13eg.out
 35 37 0 0 0
SMALL
GASTEIGER

@<TRIPOS>ATOM
      1 C           0.7018    0.1892   -1.6202 C.ar    1  LIG1        0.0188
      2 C           0.8140    0.9435   -0.4710 C.ar    1  LIG1        0.0557
      3 C          -0.3660    0.7076    0.3048 C.ar    1  LIG1        0.0469
      4 C          -1.1409   -0.1816   -0.4053 C.ar    1  LIG1        0.0787
      5 N          -0.4780   -0.4796   -1.5697 N.ar    1  LIG1       -0.3575
      6 H          -0.8687   -1.0315   -2.3180 H       1  LIG1        0.1654
      7 H           1.3755    0.1028   -2.4543 H       1  LIG1        0.0820
      8 C           1.9166    1.7920   -0.1292 C.1     1  LIG1       -0.0671
      9 C           2.8408    2.5028    0.1595 C.1     1  LIG1       -0.1138
     10 H           3.6566    3.1344    0.4228 H       1  LIG1        0.1232
     11 S          -0.6864    1.3588    1.9143 S.3     1  LIG1       -0.1394
     12 H          -1.8736    1.9092    1.6161 H       1  LIG1        0.1072
     13 C          -2.4436   -0.7653   -0.0831 C.ar    1  LIG1        0.0811
     14 C          -3.6583   -0.1490    0.1668 C.ar    1  LIG1        0.0652
     15 C          -4.6160   -1.1776    0.4223 C.ar    1  LIG1        0.0476
     16 C          -3.9489   -2.3798    0.3178 C.ar    1  LIG1        0.0791
     17 N          -2.6425   -2.1080    0.0019 N.ar    1  LIG1       -0.3500
     18 H          -1.9280   -2.8055   -0.1465 H       1  LIG1        0.1661
     19 C          -3.8742    1.2655    0.1558 C.1     1  LIG1       -0.0664
     20 C          -4.0379    2.4570    0.1521 C.1     1  LIG1       -0.1138
     21 H          -4.1959    3.5105    0.1322 H       1  LIG1        0.1232
     22 S          -6.3046   -0.9105    0.8664 S.3     1  LIG1       -0.1393
     23 H          -6.8120   -1.8017    0.0036 H       1  LIG1        0.1072
     24 C          -4.4181   -3.7519    0.5125 C.ar    1  LIG1        0.0807
     25 C          -5.4420   -4.4457   -0.1073 C.ar    1  LIG1        0.0645
     26 C          -5.4714   -5.7553    0.4642 C.ar    1  LIG1        0.0381
     27 C          -4.4681   -5.8106    1.3967 C.ar    1  LIG1        0.0167
     28 N          -3.8373   -4.5955    1.4093 N.ar    1  LIG1       -0.3575
     29 H          -3.1288   -4.3122    2.0689 H       1  LIG1        0.1654
     30 H          -4.1646   -6.6105    2.0496 H       1  LIG1        0.0818
     31 C          -6.2897   -3.9388   -1.1412 C.1     1  LIG1       -0.0664
     32 C          -7.0129   -3.5139   -2.0038 C.1     1  LIG1       -0.1138
     33 H          -7.6466   -3.1460   -2.7774 H       1  LIG1        0.1232
     34 S          -6.6337   -6.9962   -0.0207 S.3     1  LIG1       -0.1400
     35 H          -6.1108   -7.9590    0.7464 H       1  LIG1        0.1072
@<TRIPOS>BOND
     1    33    32    1
     2     7     1    1
     3     6     5    1
     4    32    31    3
     5     1     5   ar
     6     1     2   ar
     7     5     4   ar
     8    31    25    1
     9     2     8    1
    10     2     3   ar
    11     4    13    1
    12     4     3   ar
    13    18    17    1
    14     8     9    3
    15    25    26   ar
    16    25    24   ar
    17    13    17   ar
    18    13    14   ar
    19    34    26    1
    20    34    35    1
    21    17    16   ar
    22    23    22    1
    23    21    20    1
    24    20    19    3
    25    19    14    1
    26     9    10    1
    27    14    15   ar
    28     3    11    1
    29    16    15   ar
    30    16    24    1
    31    15    22    1
    32    26    27   ar
    33    24    28   ar
    34    27    28   ar
    35    27    30    1
    36    28    29    1
    37    12    11    1
