@<TRIPOS>MOLECULE
mol_data/opt/m06hf/geoms/mol2/13eg13eg13eg13eg-.out
 46 49 0 0 0
SMALL
GASTEIGER

@<TRIPOS>ATOM
      1 C           1.2084    0.0792    0.3537 C.ar    1  LIG1        0.0188
      2 C           0.7476    1.2091   -0.2884 C.ar    1  LIG1        0.0557
      3 C          -0.6715    1.0711   -0.4226 C.ar    1  LIG1        0.0469
      4 C          -1.0104   -0.1388    0.1415 C.ar    1  LIG1        0.0787
      5 N           0.1434   -0.7216    0.6076 N.ar    1  LIG1       -0.3575
      6 H           0.1651   -1.5665    1.1565 H       1  LIG1        0.1654
      7 H           2.2096   -0.1837    0.6464 H       1  LIG1        0.0820
      8 C           1.5524    2.3050   -0.7396 C.1     1  LIG1       -0.0671
      9 C           2.2240    3.2248   -1.1216 C.1     1  LIG1       -0.1138
     10 H           2.8130    4.0436   -1.4630 H       1  LIG1        0.1232
     11 S          -1.7276    2.2159   -1.2545 S.3     1  LIG1       -0.1394
     12 H          -2.6326    2.3110   -0.2686 H       1  LIG1        0.1072
     13 C          -2.3064   -0.8013    0.2855 C.ar    1  LIG1        0.0811
     14 C          -3.4799   -0.3606    0.8699 C.ar    1  LIG1        0.0652
     15 C          -4.4449   -1.4101    0.7466 C.ar    1  LIG1        0.0476
     16 C          -3.8195   -2.4513    0.0946 C.ar    1  LIG1        0.0791
     17 N          -2.5268   -2.0662   -0.1715 N.ar    1  LIG1       -0.3500
     18 H          -1.9126   -2.5453   -0.8135 H       1  LIG1        0.1661
     19 C          -3.6528    0.9051    1.5143 C.1     1  LIG1       -0.0664
     20 C          -3.7858    1.9751    2.0471 C.1     1  LIG1       -0.1138
     21 H          -3.9052    2.9173    2.5301 H       1  LIG1        0.1232
     22 S          -6.0547   -1.3615    1.4676 S.3     1  LIG1       -0.1393
     23 H          -6.7009   -1.9088    0.4288 H       1  LIG1        0.1072
     24 C          -4.2990   -3.7800   -0.2798 C.ar    1  LIG1        0.0811
     25 C          -5.4436   -4.1767   -0.9494 C.ar    1  LIG1        0.0652
     26 C          -5.4163   -5.6045   -1.0393 C.ar    1  LIG1        0.0476
     27 C          -4.2503   -6.0208   -0.4365 C.ar    1  LIG1        0.0791
     28 N          -3.5875   -4.9057    0.0148 N.ar    1  LIG1       -0.3500
     29 H          -2.8158   -4.9309    0.6650 H       1  LIG1        0.1661
     30 C          -6.4288   -3.2970   -1.4995 C.1     1  LIG1       -0.0664
     31 C          -7.2522   -2.5495   -1.9588 C.1     1  LIG1       -0.1138
     32 H          -7.9751   -1.8910   -2.3830 H       1  LIG1        0.1232
     33 S          -6.6175   -6.5871   -1.8826 S.3     1  LIG1       -0.1393
     34 H          -6.7806   -7.4785   -0.8932 H       1  LIG1        0.1072
     35 C          -3.6938   -7.3613   -0.2559 C.ar    1  LIG1        0.0807
     36 C          -4.2405   -8.4881    0.3319 C.ar    1  LIG1        0.0645
     37 C          -3.2636   -9.5280    0.2409 C.ar    1  LIG1        0.0381
     38 C          -2.1673   -8.9971   -0.3884 C.ar    1  LIG1        0.0167
     39 N          -2.4396   -7.6862   -0.6741 N.ar    1  LIG1       -0.3575
     40 H          -1.8536   -7.0746   -1.2201 H       1  LIG1        0.1654
     41 H          -1.2300   -9.4516   -0.6577 H       1  LIG1        0.0818
     42 C          -5.5330   -8.5727    0.9375 C.1     1  LIG1       -0.0664
     43 C          -6.6231   -8.6509    1.4406 C.1     1  LIG1       -0.1138
     44 H          -7.5814   -8.7174    1.9014 H       1  LIG1        0.1232
     45 S          -3.5263  -11.1638    0.8563 S.3     1  LIG1       -0.1400
     46 H          -2.2689  -11.5749    0.6563 H       1  LIG1        0.1072
@<TRIPOS>BOND
     1    32    31    1
     2    31    30    3
     3    33    26    1
     4    33    34    1
     5    30    25    1
     6    10     9    1
     7    11     3    1
     8    11    12    1
     9    40    39    1
    10     9     8    3
    11    26    25   ar
    12    26    27   ar
    13    25    24   ar
    14    18    17    1
    15     8     2    1
    16    39    38   ar
    17    39    35   ar
    18    41    38    1
    19    27    35    1
    20    27    28   ar
    21     3     2   ar
    22     3     4   ar
    23    38    37   ar
    24     2     1   ar
    25    24    28   ar
    26    24    16    1
    27    35    36   ar
    28    17    16   ar
    29    17    13   ar
    30    28    29    1
    31    16    15   ar
    32     4    13    1
    33     4     5   ar
    34    37    36   ar
    35    37    45    1
    36    13    14   ar
    37    36    42    1
    38     1     5   ar
    39     1     7    1
    40    23    22    1
    41     5     6    1
    42    46    45    1
    43    15    14   ar
    44    15    22    1
    45    14    19    1
    46    42    43    3
    47    43    44    1
    48    19    20    3
    49    20    21    1
