@<TRIPOS>MOLECULE
mol_data/opt/m06hf/geoms/mol2/13eg13eg13eg-13eg-.out
 46 49 0 0 0
SMALL
GASTEIGER

@<TRIPOS>ATOM
      1 C           0.3451    0.8786    1.8575 C.ar    1  LIG1        0.0188
      2 C           0.6789    1.2533    0.5728 C.ar    1  LIG1        0.0557
      3 C          -0.3265    0.7215   -0.2969 C.ar    1  LIG1        0.0469
      4 C          -1.2251    0.0449    0.4971 C.ar    1  LIG1        0.0787
      5 N          -0.8010    0.1554    1.7991 N.ar    1  LIG1       -0.3575
      6 H          -1.3358   -0.1560    2.5954 H       1  LIG1        0.1654
      7 H           0.8428    1.0932    2.7866 H       1  LIG1        0.0820
      8 C           1.8269    2.0221    0.1931 C.1     1  LIG1       -0.0671
      9 C           2.7909    2.6636   -0.1276 C.1     1  LIG1       -0.1138
     10 H           3.6418    3.2348   -0.4186 H       1  LIG1        0.1232
     11 S          -0.3194    0.8472   -2.0586 S.3     1  LIG1       -0.1394
     12 H          -1.5893    1.2591   -2.1770 H       1  LIG1        0.1072
     13 C          -2.4356   -0.6980    0.1456 C.ar    1  LIG1        0.0811
     14 C          -3.5807   -0.2872   -0.5161 C.ar    1  LIG1        0.0652
     15 C          -4.4662   -1.4073   -0.5776 C.ar    1  LIG1        0.0476
     16 C          -3.8277   -2.4556    0.0506 C.ar    1  LIG1        0.0791
     17 N          -2.6089   -2.0048    0.4854 N.ar    1  LIG1       -0.3500
     18 H          -1.9301   -2.5623    0.9816 H       1  LIG1        0.1661
     19 C          -3.8034    1.0326   -1.0222 C.1     1  LIG1       -0.0664
     20 C          -3.9676    2.1438   -1.4519 C.1     1  LIG1       -0.1138
     21 H          -4.1242    3.1313   -1.8199 H       1  LIG1        0.1232
     22 S          -6.0342   -1.4381   -1.3888 S.3     1  LIG1       -0.1393
     23 H          -6.7373   -1.8307   -0.3160 H       1  LIG1        0.1072
     24 C          -4.2622   -3.8356    0.2687 C.ar    1  LIG1        0.0811
     25 C          -5.3930   -4.3230    0.8984 C.ar    1  LIG1        0.0652
     26 C          -5.3414   -5.7505    0.8282 C.ar    1  LIG1        0.0476
     27 C          -4.1786   -6.0752    0.1625 C.ar    1  LIG1        0.0791
     28 N          -3.5387   -4.9062   -0.1655 N.ar    1  LIG1       -0.3500
     29 H          -2.7697   -4.8419   -0.8172 H       1  LIG1        0.1661
     30 C          -6.3931   -3.5191    1.5316 C.1     1  LIG1       -0.0664
     31 C          -7.2322   -2.8371    2.0583 C.1     1  LIG1       -0.1138
     32 H          -7.9752   -2.2438    2.5390 H       1  LIG1        0.1232
     33 S          -6.4988   -6.8432    1.5905 S.3     1  LIG1       -0.1393
     34 H          -6.7275   -7.5904    0.5014 H       1  LIG1        0.1072
     35 C          -3.6156   -7.3774   -0.1913 C.ar    1  LIG1        0.0807
     36 C          -4.1792   -8.4397   -0.8759 C.ar    1  LIG1        0.0645
     37 C          -3.1881   -9.4675   -0.9501 C.ar    1  LIG1        0.0381
     38 C          -2.0666   -8.9923   -0.3211 C.ar    1  LIG1        0.0167
     39 N          -2.3381   -7.7263    0.1244 N.ar    1  LIG1       -0.3575
     40 H          -1.7282   -7.1690    0.7016 H       1  LIG1        0.1654
     41 H          -1.1109   -9.4574   -0.1532 H       1  LIG1        0.0818
     42 C          -5.4953   -8.4745   -1.4333 C.1     1  LIG1       -0.0664
     43 C          -6.6041   -8.5115   -1.8987 C.1     1  LIG1       -0.1138
     44 H          -7.5793   -8.5381   -2.3271 H       1  LIG1        0.1232
     45 S          -3.4626  -11.0271   -1.7353 S.3     1  LIG1       -0.1400
     46 H          -2.1923  -11.4362   -1.6417 H       1  LIG1        0.1072
@<TRIPOS>BOND
     1    44    43    1
     2    12    11    1
     3    11     3    1
     4    43    42    3
     5    21    20    1
     6    45    46    1
     7    45    37    1
     8    20    19    3
     9    42    36    1
    10    22    15    1
    11    22    23    1
    12    19    14    1
    13    37    36   ar
    14    37    38   ar
    15    36    35   ar
    16    29    28    1
    17    15    14   ar
    18    15    16   ar
    19    14    13   ar
    20    10     9    1
    21    38    41    1
    22    38    39   ar
    23     3     4   ar
    24     3     2   ar
    25    35    39   ar
    26    35    27    1
    27    28    27   ar
    28    28    24   ar
    29     9     8    3
    30    16    24    1
    31    16    17   ar
    32    39    40    1
    33    13    17   ar
    34    13     4    1
    35    27    26   ar
    36     8     2    1
    37    24    25   ar
    38    17    18    1
    39     4     5   ar
    40    34    33    1
    41     2     1   ar
    42    26    25   ar
    43    26    33    1
    44    25    30    1
    45    30    31    3
    46     5     1   ar
    47     5     6    1
    48     1     7    1
    49    31    32    1
