@<TRIPOS>MOLECULE
mol_data/opt/m06hf/geoms/mol2/13eg.out
 13 13 0 0 0
SMALL
GASTEIGER

@<TRIPOS>ATOM
      1 C           1.1347   -0.4263   -0.0002 C.ar    1  LIG1        0.0183
      2 C           0.7275    0.8905    0.0002 C.ar    1  LIG1        0.0551
      3 C          -0.7042    0.8843    0.0005 C.ar    1  LIG1        0.0375
      4 C          -1.1029   -0.4261    0.0004 C.ar    1  LIG1        0.0161
      5 N           0.0255   -1.2057   -0.0000 N.ar    1  LIG1       -0.3650
      6 H           0.0276   -2.2121   -0.0002 H       1  LIG1        0.1648
      7 H          -2.0880   -0.8586    0.0006 H       1  LIG1        0.0818
      8 H           2.1292   -0.8364   -0.0005 H       1  LIG1        0.0819
      9 C           1.5698    2.0483    0.0001 C.1     1  LIG1       -0.0671
     10 C           2.2575    3.0341    0.0001 C.1     1  LIG1       -0.1138
     11 H           2.8684    3.9066    0.0000 H       1  LIG1        0.1232
     12 S          -1.6749    2.3611    0.0011 S.3     1  LIG1       -0.1400
     13 H          -2.8568    1.7348   -0.0002 H       1  LIG1        0.1072
@<TRIPOS>BOND
     1     8     1    1
     2    13    12    1
     3     6     5    1
     4     1     5   ar
     5     1     2   ar
     6     5     4   ar
     7    11    10    1
     8    10     9    3
     9     9     2    1
    10     2     3   ar
    11     4     3   ar
    12     4     7    1
    13     3    12    1
