@<TRIPOS>MOLECULE
mol_data/opt/m06hf/geoms/mol2/13eg13eg.out
 24 25 0 0 0
SMALL
GASTEIGER

@<TRIPOS>ATOM
      1 C           1.0737   -0.1777    0.7927 C.ar    1  LIG1        0.0188
      2 C           0.8376    0.9457    0.0284 C.ar    1  LIG1        0.0557
      3 C          -0.5169    0.8684   -0.4308 C.ar    1  LIG1        0.0469
      4 C          -1.0435   -0.3006    0.0720 C.ar    1  LIG1        0.0787
      5 N          -0.0632   -0.9162    0.8133 N.ar    1  LIG1       -0.3575
      6 H          -0.2173   -1.7383    1.3763 H       1  LIG1        0.1654
      7 H           1.9639   -0.4767    1.3174 H       1  LIG1        0.0820
      8 C           1.7861    1.9814   -0.2570 C.1     1  LIG1       -0.0671
      9 C           2.5818    2.8484   -0.5008 C.1     1  LIG1       -0.1138
     10 H           3.2811    3.6213   -0.7210 H       1  LIG1        0.1232
     11 S          -1.2792    2.0294   -1.5212 S.3     1  LIG1       -0.1394
     12 H          -2.4309    2.1208   -0.8444 H       1  LIG1        0.1072
     13 C          -2.3679   -0.9028   -0.0832 C.ar    1  LIG1        0.0806
     14 C          -3.6254   -0.3918    0.1843 C.ar    1  LIG1        0.0645
     15 C          -4.5748   -1.4104   -0.1414 C.ar    1  LIG1        0.0381
     16 C          -3.8649   -2.4966   -0.5820 C.ar    1  LIG1        0.0167
     17 N          -2.5345   -2.1752   -0.5385 N.ar    1  LIG1       -0.3575
     18 H          -1.7835   -2.7444   -0.8965 H       1  LIG1        0.1654
     19 H          -4.2026   -3.4600   -0.9227 H       1  LIG1        0.0818
     20 C          -3.9066    0.9069    0.7128 C.1     1  LIG1       -0.0664
     21 C          -4.1490    2.0028    1.1465 C.1     1  LIG1       -0.1138
     22 H          -4.3628    2.9688    1.5419 H       1  LIG1        0.1232
     23 S          -6.3182   -1.2029    0.0563 S.3     1  LIG1       -0.1400
     24 H          -6.6465   -2.3918   -0.4599 H       1  LIG1        0.1072
@<TRIPOS>BOND
     1    11    12    1
     2    11     3    1
     3    19    16    1
     4    18    17    1
     5    10     9    1
     6    16    17   ar
     7    16    15   ar
     8    17    13   ar
     9     9     8    3
    10    24    23    1
    11     3     2   ar
    12     3     4   ar
    13     8     2    1
    14    15    23    1
    15    15    14   ar
    16    13     4    1
    17    13    14   ar
    18     2     1   ar
    19     4     5   ar
    20    14    20    1
    21    20    21    3
    22     1     5   ar
    23     1     7    1
    24     5     6    1
    25    21    22    1
