@<TRIPOS>MOLECULE
mol_data/opt/m06hf/geoms/mol2/13eg13eg13eg13eg.out
 46 49 0 0 0
SMALL
GASTEIGER

@<TRIPOS>ATOM
      1 C           1.2129    0.0753    0.3360 C.ar    1  LIG1        0.0188
      2 C           0.7485    1.2070   -0.3003 C.ar    1  LIG1        0.0557
      3 C          -0.6716    1.0701   -0.4252 C.ar    1  LIG1        0.0469
      4 C          -1.0075   -0.1409    0.1382 C.ar    1  LIG1        0.0787
      5 N           0.1491   -0.7255    0.5951 N.ar    1  LIG1       -0.3575
      6 H           0.1739   -1.5718    1.1417 H       1  LIG1        0.1654
      7 H           2.2158   -0.1890    0.6214 H       1  LIG1        0.0820
      8 C           1.5510    2.3034   -0.7542 C.1     1  LIG1       -0.0671
      9 C           2.2207    3.2237   -1.1383 C.1     1  LIG1       -0.1138
     10 H           2.8078    4.0433   -1.4812 H       1  LIG1        0.1232
     11 S          -1.7328    2.2174   -1.2474 S.3     1  LIG1       -0.1394
     12 H          -2.6290    2.3137   -0.2536 H       1  LIG1        0.1072
     13 C          -2.3029   -0.8029    0.2894 C.ar    1  LIG1        0.0811
     14 C          -3.4720   -0.3627    0.8829 C.ar    1  LIG1        0.0652
     15 C          -4.4387   -1.4111    0.7635 C.ar    1  LIG1        0.0476
     16 C          -3.8186   -2.4512    0.1046 C.ar    1  LIG1        0.0791
     17 N          -2.5273   -2.0665   -0.1690 N.ar    1  LIG1       -0.3500
     18 H          -1.9180   -2.5443   -0.8167 H       1  LIG1        0.1661
     19 C          -3.6395    0.9016    1.5316 C.1     1  LIG1       -0.0664
     20 C          -3.7681    1.9704    2.0678 C.1     1  LIG1       -0.1138
     21 H          -3.8833    2.9115    2.5539 H       1  LIG1        0.1232
     22 S          -6.0435   -1.3629    1.4957 S.3     1  LIG1       -0.1393
     23 H          -6.6972   -1.9083    0.4606 H       1  LIG1        0.1072
     24 C          -4.3015   -3.7786   -0.2700 C.ar    1  LIG1        0.0811
     25 C          -5.4510   -4.1729   -0.9325 C.ar    1  LIG1        0.0652
     26 C          -5.4251   -5.6005   -1.0263 C.ar    1  LIG1        0.0476
     27 C          -4.2550   -6.0189   -0.4330 C.ar    1  LIG1        0.0791
     28 N          -3.5883   -4.9053    0.0164 N.ar    1  LIG1       -0.3500
     29 H          -2.8121   -4.9327    0.6611 H       1  LIG1        0.1661
     30 C          -6.4397   -3.2914   -1.4732 C.1     1  LIG1       -0.0664
     31 C          -7.2659   -2.5423   -1.9249 C.1     1  LIG1       -0.1138
     32 H          -7.9915   -1.8823   -2.3422 H       1  LIG1        0.1232
     33 S          -6.6328   -6.5807   -1.8631 S.3     1  LIG1       -0.1393
     34 H          -6.7893   -7.4742   -0.8745 H       1  LIG1        0.1072
     35 C          -3.6978   -7.3602   -0.2600 C.ar    1  LIG1        0.0807
     36 C          -4.2406   -8.4882    0.3292 C.ar    1  LIG1        0.0645
     37 C          -3.2651   -9.5284    0.2280 C.ar    1  LIG1        0.0381
     38 C          -2.1732   -8.9964   -0.4080 C.ar    1  LIG1        0.0167
     39 N          -2.4470   -7.6847   -0.6884 N.ar    1  LIG1       -0.3575
     40 H          -1.8647   -7.0719   -1.2371 H       1  LIG1        0.1654
     41 H          -1.2382   -9.4507   -0.6855 H       1  LIG1        0.0818
     42 C          -5.5287   -8.5735    0.9441 C.1     1  LIG1       -0.0664
     43 C          -6.6151   -8.6521    1.4550 C.1     1  LIG1       -0.1138
     44 H          -7.5701   -8.7191    1.9226 H       1  LIG1        0.1232
     45 S          -3.5240  -11.1657    0.8409 S.3     1  LIG1       -0.1400
     46 H          -2.2680  -11.5763    0.6318 H       1  LIG1        0.1072
@<TRIPOS>BOND
     1    32    31    1
     2    31    30    3
     3    33    26    1
     4    33    34    1
     5    10     9    1
     6    30    25    1
     7    11     3    1
     8    11    12    1
     9    40    39    1
    10     9     8    3
    11    26    25   ar
    12    26    27   ar
    13    25    24   ar
    14    18    17    1
    15     8     2    1
    16    39    38   ar
    17    39    35   ar
    18    41    38    1
    19    27    35    1
    20    27    28   ar
    21     3     2   ar
    22     3     4   ar
    23    38    37   ar
    24     2     1   ar
    25    24    28   ar
    26    24    16    1
    27    35    36   ar
    28    17    16   ar
    29    17    13   ar
    30    28    29    1
    31    16    15   ar
    32     4    13    1
    33     4     5   ar
    34    37    36   ar
    35    37    45    1
    36    13    14   ar
    37    36    42    1
    38     1     5   ar
    39     1     7    1
    40    23    22    1
    41     5     6    1
    42    46    45    1
    43    15    14   ar
    44    15    22    1
    45    14    19    1
    46    42    43    3
    47    43    44    1
    48    19    20    3
    49    20    21    1
