@<TRIPOS>MOLECULE
mol_data/opt/m06hf/geoms/mol2/13eg13eg-13eg-13eg-.out
 46 49 0 0 0
SMALL
GASTEIGER

@<TRIPOS>ATOM
      1 C           1.2097    0.0800   -0.3588 C.ar    1  LIG1        0.0188
      2 C           0.7534    1.2011    0.3018 C.ar    1  LIG1        0.0557
      3 C          -0.6651    1.0624    0.4417 C.ar    1  LIG1        0.0469
      4 C          -1.0082   -0.1390   -0.1379 C.ar    1  LIG1        0.0787
      5 N           0.1426   -0.7161   -0.6184 N.ar    1  LIG1       -0.3575
      6 H           0.1605   -1.5531   -1.1794 H       1  LIG1        0.1654
      7 H           2.2090   -0.1797   -0.6606 H       1  LIG1        0.0820
      8 C           1.5617    2.2897    0.7642 C.1     1  LIG1       -0.0671
      9 C           2.2363    3.2033    1.1557 C.1     1  LIG1       -0.1138
     10 H           2.8278    4.0168    1.5055 H       1  LIG1        0.1232
     11 S          -1.7158    2.1960    1.2956 S.3     1  LIG1       -0.1394
     12 H          -2.6246    2.3080    0.3150 H       1  LIG1        0.1072
     13 C          -2.3057   -0.7980   -0.2846 C.ar    1  LIG1        0.0811
     14 C          -3.4816   -0.3478   -0.8565 C.ar    1  LIG1        0.0652
     15 C          -4.4472   -1.3980   -0.7431 C.ar    1  LIG1        0.0476
     16 C          -3.8195   -2.4491   -0.1093 C.ar    1  LIG1        0.0791
     17 N          -2.5250   -2.0691    0.1555 N.ar    1  LIG1       -0.3500
     18 H          -1.9081   -2.5578    0.7876 H       1  LIG1        0.1661
     19 C          -3.6565    0.9271   -1.4818 C.1     1  LIG1       -0.0664
     20 C          -3.7912    2.0046   -1.9989 C.1     1  LIG1       -0.1138
     21 H          -3.9122    2.9536   -2.4679 H       1  LIG1        0.1232
     22 S          -6.0606   -1.3374   -1.4551 S.3     1  LIG1       -0.1393
     23 H          -6.7021   -1.8994   -0.4213 H       1  LIG1        0.1072
     24 C          -4.2983   -3.7826    0.2485 C.ar    1  LIG1        0.0811
     25 C          -5.4399   -4.1879    0.9181 C.ar    1  LIG1        0.0652
     26 C          -5.4135   -5.6169    0.9874 C.ar    1  LIG1        0.0476
     27 C          -4.2509   -6.0254    0.3728 C.ar    1  LIG1        0.0791
     28 N          -3.5894   -4.9045   -0.0659 N.ar    1  LIG1       -0.3500
     29 H          -2.8208   -4.9211   -0.7201 H       1  LIG1        0.1661
     30 C          -6.4215   -3.3154    1.4857 C.1     1  LIG1       -0.0664
     31 C          -7.2420   -2.5739    1.9599 C.1     1  LIG1       -0.1138
     32 H          -7.9622   -1.9209    2.3971 H       1  LIG1        0.1232
     33 S          -6.6113   -6.6106    1.8223 S.3     1  LIG1       -0.1393
     34 H          -6.7800   -7.4875    0.8210 H       1  LIG1        0.1072
     35 C          -3.6965   -7.3637    0.1702 C.ar    1  LIG1        0.0807
     36 C          -4.2472   -8.4815   -0.4309 C.ar    1  LIG1        0.0645
     37 C          -3.2707   -9.5235   -0.3597 C.ar    1  LIG1        0.0381
     38 C          -2.1709   -9.0025    0.2716 C.ar    1  LIG1        0.0167
     39 N          -2.4405   -7.6956    0.5774 N.ar    1  LIG1       -0.3575
     40 H          -1.8512   -7.0923    1.1291 H       1  LIG1        0.1654
     41 H          -1.2327   -9.4616    0.5297 H       1  LIG1        0.0818
     42 C          -5.5429   -8.5564   -1.0310 C.1     1  LIG1       -0.0664
     43 C          -6.6355   -8.6263   -1.5297 C.1     1  LIG1       -0.1138
     44 H          -7.5963   -8.6853   -1.9865 H       1  LIG1        0.1232
     45 S          -3.5380  -11.1500   -0.9972 S.3     1  LIG1       -0.1400
     46 H          -2.2800  -11.5649   -0.8094 H       1  LIG1        0.1072
@<TRIPOS>BOND
     1    21    20    1
     2    20    19    3
     3    44    43    1
     4    43    42    3
     5    19    14    1
     6    22    15    1
     7    22    23    1
     8     6     5    1
     9    42    36    1
    10    45    46    1
    11    45    37    1
    12    14    15   ar
    13    14    13   ar
    14    15    16   ar
    15    29    28    1
    16     7     1    1
    17     5     1   ar
    18     5     4   ar
    19    36    37   ar
    20    36    35   ar
    21    37    38   ar
    22     1     2   ar
    23    13     4    1
    24    13    17   ar
    25     4     3   ar
    26    16    17   ar
    27    16    24    1
    28    28    24   ar
    29    28    27   ar
    30    17    18    1
    31    35    27    1
    32    35    39   ar
    33    24    25   ar
    34    38    41    1
    35    38    39   ar
    36     2     3   ar
    37     2     8    1
    38    12    11    1
    39    27    26   ar
    40     3    11    1
    41    39    40    1
    42     8     9    3
    43    34    33    1
    44    25    26   ar
    45    25    30    1
    46    26    33    1
    47     9    10    1
    48    30    31    3
    49    31    32    1
