@<TRIPOS>MOLECULE
mol_data/opt/m06hf/geoms/mol2/13eg13eg-13eg-.out
 35 37 0 0 0
SMALL
GASTEIGER

@<TRIPOS>ATOM
      1 C           1.1834   -0.0404   -0.4313 C.ar    1  LIG1        0.0188
      2 C           0.7746    0.9463    0.4409 C.ar    1  LIG1        0.0557
      3 C          -0.6446    0.8228    0.5852 C.ar    1  LIG1        0.0469
      4 C          -1.0361   -0.2358   -0.2046 C.ar    1  LIG1        0.0787
      5 N           0.0875   -0.7428   -0.8126 N.ar    1  LIG1       -0.3575
      6 H           0.0699   -1.4548   -1.5254 H       1  LIG1        0.1654
      7 H           2.1689   -0.2681   -0.7982 H       1  LIG1        0.0820
      8 C           1.6248    1.9026    1.0854 C.1     1  LIG1       -0.0671
      9 C           2.3328    2.7058    1.6301 C.1     1  LIG1       -0.1138
     10 H           2.9535    3.4221    2.1152 H       1  LIG1        0.1232
     11 S          -1.6368    1.7975    1.6729 S.3     1  LIG1       -0.1394
     12 H          -2.5977    2.0660    0.7797 H       1  LIG1        0.1072
     13 C          -2.3541   -0.8336   -0.4164 C.ar    1  LIG1        0.0811
     14 C          -3.5512   -0.2630   -0.8121 C.ar    1  LIG1        0.0652
     15 C          -4.5364   -1.3001   -0.8298 C.ar    1  LIG1        0.0476
     16 C          -3.8986   -2.4626   -0.4555 C.ar    1  LIG1        0.0791
     17 N          -2.5816   -2.1626   -0.2132 N.ar    1  LIG1       -0.3500
     18 H          -1.9373   -2.7777    0.2622 H       1  LIG1        0.1661
     19 C          -3.7295    1.1102   -1.1714 C.1     1  LIG1       -0.0664
     20 C          -3.8683    2.2681   -1.4649 C.1     1  LIG1       -0.1138
     21 H          -3.9959    3.2895   -1.7402 H       1  LIG1        0.1232
     22 S          -6.2133   -1.1142   -1.3522 S.3     1  LIG1       -0.1393
     23 H          -6.7574   -1.6285   -0.2403 H       1  LIG1        0.1072
     24 C          -4.4153   -3.8217   -0.2958 C.ar    1  LIG1        0.0807
     25 C          -5.4648   -4.2907    0.4741 C.ar    1  LIG1        0.0645
     26 C          -5.5376   -5.7039    0.2724 C.ar    1  LIG1        0.0381
     27 C          -4.5342   -6.0388   -0.5998 C.ar    1  LIG1        0.0167
     28 N          -3.8603   -4.8925   -0.9267 N.ar    1  LIG1       -0.3575
     29 H          -3.1378   -4.8205   -1.6255 H       1  LIG1        0.1654
     30 H          -4.2557   -6.9941   -1.0099 H       1  LIG1        0.0818
     31 C          -6.2902   -3.5021    1.3348 C.1     1  LIG1       -0.0664
     32 C          -6.9931   -2.8455    2.0573 C.1     1  LIG1       -0.1138
     33 H          -7.6049   -2.2694    2.7124 H       1  LIG1        0.1232
     34 S          -6.7375   -6.7354    1.0593 S.3     1  LIG1       -0.1400
     35 H          -6.2180   -7.8848    0.6139 H       1  LIG1        0.1072
@<TRIPOS>BOND
     1    21    20    1
     2    29    28    1
     3     6     5    1
     4    20    19    3
     5    22    15    1
     6    22    23    1
     7    19    14    1
     8    30    27    1
     9    28    27   ar
    10    28    24   ar
    11    15    14   ar
    12    15    16   ar
    13     5     1   ar
    14     5     4   ar
    15    14    13   ar
    16     7     1    1
    17    27    26   ar
    18    16    24    1
    19    16    17   ar
    20     1     2   ar
    21    13    17   ar
    22    13     4    1
    23    24    25   ar
    24    17    18    1
    25     4     3   ar
    26    26    25   ar
    27    26    34    1
    28     2     3   ar
    29     2     8    1
    30    25    31    1
    31     3    11    1
    32    35    34    1
    33    12    11    1
    34     8     9    3
    35    31    32    3
    36     9    10    1
    37    32    33    1
