@<TRIPOS>MOLECULE
mol_data/opt/m06hf/geoms/mol2/13eg13eg-.out
 24 25 0 0 0
SMALL
GASTEIGER

@<TRIPOS>ATOM
      1 C           1.0626   -0.1687   -0.8266 C.ar    1  LIG1        0.0188
      2 C           0.8365    0.9474   -0.0485 C.ar    1  LIG1        0.0557
      3 C          -0.5114    0.8647    0.4288 C.ar    1  LIG1        0.0469
      4 C          -1.0444   -0.2996   -0.0781 C.ar    1  LIG1        0.0787
      5 N          -0.0742   -0.9074   -0.8388 N.ar    1  LIG1       -0.3575
      6 H          -0.2355   -1.7245   -1.4071 H       1  LIG1        0.1654
      7 H           1.9457   -0.4621   -1.3663 H       1  LIG1        0.0820
      8 C           1.7883    1.9807    0.2337 C.1     1  LIG1       -0.0671
      9 C           2.5870    2.8458    0.4747 C.1     1  LIG1       -0.1138
     10 H           3.2888    3.6170    0.6926 H       1  LIG1        0.1232
     11 S          -1.2592    2.0147    1.5408 S.3     1  LIG1       -0.1394
     12 H          -2.4199    2.1126    0.8806 H       1  LIG1        0.1072
     13 C          -2.3663   -0.9040    0.0894 C.ar    1  LIG1        0.0806
     14 C          -3.6275   -0.3910   -0.1562 C.ar    1  LIG1        0.0645
     15 C          -4.5720   -1.4131    0.1727 C.ar    1  LIG1        0.0381
     16 C          -3.8559   -2.5031    0.5935 C.ar    1  LIG1        0.0167
     17 N          -2.5263   -2.1806    0.5352 N.ar    1  LIG1       -0.3575
     18 H          -1.7702   -2.7529    0.8772 H       1  LIG1        0.1654
     19 H          -4.1886   -3.4698    0.9298 H       1  LIG1        0.0818
     20 C          -3.9163    0.9125   -0.6684 C.1     1  LIG1       -0.0664
     21 C          -4.1647    2.0124   -1.0884 C.1     1  LIG1       -0.1138
     22 H          -4.3839    2.9821   -1.4715 H       1  LIG1        0.1232
     23 S          -6.3180   -1.2045    0.0008 S.3     1  LIG1       -0.1400
     24 H          -6.6387   -2.3989    0.5091 H       1  LIG1        0.1072
@<TRIPOS>BOND
     1    22    21    1
     2     6     5    1
     3     7     1    1
     4    21    20    3
     5     5     1   ar
     6     5     4   ar
     7     1     2   ar
     8    20    14    1
     9    14    13   ar
    10    14    15   ar
    11     4    13    1
    12     4     3   ar
    13     2     8    1
    14     2     3   ar
    15    23    15    1
    16    23    24    1
    17    13    17   ar
    18    15    16   ar
    19     8     9    3
    20     3    11    1
    21     9    10    1
    22    17    16   ar
    23    17    18    1
    24    16    19    1
    25    12    11    1
