@<TRIPOS>MOLECULE
mol_data/opt/m06hf/geoms/mol2/13eg13eg-13eg-13eg.out
 46 49 0 0 0
SMALL
GASTEIGER

@<TRIPOS>ATOM
      1 C           1.2255   -0.0662    0.5840 C.ar    1  LIG1        0.0188
      2 C           0.6671    1.0441    1.1810 C.ar    1  LIG1        0.0557
      3 C          -0.7501    0.9592    0.9940 C.ar    1  LIG1        0.0469
      4 C          -0.9913   -0.2010    0.2907 C.ar    1  LIG1        0.0787
      5 N           0.2201   -0.8049    0.0517 N.ar    1  LIG1       -0.3575
      6 H           0.3392   -1.6186   -0.5308 H       1  LIG1        0.1654
      7 H           2.2586   -0.3556    0.5017 H       1  LIG1        0.0820
      8 C           1.3848    2.0772    1.8671 C.1     1  LIG1       -0.0671
      9 C           1.9837    2.9447    2.4438 C.1     1  LIG1       -0.1138
     10 H           2.5064    3.7184    2.9561 H       1  LIG1        0.1232
     11 S          -1.9220    2.0989    1.6627 S.3     1  LIG1       -0.1394
     12 H          -2.6264    2.2545    0.5314 H       1  LIG1        0.1072
     13 C          -2.2414   -0.8072   -0.1648 C.ar    1  LIG1        0.0811
     14 C          -3.2813   -0.2794   -0.9106 C.ar    1  LIG1        0.0652
     15 C          -4.2636   -1.3076   -1.0649 C.ar    1  LIG1        0.0476
     16 C          -3.7787   -2.4233   -0.4201 C.ar    1  LIG1        0.0791
     17 N          -2.5569   -2.1037    0.1173 N.ar    1  LIG1       -0.3500
     18 H          -2.0696   -2.6672    0.7991 H       1  LIG1        0.1661
     19 C          -3.3194    1.0410   -1.4602 C.1     1  LIG1       -0.0664
     20 C          -3.3469    2.1536   -1.9167 C.1     1  LIG1       -0.1138
     21 H          -3.3718    3.1333   -2.3350 H       1  LIG1        0.1232
     22 S          -5.7449   -1.1732   -2.0153 S.3     1  LIG1       -0.1393
     23 H          -6.5745   -1.5845   -1.0449 H       1  LIG1        0.1072
     24 C          -4.3689   -3.7540   -0.2702 C.ar    1  LIG1        0.0811
     25 C          -5.5798   -4.1338    0.2836 C.ar    1  LIG1        0.0652
     26 C          -5.6697   -5.5561    0.1811 C.ar    1  LIG1        0.0476
     27 C          -4.5116   -5.9872   -0.4301 C.ar    1  LIG1        0.0791
     28 N          -3.7362   -4.8859   -0.6838 N.ar    1  LIG1       -0.3500
     29 H          -2.8254   -4.9112   -1.1169 H       1  LIG1        0.1661
     30 C          -6.5383   -3.2367    0.8526 C.1     1  LIG1       -0.0664
     31 C          -7.3410   -2.4712    1.3177 C.1     1  LIG1       -0.1138
     32 H          -8.0500   -1.8025    1.7486 H       1  LIG1        0.1232
     33 S          -7.0590   -6.5298    0.6733 S.3     1  LIG1       -0.1393
     34 H          -6.3575   -7.4099    1.4035 H       1  LIG1        0.1072
     35 C          -4.0775   -7.3330   -0.8058 C.ar    1  LIG1        0.0807
     36 C          -3.9055   -8.4633   -0.0274 C.ar    1  LIG1        0.0645
     37 C          -3.4654   -9.5105   -0.8953 C.ar    1  LIG1        0.0381
     38 C          -3.3779   -8.9778   -2.1562 C.ar    1  LIG1        0.0167
     39 N          -3.7512   -7.6631   -2.0856 N.ar    1  LIG1       -0.3575
     40 H          -3.8883   -7.0522   -2.8766 H       1  LIG1        0.1654
     41 H          -3.0876   -9.4333   -3.0867 H       1  LIG1        0.0818
     42 C          -4.1118   -8.5416    1.3858 C.1     1  LIG1       -0.0664
     43 C          -4.2915   -8.6130    2.5733 C.1     1  LIG1       -0.1138
     44 H          -4.4354   -8.6790    3.6274 H       1  LIG1        0.1232
     45 S          -3.0900  -11.1445   -0.3343 S.3     1  LIG1       -0.1400
     46 H          -3.0799  -11.6956   -1.5523 H       1  LIG1        0.1072
@<TRIPOS>BOND
     1    41    38    1
     2    40    39    1
     3    21    20    1
     4    38    39   ar
     5    38    37   ar
     6    39    35   ar
     7    22    15    1
     8    22    23    1
     9    20    19    3
    10    46    45    1
    11    19    14    1
    12    29    28    1
    13    15    14   ar
    14    15    16   ar
    15    14    13   ar
    16    37    45    1
    17    37    36   ar
    18    35    27    1
    19    35    36   ar
    20    28    27   ar
    21    28    24   ar
    22     6     5    1
    23    27    26   ar
    24    16    24    1
    25    16    17   ar
    26    24    25   ar
    27    13    17   ar
    28    13     4    1
    29    36    42    1
    30     5     4   ar
    31     5     1   ar
    32    17    18    1
    33    26    25   ar
    34    26    33    1
    35    25    30    1
    36     4     3   ar
    37     7     1    1
    38    12    11    1
    39     1     2   ar
    40    33    34    1
    41    30    31    3
    42     3     2   ar
    43     3    11    1
    44     2     8    1
    45    31    32    1
    46    42    43    3
    47     8     9    3
    48     9    10    1
    49    43    44    1
