@<TRIPOS>MOLECULE
mol_data/opt/m06hf/geoms/mol2/13eh13eh.out
 26 27 0 0 0
SMALL
GASTEIGER

@<TRIPOS>ATOM
      1 C           1.1235   -0.2778   -0.7286 C.ar    1  LIG1        0.0195
      2 C           0.8293    0.9388   -0.1459 C.ar    1  LIG1        0.0632
      3 C          -0.5557    0.9149    0.2264 C.ar    1  LIG1        0.0672
      4 C          -1.0443   -0.3184   -0.1485 C.ar    1  LIG1        0.0863
      5 N          -0.0016   -1.0256   -0.7235 N.ar    1  LIG1       -0.3569
      6 H          -0.1156   -1.9078   -1.1958 H       1  LIG1        0.1655
      7 H           2.0492   -0.6314   -1.1474 H       1  LIG1        0.0820
      8 C           1.7150    2.0417    0.0703 C.1     1  LIG1       -0.0663
      9 C           2.4233    2.9937    0.2688 C.1     1  LIG1       -0.1138
     10 H           3.0606    3.8284    0.4449 H       1  LIG1        0.1232
     11 N          -1.2219    1.9256    0.9122 N.pl3   1  LIG1       -0.3553
     12 H          -0.6874    2.7850    0.9349 H       1  LIG1        0.1424
     13 H          -2.1737    2.0747    0.5975 H       1  LIG1        0.1424
     14 C          -2.3695   -0.8981    0.0216 C.ar    1  LIG1        0.0821
     15 C          -3.6221   -0.3452   -0.1949 C.ar    1  LIG1        0.0720
     16 C          -4.5987   -1.3358    0.1514 C.ar    1  LIG1        0.0584
     17 C          -3.9090   -2.4515    0.5497 C.ar    1  LIG1        0.0243
     18 N          -2.5621   -2.1699    0.4560 N.ar    1  LIG1       -0.3569
     19 H          -1.8232   -2.7536    0.8132 H       1  LIG1        0.1655
     20 H          -4.2654   -3.4042    0.8978 H       1  LIG1        0.0826
     21 C          -3.8984    0.9571   -0.7119 C.1     1  LIG1       -0.0656
     22 C          -4.1489    2.0545   -1.1419 C.1     1  LIG1       -0.1138
     23 H          -4.3662    3.0174   -1.5419 H       1  LIG1        0.1232
     24 N          -5.9873   -1.1392    0.1119 N.pl3   1  LIG1       -0.3559
     25 H          -6.2308   -0.3113   -0.4183 H       1  LIG1        0.1424
     26 H          -6.4961   -1.9433   -0.2309 H       1  LIG1        0.1424
@<TRIPOS>BOND
     1    23    22    1
     2     6     5    1
     3     7     1    1
     4    22    21    3
     5     1     5   ar
     6     1     2   ar
     7     5     4   ar
     8    21    15    1
     9    25    24    1
    10    26    24    1
    11    15    14   ar
    12    15    16   ar
    13     4    14    1
    14     4     3   ar
    15     2     8    1
    16     2     3   ar
    17    14    18   ar
    18     8     9    3
    19    24    16    1
    20    16    17   ar
    21     3    11    1
    22     9    10    1
    23    18    17   ar
    24    18    19    1
    25    17    20    1
    26    13    11    1
    27    11    12    1
