@<TRIPOS>MOLECULE
mol_data/opt/m06hf/geoms/mol2/13eh13eh-4eh13eh.out
 52 55 0 0 0
SMALL
GASTEIGER

@<TRIPOS>ATOM
      1 C           1.3927   -0.4898    0.1031 C.ar    1  LIG1        0.0195
      2 C           1.0131    0.7810    0.4883 C.ar    1  LIG1        0.0632
      3 C          -0.4158    0.8138    0.4593 C.ar    1  LIG1        0.0672
      4 C          -0.8409   -0.4317    0.0575 C.ar    1  LIG1        0.0863
      5 N           0.2687   -1.2066   -0.1446 N.ar    1  LIG1       -0.3569
      6 H           0.2257   -2.1704   -0.4474 H       1  LIG1        0.1655
      7 H           2.3759   -0.9118   -0.0057 H       1  LIG1        0.0820
      8 C           1.8606    1.8788    0.8455 C.1     1  LIG1       -0.0663
      9 C           2.5418    2.8218    1.1509 C.1     1  LIG1       -0.1138
     10 H           3.1542    3.6490    1.4243 H       1  LIG1        0.1232
     11 N          -1.2899    1.8963    0.7705 N.pl3   1  LIG1       -0.3553
     12 H          -1.3721    2.0099    1.7789 H       1  LIG1        0.1424
     13 H          -0.9103    2.7643    0.4018 H       1  LIG1        0.1424
     14 C          -2.1955   -0.9142   -0.1538 C.ar    1  LIG1        0.0826
     15 C          -2.6622   -2.1713   -0.5317 C.ar    1  LIG1        0.0726
     16 C          -4.0804   -2.0788   -0.6084 C.ar    1  LIG1        0.0665
     17 C          -4.4277   -0.7789   -0.2761 C.ar    1  LIG1        0.0704
     18 N          -3.2578   -0.1019   -0.0168 N.ar    1  LIG1       -0.3505
     19 H          -3.1566    0.8888    0.2017 H       1  LIG1        0.1660
     20 C          -1.8776   -3.3331   -0.8092 C.1     1  LIG1       -0.0656
     21 C          -1.2300   -4.3217   -1.0515 C.1     1  LIG1       -0.1138
     22 H          -0.6733   -5.2052   -1.2646 H       1  LIG1        0.1232
     23 N          -4.9459   -3.1384   -0.9448 N.pl3   1  LIG1       -0.3554
     24 H          -5.5949   -2.8744   -1.6805 H       1  LIG1        0.1424
     25 H          -4.4165   -3.9546   -1.2326 H       1  LIG1        0.1424
     26 C          -6.0316    1.1840   -0.3293 C.ar    1  LIG1        0.0346
     27 C          -7.3341    1.6636   -0.1747 C.ar    1  LIG1       -0.0348
     28 C          -5.7676   -0.1874   -0.1507 C.ar    1  LIG1        0.0173
     29 C          -8.3947    0.8191    0.1343 C.ar    1  LIG1        0.0214
     30 H          -7.5193    2.7230   -0.2929 H       1  LIG1        0.0637
     31 C          -6.8354   -1.0343    0.1604 C.ar    1  LIG1       -0.0301
     32 C          -8.1364   -0.5578    0.2890 C.ar    1  LIG1        0.0345
     33 H          -6.6324   -2.0897    0.3071 H       1  LIG1        0.0643
     34 C          -4.9948    2.1312   -0.6640 C.1     1  LIG1       -0.0690
     35 C          -4.1436    2.9377   -0.9352 C.1     1  LIG1       -0.1139
     36 H          -3.3877    3.6435   -1.1900 H       1  LIG1        0.1232
     37 N          -9.1850   -1.4369    0.6251 N.pl3   1  LIG1       -0.3574
     38 H         -10.0216   -1.2787    0.0711 H       1  LIG1        0.1423
     39 H          -8.9073   -2.4096    0.5887 H       1  LIG1        0.1423
     40 C          -9.7441    1.3808    0.3302 C.ar    1  LIG1        0.0657
     41 C         -10.3605    2.4774   -0.2616 C.ar    1  LIG1        0.0705
     42 C         -11.6424    2.6346    0.3537 C.ar    1  LIG1        0.0583
     43 C         -11.7624    1.6349    1.2874 C.ar    1  LIG1        0.0242
     44 N         -10.6151    0.8838    1.2459 N.ar    1  LIG1       -0.3580
     45 H         -10.3937    0.0865    1.8271 H       1  LIG1        0.1654
     46 H         -12.5650    1.4097    1.9668 H       1  LIG1        0.0826
     47 C          -9.8620    3.3090   -1.3132 C.1     1  LIG1       -0.0657
     48 C          -9.4841    4.0345   -2.1967 C.1     1  LIG1       -0.1138
     49 H          -9.1366    4.6665   -2.9804 H       1  LIG1        0.1232
     50 N         -12.5639    3.6551    0.0585 N.pl3   1  LIG1       -0.3559
     51 H         -12.2516    4.2054   -0.7338 H       1  LIG1        0.1424
     52 H         -13.4983    3.3045   -0.1107 H       1  LIG1        0.1424
@<TRIPOS>BOND
     1    49    48    1
     2    48    47    3
     3    24    23    1
     4    47    41    1
     5    22    21    1
     6    25    23    1
     7    36    35    1
     8    21    20    3
     9    23    16    1
    10    35    34    3
    11    20    15    1
    12    51    50    1
    13    34    26    1
    14    16    15   ar
    15    16    17   ar
    16    15    14   ar
    17     6     5    1
    18    26    27   ar
    19    26    28   ar
    20    30    27    1
    21    17    28    1
    22    17    18   ar
    23    41    40   ar
    24    41    42   ar
    25    27    29   ar
    26    14    18   ar
    27    14     4    1
    28    28    31   ar
    29     5     4   ar
    30     5     1   ar
    31    52    50    1
    32    18    19    1
    33     7     1    1
    34     4     3   ar
    35    50    42    1
    36    38    37    1
    37     1     2   ar
    38    29    32   ar
    39    29    40    1
    40    31    32   ar
    41    31    33    1
    42    32    37    1
    43    40    44   ar
    44    42    43   ar
    45    13    11    1
    46     3     2   ar
    47     3    11    1
    48     2     8    1
    49    39    37    1
    50    11    12    1
    51     8     9    3
    52     9    10    1
    53    44    43   ar
    54    44    45    1
    55    43    46    1
