@<TRIPOS>MOLECULE
mol_data/opt/m06hf/geoms/mol2/13eh13eh-13eh13eh-.out
 50 53 0 0 0
SMALL
GASTEIGER

@<TRIPOS>ATOM
      1 C           1.3073   -0.3222   -0.0719 C.ar    1  LIG1        0.0195
      2 C           0.8945    0.9952   -0.1010 C.ar    1  LIG1        0.0632
      3 C          -0.5350    0.9818   -0.1021 C.ar    1  LIG1        0.0672
      4 C          -0.9269   -0.3366   -0.0736 C.ar    1  LIG1        0.0863
      5 N           0.2019   -1.1080   -0.0565 N.ar    1  LIG1       -0.3569
      6 H           0.1812   -2.1189   -0.0349 H       1  LIG1        0.1655
      7 H           2.3019   -0.7317   -0.0614 H       1  LIG1        0.0820
      8 C           1.7126    2.1703   -0.1245 C.1     1  LIG1       -0.0663
      9 C           2.3691    3.1774   -0.1436 C.1     1  LIG1       -0.1138
     10 H           2.9599    4.0633   -0.1604 H       1  LIG1        0.1232
     11 N          -1.4406    2.0852   -0.1276 N.pl3   1  LIG1       -0.3553
     12 H          -1.2524    2.7082    0.6543 H       1  LIG1        0.1424
     13 H          -1.3130    2.6225   -0.9821 H       1  LIG1        0.1424
     14 C          -2.2697   -0.8936   -0.0584 C.ar    1  LIG1        0.0826
     15 C          -2.7066   -2.2122   -0.0378 C.ar    1  LIG1        0.0727
     16 C          -4.1338   -2.1707   -0.0294 C.ar    1  LIG1        0.0679
     17 C          -4.4997   -0.8415   -0.0457 C.ar    1  LIG1        0.0868
     18 N          -3.3598   -0.0900   -0.0615 N.ar    1  LIG1       -0.3493
     19 H          -3.2842    0.9285   -0.0718 H       1  LIG1        0.1661
     20 C          -1.8893   -3.3855   -0.0277 C.1     1  LIG1       -0.0656
     21 C          -1.2065   -4.3787   -0.0193 C.1     1  LIG1       -0.1138
     22 H          -0.6198   -5.2678   -0.0117 H       1  LIG1        0.1232
     23 N          -5.0602   -3.2557   -0.0071 N.pl3   1  LIG1       -0.3553
     24 H          -4.8882   -3.8874   -0.7851 H       1  LIG1        0.1424
     25 H          -4.9666   -3.7886    0.8542 H       1  LIG1        0.1424
     26 C          -5.8361   -0.2707   -0.0482 C.ar    1  LIG1        0.0826
     27 C          -6.2594    1.0522   -0.0481 C.ar    1  LIG1        0.0727
     28 C          -7.6859    1.0257   -0.0498 C.ar    1  LIG1        0.0679
     29 C          -8.0676   -0.2994   -0.0516 C.ar    1  LIG1        0.0868
     30 N          -6.9370   -1.0624   -0.0504 N.ar    1  LIG1       -0.3493
     31 H          -6.8762   -2.0816   -0.0551 H       1  LIG1        0.1661
     32 C          -5.4282    2.2149   -0.0458 C.1     1  LIG1       -0.0656
     33 C          -4.7273    3.1943   -0.0442 C.1     1  LIG1       -0.1138
     34 H          -4.1122    4.0634   -0.0412 H       1  LIG1        0.1232
     35 N          -8.5957    2.1293   -0.0461 N.pl3   1  LIG1       -0.3553
     36 H          -8.4468    2.6984    0.7844 H       1  LIG1        0.1424
     37 H          -8.4213    2.7252   -0.8524 H       1  LIG1        0.1424
     38 C          -9.4108   -0.8566   -0.0503 C.ar    1  LIG1        0.0821
     39 C          -9.8569   -2.1727   -0.0539 C.ar    1  LIG1        0.0720
     40 C         -11.2870   -2.1285   -0.0487 C.ar    1  LIG1        0.0584
     41 C         -11.6450   -0.8013   -0.0445 C.ar    1  LIG1        0.0243
     42 N         -10.4947   -0.0530   -0.0522 N.ar    1  LIG1       -0.3569
     43 H         -10.3884    0.9576   -0.0536 H       1  LIG1        0.1655
     44 H         -12.6192   -0.3463   -0.0259 H       1  LIG1        0.0826
     45 C          -9.0480   -3.3495   -0.0683 C.1     1  LIG1       -0.0656
     46 C          -8.3768   -4.3502   -0.0856 C.1     1  LIG1       -0.1138
     47 H          -7.7869   -5.2363   -0.0968 H       1  LIG1        0.1232
     48 N         -12.1310   -3.2540   -0.0030 N.pl3   1  LIG1       -0.3559
     49 H         -12.9114   -3.1812   -0.6439 H       1  LIG1        0.1424
     50 H         -11.6119   -4.1048   -0.1867 H       1  LIG1        0.1424
@<TRIPOS>BOND
     1    13    11    1
     2    37    35    1
     3    24    23    1
     4    49    48    1
     5    50    48    1
     6    10     9    1
     7     9     8    3
     8    11     3    1
     9    11    12    1
    10     8     2    1
    11     3     2   ar
    12     3     4   ar
    13     2     1   ar
    14    47    46    1
    15    46    45    3
    16     4    14    1
    17     4     5   ar
    18     1     7    1
    19     1     5   ar
    20    19    18    1
    21    45    39    1
    22    18    14   ar
    23    18    17   ar
    24    14    15   ar
    25     5     6    1
    26    31    30    1
    27    39    38   ar
    28    39    40   ar
    29    43    42    1
    30    42    38   ar
    31    42    41   ar
    32    29    30   ar
    33    29    38    1
    34    29    28   ar
    35    30    26   ar
    36    28    27   ar
    37    28    35    1
    38    40    41   ar
    39    40    48    1
    40    26    27   ar
    41    26    17    1
    42    27    32    1
    43    35    36    1
    44    32    33    3
    45    17    16   ar
    46    41    44    1
    47    33    34    1
    48    15    16   ar
    49    15    20    1
    50    16    23    1
    51    20    21    3
    52    21    22    1
    53    23    25    1
