@<TRIPOS>MOLECULE
mol_data/opt/m06hf/geoms/mol2/13eh13eh13eh-13eh-.out
 50 53 0 0 0
SMALL
GASTEIGER

@<TRIPOS>ATOM
      1 C           1.2325   -0.0736   -0.7339 C.ar    1  LIG1        0.0195
      2 C           0.8655    1.0817   -0.0730 C.ar    1  LIG1        0.0632
      3 C          -0.5488    1.0172    0.1550 C.ar    1  LIG1        0.0672
      4 C          -0.9805   -0.1775   -0.3819 C.ar    1  LIG1        0.0863
      5 N           0.1240   -0.8239   -0.9114 N.ar    1  LIG1       -0.3569
      6 H           0.0715   -1.6662   -1.4618 H       1  LIG1        0.1655
      7 H           2.1999   -0.3820   -1.0893 H       1  LIG1        0.0820
      8 C           1.7081    2.1648    0.3322 C.1     1  LIG1       -0.0663
      9 C           2.3762    3.0998    0.6881 C.1     1  LIG1       -0.1138
     10 H           2.9768    3.9207    1.0034 H       1  LIG1        0.1232
     11 N          -1.2899    1.9542    0.8672 N.pl3   1  LIG1       -0.3553
     12 H          -0.7674    2.8049    1.0345 H       1  LIG1        0.1424
     13 H          -2.2066    2.1384    0.4777 H       1  LIG1        0.1424
     14 C          -2.3003   -0.7895   -0.3837 C.ar    1  LIG1        0.0826
     15 C          -3.5508   -0.2371   -0.6214 C.ar    1  LIG1        0.0727
     16 C          -4.5105   -1.2865   -0.4771 C.ar    1  LIG1        0.0679
     17 C          -3.8141   -2.4327   -0.1731 C.ar    1  LIG1        0.0868
     18 N          -2.4851   -2.1132   -0.1198 N.ar    1  LIG1       -0.3493
     19 H          -1.7674   -2.7604    0.1828 H       1  LIG1        0.1661
     20 C          -3.8359    1.1146   -0.9890 C.1     1  LIG1       -0.0656
     21 C          -4.0939    2.2512   -1.2941 C.1     1  LIG1       -0.1138
     22 H          -4.3220    3.2501   -1.5874 H       1  LIG1        0.1232
     23 N          -5.9309   -1.2269   -0.6295 N.pl3   1  LIG1       -0.3553
     24 H          -6.3186   -0.5403    0.0140 H       1  LIG1        0.1424
     25 H          -6.1670   -0.9186   -1.5704 H       1  LIG1        0.1424
     26 C          -4.3147   -3.7744    0.0669 C.ar    1  LIG1        0.0826
     27 C          -3.6431   -4.9665    0.3174 C.ar    1  LIG1        0.0727
     28 C          -4.6330   -5.9911    0.4480 C.ar    1  LIG1        0.0679
     29 C          -5.8600   -5.3810    0.2643 C.ar    1  LIG1        0.0868
     30 N          -5.6351   -4.0377    0.0387 N.ar    1  LIG1       -0.3493
     31 H          -6.3048   -3.3188   -0.2234 H       1  LIG1        0.1661
     32 C          -2.2294   -5.1367    0.4384 C.1     1  LIG1       -0.0656
     33 C          -1.0380   -5.2927    0.5442 C.1     1  LIG1       -0.1138
     34 H           0.0089   -5.4556    0.6570 H       1  LIG1        0.1232
     35 N          -4.3798   -7.3149    0.7913 N.pl3   1  LIG1       -0.3553
     36 H          -5.0040   -7.9798    0.3499 H       1  LIG1        0.1424
     37 H          -3.4081   -7.5676    0.6674 H       1  LIG1        0.1424
     38 C          -7.2054   -5.9299    0.3541 C.ar    1  LIG1        0.0821
     39 C          -7.7304   -7.1193   -0.1292 C.ar    1  LIG1        0.0720
     40 C          -9.1082   -7.1745    0.2625 C.ar    1  LIG1        0.0584
     41 C          -9.3721   -6.0194    0.9521 C.ar    1  LIG1        0.0243
     42 N          -8.2111   -5.2773    0.9886 N.ar    1  LIG1       -0.3569
     43 H          -8.0761   -4.4343    1.5232 H       1  LIG1        0.1655
     44 H         -10.2778   -5.6784    1.4200 H       1  LIG1        0.0826
     45 C          -7.0494   -8.0969   -0.9166 C.1     1  LIG1       -0.0656
     46 C          -6.4919   -8.9376   -1.5765 C.1     1  LIG1       -0.1138
     47 H          -6.0043   -9.6693   -2.1778 H       1  LIG1        0.1232
     48 N          -9.9770   -8.2457   -0.0011 N.pl3   1  LIG1       -0.3559
     49 H         -10.8992   -7.9468   -0.2902 H       1  LIG1        0.1424
     50 H          -9.5830   -8.8832   -0.6832 H       1  LIG1        0.1424
@<TRIPOS>BOND
     1    47    46    1
     2    22    21    1
     3    46    45    3
     4    25    23    1
     5     6     5    1
     6    21    20    3
     7     7     1    1
     8    20    15    1
     9    45    39    1
    10     5     1   ar
    11     5     4   ar
    12     1     2   ar
    13    50    48    1
    14    23    16    1
    15    23    24    1
    16    15    16   ar
    17    15    14   ar
    18    16    17   ar
    19    14     4    1
    20    14    18   ar
    21     4     3   ar
    22    49    48    1
    23    31    30    1
    24    17    18   ar
    25    17    26    1
    26    39    40   ar
    27    39    38   ar
    28    18    19    1
    29     2     3   ar
    30     2     8    1
    31    48    40    1
    32    30    26   ar
    33    30    29   ar
    34    26    27   ar
    35     3    11    1
    36    40    41   ar
    37    29    38    1
    38    29    28   ar
    39    27    32    1
    40    27    28   ar
    41     8     9    3
    42    36    35    1
    43    38    42   ar
    44    32    33    3
    45    28    35    1
    46    13    11    1
    47    33    34    1
    48    37    35    1
    49     9    10    1
    50    11    12    1
    51    41    42   ar
    52    41    44    1
    53    42    43    1
