@<TRIPOS>MOLECULE
mol_data/opt/m06hf/geoms/mol2/13eh12ha13id-12hf-6il6ie-12ha-13he-.out
 96 103 0 0 0
SMALL
GASTEIGER

@<TRIPOS>ATOM
      1 C           0.4006    0.2330   -0.2246 C.ar    1  LIG1        0.0195
      2 C          -0.0115    1.2387   -1.0738 C.ar    1  LIG1        0.0633
      3 C          -1.3785    0.9758   -1.4055 C.ar    1  LIG1        0.0689
      4 C          -1.7471   -0.1677   -0.7339 C.ar    1  LIG1        0.1061
      5 N          -0.6481   -0.6056   -0.0363 N.ar    1  LIG1       -0.3556
      6 H          -0.6483   -1.4264    0.5477 H       1  LIG1        0.1655
      7 H           1.3573    0.0703    0.2397 H       1  LIG1        0.0820
      8 C           0.7534    2.3452   -1.5637 C.1     1  LIG1       -0.0663
      9 C           1.3607    3.2891   -1.9961 C.1     1  LIG1       -0.1138
     10 H           1.9112    4.1201   -2.3712 H       1  LIG1        0.1232
     11 N          -2.2093    1.7335   -2.2748 N.pl3   1  LIG1       -0.3553
     12 H          -1.8119    2.6597   -2.4068 H       1  LIG1        0.1424
     13 H          -2.2784    1.2861   -3.1859 H       1  LIG1        0.1424
     14 C          -3.0207   -0.8581   -0.6752 C.ar    1  LIG1        0.1741
     15 C          -4.3100   -0.4276   -0.8114 C.ar    1  LIG1        0.0731
     16 C          -5.1348   -1.5979   -0.6290 C.ar    1  LIG1        0.0071
     17 C          -4.2851   -2.6285   -0.3807 C.ar    1  LIG1        0.1540
     18 O          -3.0027   -2.2026   -0.4057 O.2     1  LIG1       -0.4499
     19 N          -4.7496    0.8730   -0.9983 N.pl3   1  LIG1       -0.3550
     20 H          -4.0432    1.4737   -1.4292 H       1  LIG1        0.1424
     21 H          -5.6540    0.9387   -1.4433 H       1  LIG1        0.1424
     22 H          -6.2100   -1.6404   -0.6687 H       1  LIG1        0.0675
     23 C          -4.4653   -4.0458   -0.1153 C.ar    1  LIG1        0.0869
     24 C          -5.6016   -4.8106    0.0529 C.ar    1  LIG1       -0.0041
     25 C          -5.1397   -6.1402    0.2786 C.ar    1  LIG1        0.0836
     26 C          -3.7502   -6.1349    0.2454 C.ar    1  LIG1        0.1024
     27 N          -3.3728   -4.8590    0.0044 N.ar    1  LIG1       -0.3481
     28 H          -2.4136   -4.5531   -0.0906 H       1  LIG1        0.1661
     29 C          -7.0351   -4.3513    0.0053 C.3     1  LIG1       -0.0364
     30 H          -7.6960   -5.1841    0.2428 H       1  LIG1        0.0279
     31 H          -7.2847   -3.9817   -0.9909 H       1  LIG1        0.0279
     32 H          -7.2021   -3.5525    0.7300 H       1  LIG1        0.0279
     33 N          -6.6584   -8.1976    0.6281 N.1     1  LIG1       -0.1908
     34 C          -5.9743   -7.2859    0.4773 C.1     1  LIG1        0.1017
     35 C          -2.7396   -7.1654    0.4084 C.ar    1  LIG1        0.1773
     36 C          -2.7334   -8.4846    0.7567 C.ar    1  LIG1        0.1153
     37 C          -1.3566   -8.8791    0.7259 C.ar    1  LIG1        0.1846
     38 C          -0.6127   -7.7927    0.3708 C.ar    1  LIG1        0.1807
     39 O          -1.4760   -6.7501    0.1784 O.2     1  LIG1       -0.4476
     40 N          -3.7197   -9.4362    1.1248 N.pl3   1  LIG1       -0.3521
     41 H          -4.2245   -9.1605    1.9621 H       1  LIG1        0.1425
     42 H          -4.4045   -9.5908    0.3903 H       1  LIG1        0.1425
     43 O          -0.9644  -10.1337    1.0223 O.3     1  LIG1       -0.5020
     44 H          -1.7828  -10.6177    1.2319 H       1  LIG1        0.2924
     45 C           1.4310   -6.3737   -0.0988 C.ar    1  LIG1        0.0499
     46 C           0.8249   -7.6070    0.1858 C.ar    1  LIG1        0.0455
     47 C           1.6379   -8.7402    0.3129 C.ar    1  LIG1       -0.0053
     48 C           3.0088   -8.6198    0.1507 C.ar    1  LIG1        0.1467
     49 C           3.5411   -7.3489   -0.1456 C.ar    1  LIG1        0.1145
     50 N           2.7512   -6.2884   -0.2560 N.ar    1  LIG1       -0.2474
     51 H           1.1778   -9.6917    0.5420 H       1  LIG1        0.0662
     52 C           0.6772   -5.0634   -0.2445 C.3     1  LIG1       -0.0216
     53 H           0.1214   -4.8384    0.6682 H       1  LIG1        0.0293
     54 H          -0.0231   -5.1093   -1.0802 H       1  LIG1        0.0293
     55 H           1.4175   -4.2883   -0.4305 H       1  LIG1        0.0293
     56 O           3.8745   -9.6536    0.2649 O.3     1  LIG1       -0.4929
     57 C           3.3522  -10.9176    0.6400 C.3     1  LIG1        0.0789
     58 H           4.2109  -11.5783    0.7137 H       1  LIG1        0.0660
     59 H           2.8472  -10.8514    1.6063 H       1  LIG1        0.0660
     60 H           2.6594  -11.2889   -0.1186 H       1  LIG1        0.0660
     61 C           5.6706   -6.0272    0.2170 C.ar    1  LIG1        0.0484
     62 C           5.0033   -7.1369   -0.3459 C.ar    1  LIG1        0.0261
     63 C           5.7520   -8.0223   -1.1058 C.ar    1  LIG1       -0.0331
     64 C           7.1128   -7.7907   -1.3197 C.ar    1  LIG1        0.0543
     65 C           7.6760   -6.6238   -0.7783 C.ar    1  LIG1        0.1234
     66 N           6.9570   -5.7970   -0.0106 N.ar    1  LIG1       -0.2468
     67 H           5.2965   -8.9123   -1.5168 H       1  LIG1        0.0638
     68 C           4.9795   -5.0261    1.1204 C.3     1  LIG1       -0.0217
     69 H           4.3213   -5.5311    1.8279 H       1  LIG1        0.0293
     70 H           4.3697   -4.3506    0.5206 H       1  LIG1        0.0293
     71 H           5.7522   -4.4687    1.6445 H       1  LIG1        0.0293
     72 C           7.8997   -8.7735   -2.0180 C.1     1  LIG1       -0.0674
     73 C           8.5546   -9.5998   -2.5971 C.1     1  LIG1       -0.1138
     74 H           9.1607  -10.3207   -3.0952 H       1  LIG1        0.1232
     75 C           9.0735   -6.2318   -0.9899 C.ar    1  LIG1        0.1756
     76 C           9.9487   -6.2741   -2.0472 C.ar    1  LIG1        0.0732
     77 C          11.1381   -5.5869   -1.6149 C.ar    1  LIG1        0.0071
     78 C          10.8857   -5.1753   -0.3444 C.ar    1  LIG1        0.1555
     79 O           9.6569   -5.5508    0.0437 O.2     1  LIG1       -0.4498
     80 N           9.8148   -6.8328   -3.3146 N.pl3   1  LIG1       -0.3550
     81 H           8.9069   -7.2253   -3.5168 H       1  LIG1        0.1424
     82 H          10.1499   -6.2244   -4.0493 H       1  LIG1        0.1424
     83 H          12.0583   -5.4620   -2.1596 H       1  LIG1        0.0675
     84 C          11.6739   -4.4646    0.6413 C.ar    1  LIG1        0.1043
     85 C          12.9180   -3.8824    0.5456 C.ar    1  LIG1        0.0688
     86 C          13.2264   -3.3579    1.8392 C.ar    1  LIG1        0.0633
     87 C          12.1517   -3.6428    2.6632 C.ar    1  LIG1        0.0195
     88 N          11.2257   -4.2946    1.9283 N.ar    1  LIG1       -0.3556
     89 H          10.3262   -4.6256    2.2434 H       1  LIG1        0.1655
     90 H          12.0028   -3.4110    3.7030 H       1  LIG1        0.0820
     91 N          13.7237   -3.8333   -0.6074 N.pl3   1  LIG1       -0.3553
     92 H          13.2842   -3.2990   -1.3506 H       1  LIG1        0.1424
     93 H          14.6307   -3.4328   -0.3929 H       1  LIG1        0.1424
     94 C          14.4351   -2.6694    2.1774 C.1     1  LIG1       -0.0663
     95 C          15.4662   -2.0971    2.4176 C.1     1  LIG1       -0.1138
     96 H          16.3777   -1.5947    2.6448 H       1  LIG1        0.1232
@<TRIPOS>BOND
     1    82    80    1
     2    81    80    1
     3    80    76    1
     4    13    11    1
     5    74    73    1
     6    73    72    3
     7    12    11    1
     8    10     9    1
     9    11     3    1
    10    83    77    1
    11    76    77   ar
    12    76    75   ar
    13    72    64    1
    14     9     8    3
    15    77    78   ar
    16     8     2    1
    17    67    63    1
    18    21    19    1
    19    20    19    1
    20     3     2   ar
    21     3     4   ar
    22    92    91    1
    23    64    63   ar
    24    64    65   ar
    25    63    62   ar
    26    54    52    1
    27     2     1   ar
    28    19    15    1
    29    31    29    1
    30    75    65    1
    31    75    79   ar
    32    15    14   ar
    33    15    16   ar
    34    65    66   ar
    35     4    14    1
    36     4     5   ar
    37    14    18   ar
    38    22    16    1
    39    16    17   ar
    40    91    93    1
    41    91    85    1
    42    55    52    1
    43    18    17   ar
    44    17    23    1
    45    62    49    1
    46    62    61   ar
    47    78    79   ar
    48    78    84    1
    49    50    49   ar
    50    50    45   ar
    51    52    45    1
    52    52    53    1
    53     1     5   ar
    54     1     7    1
    55    49    48   ar
    56    60    57    1
    57    23    27   ar
    58    23    24   ar
    59    45    46   ar
    60    28    27    1
    61     5     6    1
    62    66    61   ar
    63    27    26   ar
    64    29    24    1
    65    29    30    1
    66    29    32    1
    67    24    25   ar
    68    48    56    1
    69    48    47   ar
    70    39    38   ar
    71    39    35   ar
    72    46    47   ar
    73    46    38    1
    74    61    68    1
    75    26    25   ar
    76    26    35    1
    77    56    57    1
    78    25    34    1
    79    47    51    1
    80    38    37   ar
    81    42    40    1
    82    35    36   ar
    83    34    33    3
    84    70    68    1
    85    85    84   ar
    86    85    86   ar
    87    57    58    1
    88    57    59    1
    89    84    88   ar
    90    37    36   ar
    91    37    43    1
    92    36    40    1
    93    43    44    1
    94    68    71    1
    95    68    69    1
    96    40    41    1
    97    86    94    1
    98    86    87   ar
    99    88    89    1
   100    88    87   ar
   101    94    95    3
   102    95    96    1
   103    87    90    1
