@<TRIPOS>MOLECULE
mol_data/opt/m06hf/geoms/mol2/13eh13eh13eh13eh.out
 50 53 0 0 0
SMALL
GASTEIGER

@<TRIPOS>ATOM
      1 C           0.4933    0.3072   -2.2296 C.ar    1  LIG1        0.0195
      2 C           0.7238    1.0353   -1.0794 C.ar    1  LIG1        0.0632
      3 C          -0.3712    0.7884   -0.1867 C.ar    1  LIG1        0.0672
      4 C          -1.2215   -0.0807   -0.8359 C.ar    1  LIG1        0.0863
      5 N          -0.6696   -0.3625   -2.0750 N.ar    1  LIG1       -0.3569
      6 H          -1.1511   -0.8653   -2.8030 H       1  LIG1        0.1655
      7 H           1.0753    0.2491   -3.1326 H       1  LIG1        0.0820
      8 C           1.8359    1.8895   -0.7953 C.1     1  LIG1       -0.0663
      9 C           2.7491    2.6226   -0.5202 C.1     1  LIG1       -0.1138
     10 H           3.5617    3.2696   -0.2856 H       1  LIG1        0.1232
     11 N          -0.4775    1.2769    1.1110 N.pl3   1  LIG1       -0.3553
     12 H           0.1787    2.0263    1.2901 H       1  LIG1        0.1424
     13 H          -1.4229    1.5249    1.3791 H       1  LIG1        0.1424
     14 C          -2.4593   -0.6988   -0.3811 C.ar    1  LIG1        0.0826
     15 C          -3.5612   -0.1340    0.2466 C.ar    1  LIG1        0.0727
     16 C          -4.5155   -1.1754    0.4788 C.ar    1  LIG1        0.0679
     17 C          -3.9648   -2.3356   -0.0238 C.ar    1  LIG1        0.0868
     18 N          -2.7184   -2.0193   -0.5380 N.ar    1  LIG1       -0.3493
     19 H          -2.0865   -2.6782   -0.9644 H       1  LIG1        0.1661
     20 C          -3.7263    1.2445    0.5817 C.1     1  LIG1       -0.0656
     21 C          -3.8722    2.4026    0.8802 C.1     1  LIG1       -0.1138
     22 H          -4.0059    3.4308    1.1244 H       1  LIG1        0.1232
     23 N          -5.7231   -1.0273    1.1507 N.pl3   1  LIG1       -0.3553
     24 H          -5.9968   -0.0575    1.2424 H       1  LIG1        0.1424
     25 H          -6.4712   -1.6035    0.7836 H       1  LIG1        0.1424
     26 C          -4.4746   -3.6997   -0.0027 C.ar    1  LIG1        0.0826
     27 C          -5.7280   -4.1909   -0.3419 C.ar    1  LIG1        0.0727
     28 C          -5.7158   -5.6073   -0.1320 C.ar    1  LIG1        0.0679
     29 C          -4.4520   -5.9293    0.3172 C.ar    1  LIG1        0.0868
     30 N          -3.7204   -4.7563    0.3861 N.ar    1  LIG1       -0.3493
     31 H          -2.7670   -4.6935    0.7066 H       1  LIG1        0.1661
     32 C          -6.8297   -3.4252   -0.8313 C.1     1  LIG1       -0.0656
     33 C          -7.7696   -2.7884   -1.2341 C.1     1  LIG1       -0.1138
     34 H          -8.5932   -2.2272   -1.6100 H       1  LIG1        0.1232
     35 N          -6.8054   -6.4549   -0.2915 N.pl3   1  LIG1       -0.3553
     36 H          -7.5527   -6.0287   -0.8236 H       1  LIG1        0.1424
     37 H          -6.5650   -7.3761   -0.6378 H       1  LIG1        0.1424
     38 C          -3.9008   -7.2108    0.7371 C.ar    1  LIG1        0.0821
     39 C          -3.9766   -8.4583    0.1380 C.ar    1  LIG1        0.0720
     40 C          -3.2839   -9.3871    0.9815 C.ar    1  LIG1        0.0584
     41 C          -2.8046   -8.6725    2.0491 C.ar    1  LIG1        0.0243
     42 N          -3.1808   -7.3571    1.8792 N.ar    1  LIG1       -0.3569
     43 H          -3.0953   -6.6380    2.5799 H       1  LIG1        0.1655
     44 H          -2.2451   -8.9943    2.9089 H       1  LIG1        0.0826
     45 C          -4.6013   -8.7649   -1.1099 C.1     1  LIG1       -0.0656
     46 C          -5.1323   -9.0434   -2.1554 C.1     1  LIG1       -0.1138
     47 H          -5.5856   -9.2845   -3.0888 H       1  LIG1        0.1232
     48 N          -3.1774  -10.7648    0.7398 N.pl3   1  LIG1       -0.3559
     49 H          -3.4297  -10.9986   -0.2129 H       1  LIG1        0.1424
     50 H          -2.2684  -11.1432    0.9720 H       1  LIG1        0.1424
@<TRIPOS>BOND
     1     7     1    1
     2    47    46    1
     3     6     5    1
     4     1     5   ar
     5     1     2   ar
     6    46    45    3
     7     5     4   ar
     8    34    33    1
     9    33    32    3
    10    45    39    1
    11     2     8    1
    12     2     3   ar
    13    19    18    1
    14     4    14    1
    15     4     3   ar
    16    32    27    1
    17    36    35    1
    18     8     9    3
    19    37    35    1
    20    18    14   ar
    21    18    17   ar
    22     9    10    1
    23    14    15   ar
    24    27    28   ar
    25    27    26   ar
    26    35    28    1
    27    49    48    1
    28     3    11    1
    29    28    29   ar
    30    17    26    1
    31    17    16   ar
    32    26    30   ar
    33    39    38   ar
    34    39    40   ar
    35    15    16   ar
    36    15    20    1
    37    29    30   ar
    38    29    38    1
    39    30    31    1
    40    16    23    1
    41    20    21    3
    42    38    42   ar
    43    48    50    1
    44    48    40    1
    45    25    23    1
    46    21    22    1
    47    40    41   ar
    48    11    12    1
    49    11    13    1
    50    23    24    1
    51    42    41   ar
    52    42    43    1
    53    41    44    1
