@<TRIPOS>MOLECULE
mol_data/opt/m06hf/geoms/mol2/13eh13eh-13eh-13eh-.out
 50 53 0 0 0
SMALL
GASTEIGER

@<TRIPOS>ATOM
      1 C           1.2689   -0.2334   -0.4281 C.ar    1  LIG1        0.0195
      2 C           0.7724    0.9569   -0.9213 C.ar    1  LIG1        0.0632
      3 C          -0.6507    0.8911   -0.8068 C.ar    1  LIG1        0.0672
      4 C          -0.9560   -0.3307   -0.2520 C.ar    1  LIG1        0.0863
      5 N           0.2184   -0.9943   -0.0312 N.ar    1  LIG1       -0.3569
      6 H           0.2628   -1.9229    0.3672 H       1  LIG1        0.1655
      7 H           2.2861   -0.5715   -0.3393 H       1  LIG1        0.0820
      8 C           1.5118    2.0607   -1.4563 C.1     1  LIG1       -0.0663
      9 C           2.1024    3.0026   -1.9151 C.1     1  LIG1       -0.1138
     10 H           2.6352    3.8297   -2.3232 H       1  LIG1        0.1232
     11 N          -1.6247    1.8677   -1.1852 N.pl3   1  LIG1       -0.3553
     12 H          -1.4326    2.7486   -0.7132 H       1  LIG1        0.1424
     13 H          -1.5609    2.0501   -2.1847 H       1  LIG1        0.1424
     14 C          -2.2590   -0.8902    0.0667 C.ar    1  LIG1        0.0826
     15 C          -2.6232   -2.1387    0.5596 C.ar    1  LIG1        0.0727
     16 C          -4.0509   -2.1608    0.6446 C.ar    1  LIG1        0.0679
     17 C          -4.4923   -0.9297    0.1961 C.ar    1  LIG1        0.0868
     18 N          -3.3834   -0.1801   -0.1430 N.ar    1  LIG1       -0.3493
     19 H          -3.3468    0.7306   -0.5951 H       1  LIG1        0.1661
     20 C          -1.7380   -3.2010    0.9204 C.1     1  LIG1       -0.0656
     21 C          -0.9983   -4.1039    1.2252 C.1     1  LIG1       -0.1138
     22 H          -0.3614   -4.9119    1.5034 H       1  LIG1        0.1232
     23 N          -4.8108   -3.1991    1.1730 N.pl3   1  LIG1       -0.3553
     24 H          -5.7008   -3.3333    0.7069 H       1  LIG1        0.1424
     25 H          -4.2874   -4.0620    1.2468 H       1  LIG1        0.1424
     26 C          -5.8397   -0.3835    0.1296 C.ar    1  LIG1        0.0826
     27 C          -7.0237   -0.9580   -0.3148 C.ar    1  LIG1        0.0727
     28 C          -8.0650    0.0143   -0.1675 C.ar    1  LIG1        0.0679
     29 C          -7.4761    1.1494    0.3488 C.ar    1  LIG1        0.0868
     30 N          -6.1286    0.8804    0.5201 N.ar    1  LIG1       -0.3493
     31 H          -5.4516    1.5388    0.8719 H       1  LIG1        0.1661
     32 C          -7.1809   -2.2692   -0.8573 C.1     1  LIG1       -0.0656
     33 C          -7.3335   -3.3755   -1.3101 C.1     1  LIG1       -0.1138
     34 H          -7.4640   -4.3456   -1.7300 H       1  LIG1        0.1232
     35 N          -9.4122   -0.2024   -0.4339 N.pl3   1  LIG1       -0.3553
     36 H          -9.8897    0.6024   -0.8224 H       1  LIG1        0.1424
     37 H          -9.5670   -1.0400   -0.9801 H       1  LIG1        0.1424
     38 C          -8.0657    2.4210    0.7444 C.ar    1  LIG1        0.0821
     39 C          -8.9888    3.2235    0.0921 C.ar    1  LIG1        0.0720
     40 C          -9.2492    4.3553    0.9323 C.ar    1  LIG1        0.0584
     41 C          -8.4712    4.2068    2.0511 C.ar    1  LIG1        0.0243
     42 N          -7.7566    3.0355    1.9150 N.ar    1  LIG1       -0.3569
     43 H          -7.2132    2.6026    2.6448 H       1  LIG1        0.1655
     44 H          -8.3820    4.8259    2.9254 H       1  LIG1        0.0826
     45 C          -9.5572    2.9932   -1.1981 C.1     1  LIG1       -0.0656
     46 C         -10.0574    2.8124   -2.2794 C.1     1  LIG1       -0.1138
     47 H         -10.4847    2.6604   -3.2431 H       1  LIG1        0.1232
     48 N         -10.1650    5.3776    0.6406 N.pl3   1  LIG1       -0.3559
     49 H          -9.8294    6.2984    0.8907 H       1  LIG1        0.1424
     50 H         -10.4527    5.3553   -0.3305 H       1  LIG1        0.1424
@<TRIPOS>BOND
     1    47    46    1
     2    10     9    1
     3    46    45    3
     4    13    11    1
     5     9     8    3
     6    34    33    1
     7     8     2    1
     8    33    32    3
     9    45    39    1
    10    11     3    1
    11    11    12    1
    12    37    35    1
    13     2     3   ar
    14     2     1   ar
    15    32    27    1
    16    36    35    1
    17     3     4   ar
    18    19    18    1
    19    35    28    1
    20     1     7    1
    21     1     5   ar
    22    50    48    1
    23    27    28   ar
    24    27    26   ar
    25     4     5   ar
    26     4    14    1
    27    28    29   ar
    28    18    14   ar
    29    18    17   ar
    30     5     6    1
    31    14    15   ar
    32    39    38   ar
    33    39    40   ar
    34    26    17    1
    35    26    30   ar
    36    17    16   ar
    37    29    30   ar
    38    29    38    1
    39    30    31    1
    40    15    16   ar
    41    15    20    1
    42    48    49    1
    43    48    40    1
    44    16    23    1
    45    24    23    1
    46    38    42   ar
    47    20    21    3
    48    40    41   ar
    49    23    25    1
    50    21    22    1
    51    42    41   ar
    52    42    43    1
    53    41    44    1
