@<TRIPOS>MOLECULE
mol_data/opt/m06hf/geoms/mol2/13eh13eh13eh-13eh.out
 50 53 0 0 0
SMALL
GASTEIGER

@<TRIPOS>ATOM
      1 C           1.1740   -0.0630   -0.9499 C.ar    1  LIG1        0.0195
      2 C           0.9103    1.0066   -0.1177 C.ar    1  LIG1        0.0632
      3 C          -0.4746    0.9374    0.2478 C.ar    1  LIG1        0.0672
      4 C          -0.9946   -0.1725   -0.3848 C.ar    1  LIG1        0.0863
      5 N           0.0309   -0.7652   -1.1030 N.ar    1  LIG1       -0.3569
      6 H          -0.1029   -1.5267   -1.7488 H       1  LIG1        0.1655
      7 H           2.0911   -0.3416   -1.4390 H       1  LIG1        0.0820
      8 C           1.8241    2.0129    0.3281 C.1     1  LIG1       -0.0663
      9 C           2.5588    2.8800    0.7228 C.1     1  LIG1       -0.1138
     10 H           3.2184    3.6409    1.0694 H       1  LIG1        0.1232
     11 N          -1.1110    1.7882    1.1450 N.pl3   1  LIG1       -0.3553
     12 H          -0.5485    2.6015    1.3621 H       1  LIG1        0.1424
     13 H          -2.0557    2.0375    0.8765 H       1  LIG1        0.1424
     14 C          -2.3253   -0.7578   -0.3310 C.ar    1  LIG1        0.0826
     15 C          -3.5778   -0.1626   -0.3732 C.ar    1  LIG1        0.0727
     16 C          -4.5471   -1.2094   -0.2781 C.ar    1  LIG1        0.0679
     17 C          -3.8548   -2.3944   -0.1949 C.ar    1  LIG1        0.0868
     18 N          -2.5184   -2.1025   -0.2248 N.ar    1  LIG1       -0.3493
     19 H          -1.7902   -2.7892   -0.0728 H       1  LIG1        0.1661
     20 C          -3.8587    1.2301   -0.5288 C.1     1  LIG1       -0.0656
     21 C          -4.1093    2.4015   -0.6547 C.1     1  LIG1       -0.1138
     22 H          -4.3335    3.4343   -0.7897 H       1  LIG1        0.1232
     23 N          -5.9708   -1.1171   -0.2797 N.pl3   1  LIG1       -0.3553
     24 H          -6.2921   -0.6068    0.5396 H       1  LIG1        0.1424
     25 H          -6.2912   -0.6127   -1.1025 H       1  LIG1        0.1424
     26 C          -4.3644   -3.7505   -0.0913 C.ar    1  LIG1        0.0826
     27 C          -3.6957   -4.9639    0.0091 C.ar    1  LIG1        0.0727
     28 C          -4.6974   -5.9786    0.0843 C.ar    1  LIG1        0.0679
     29 C          -5.9210   -5.3453    0.0271 C.ar    1  LIG1        0.0868
     30 N          -5.6956   -4.0036   -0.0796 N.ar    1  LIG1       -0.3493
     31 H          -6.3931   -3.2608   -0.1495 H       1  LIG1        0.1661
     32 C          -2.2799   -5.1628    0.0387 C.1     1  LIG1       -0.0656
     33 C          -1.0876   -5.3374    0.0682 C.1     1  LIG1       -0.1138
     34 H          -0.0370   -5.5122    0.1053 H       1  LIG1        0.1232
     35 N          -4.5248   -7.3927    0.2026 N.pl3   1  LIG1       -0.3553
     36 H          -4.0132   -7.7520   -0.6000 H       1  LIG1        0.1424
     37 H          -3.9777   -7.6101    1.0325 H       1  LIG1        0.1424
     38 C          -7.2508   -5.9322    0.0731 C.ar    1  LIG1        0.0821
     39 C          -8.5104   -5.3492    0.0087 C.ar    1  LIG1        0.0720
     40 C          -9.4665   -6.4082    0.1095 C.ar    1  LIG1        0.0584
     41 C          -8.7545   -7.5781    0.2277 C.ar    1  LIG1        0.0243
     42 N          -7.4189   -7.2660    0.1955 N.ar    1  LIG1       -0.3569
     43 H          -6.6154   -7.8840    0.2612 H       1  LIG1        0.1655
     44 H          -9.0999   -8.5898    0.3411 H       1  LIG1        0.0826
     45 C          -8.8014   -3.9585   -0.1388 C.1     1  LIG1       -0.0656
     46 C          -9.0559   -2.7877   -0.2685 C.1     1  LIG1       -0.1138
     47 H          -9.2874   -1.7544   -0.3794 H       1  LIG1        0.1232
     48 N         -10.8635   -6.2399    0.1322 N.pl3   1  LIG1       -0.3559
     49 H         -11.1213   -5.2913   -0.1134 H       1  LIG1        0.1424
     50 H         -11.3464   -6.8959   -0.4689 H       1  LIG1        0.1424
@<TRIPOS>BOND
     1     6     5    1
     2     7     1    1
     3     5     1   ar
     4     5     4   ar
     5    25    23    1
     6     1     2   ar
     7    22    21    1
     8    21    20    3
     9    36    35    1
    10    20    15    1
    11    50    48    1
    12     4    14    1
    13     4     3   ar
    14    47    46    1
    15    15    14   ar
    16    15    16   ar
    17    14    18   ar
    18    23    16    1
    19    23    24    1
    20    16    17   ar
    21    46    45    3
    22    18    17   ar
    23    18    19    1
    24    17    26    1
    25    31    30    1
    26    45    39    1
    27     2     3   ar
    28     2     8    1
    29    49    48    1
    30    26    30   ar
    31    26    27   ar
    32    30    29   ar
    33    39    38   ar
    34    39    40   ar
    35    27    32    1
    36    27    28   ar
    37    29    38    1
    38    29    28   ar
    39    32    33    3
    40    33    34    1
    41    38    42   ar
    42    28    35    1
    43    40    48    1
    44    40    41   ar
    45    42    41   ar
    46    42    43    1
    47    35    37    1
    48    41    44    1
    49     3    11    1
    50     8     9    3
    51     9    10    1
    52    13    11    1
    53    11    12    1
