@<TRIPOS>MOLECULE
mol_data/opt/m06hf/geoms/mol2/13eh13eh-13eh.out
 38 40 0 0 0
SMALL
GASTEIGER

@<TRIPOS>ATOM
      1 C           1.2440   -0.3532   -0.0886 C.ar    1  LIG1        0.0195
      2 C           0.8311    0.9638   -0.0748 C.ar    1  LIG1        0.0632
      3 C          -0.5987    0.9504   -0.0618 C.ar    1  LIG1        0.0672
      4 C          -0.9907   -0.3681   -0.0683 C.ar    1  LIG1        0.0863
      5 N           0.1382   -1.1398   -0.0836 N.ar    1  LIG1       -0.3569
      6 H           0.1184   -2.1511   -0.0906 H       1  LIG1        0.1655
      7 H           2.2376   -0.7644   -0.1011 H       1  LIG1        0.0820
      8 C           1.6484    2.1403   -0.0744 C.1     1  LIG1       -0.0663
      9 C           2.3034    3.1494   -0.0738 C.1     1  LIG1       -0.1138
     10 H           2.8903    4.0387   -0.0726 H       1  LIG1        0.1232
     11 N          -1.5060    2.0519   -0.0456 N.pl3   1  LIG1       -0.3553
     12 H          -1.3654    2.6120    0.7917 H       1  LIG1        0.1424
     13 H          -1.3407    2.6546   -0.8482 H       1  LIG1        0.1424
     14 C          -2.3337   -0.9251   -0.0607 C.ar    1  LIG1        0.0826
     15 C          -2.7711   -2.2433   -0.0570 C.ar    1  LIG1        0.0727
     16 C          -4.1983   -2.2018   -0.0479 C.ar    1  LIG1        0.0679
     17 C          -4.5650   -0.8730   -0.0470 C.ar    1  LIG1        0.0868
     18 N          -3.4253   -0.1220   -0.0547 N.ar    1  LIG1       -0.3493
     19 H          -3.3514    0.8970   -0.0566 H       1  LIG1        0.1661
     20 C          -1.9557   -3.4185   -0.0610 C.1     1  LIG1       -0.0656
     21 C          -1.2777   -4.4156   -0.0646 C.1     1  LIG1       -0.1138
     22 H          -0.7000   -5.3110   -0.0670 H       1  LIG1        0.1232
     23 N          -5.1200   -3.2946   -0.0390 N.pl3   1  LIG1       -0.3553
     24 H          -4.9737   -3.8832   -0.8558 H       1  LIG1        0.1424
     25 H          -4.9682   -3.8741    0.7833 H       1  LIG1        0.1424
     26 C          -5.9023   -0.3008   -0.0387 C.ar    1  LIG1        0.0821
     27 C          -6.3349    1.0192   -0.0489 C.ar    1  LIG1        0.0720
     28 C          -7.7650    0.9906   -0.0317 C.ar    1  LIG1        0.0584
     29 C          -8.1371   -0.3323   -0.0138 C.ar    1  LIG1        0.0243
     30 N          -6.9962   -1.0931   -0.0283 N.ar    1  LIG1       -0.3569
     31 H          -6.9007   -2.1049   -0.0236 H       1  LIG1        0.1655
     32 H          -9.1158   -0.7757    0.0181 H       1  LIG1        0.0826
     33 C          -5.5121    2.1872   -0.0761 C.1     1  LIG1       -0.0656
     34 C          -4.8264    3.1784   -0.1021 C.1     1  LIG1       -0.1138
     35 H          -4.2261    4.0580   -0.1229 H       1  LIG1        0.1232
     36 N          -8.6056    2.1211    0.0040 N.pl3   1  LIG1       -0.3559
     37 H          -8.0643    2.9750   -0.0714 H       1  LIG1        0.1424
     38 H          -9.3093    2.1013   -0.7243 H       1  LIG1        0.1424
@<TRIPOS>BOND
     1    24    23    1
     2    13    11    1
     3    38    36    1
     4    35    34    1
     5    34    33    3
     6     7     1    1
     7     6     5    1
     8     1     5   ar
     9     1     2   ar
    10     5     4   ar
    11    33    27    1
    12     2     8    1
    13     2     3   ar
    14     8     9    3
    15     9    10    1
    16    37    36    1
    17     4     3   ar
    18     4    14    1
    19    22    21    1
    20    21    20    3
    21     3    11    1
    22    20    15    1
    23    14    15   ar
    24    14    18   ar
    25    15    16   ar
    26    19    18    1
    27    18    17   ar
    28    27    26   ar
    29    27    28   ar
    30    16    17   ar
    31    16    23    1
    32    17    26    1
    33    11    12    1
    34    23    25    1
    35    26    30   ar
    36    28    29   ar
    37    28    36    1
    38    30    31    1
    39    30    29   ar
    40    29    32    1
