@<TRIPOS>MOLECULE
mol_data/opt/m06hf/geoms/mol2/13eh13eh-13eh-13eh.out
 50 53 0 0 0
SMALL
GASTEIGER

@<TRIPOS>ATOM
      1 C           1.2981   -0.3440   -0.1344 C.ar    1  LIG1        0.0195
      2 C           0.8775    0.8608   -0.6619 C.ar    1  LIG1        0.0632
      3 C          -0.5517    0.8318   -0.6722 C.ar    1  LIG1        0.0672
      4 C          -0.9353   -0.3833   -0.1524 C.ar    1  LIG1        0.0863
      5 N           0.1977   -1.0785    0.1653 N.ar    1  LIG1       -0.3569
      6 H           0.1826   -2.0084    0.5629 H       1  LIG1        0.1655
      7 H           2.2948   -0.7086    0.0406 H       1  LIG1        0.0820
      8 C           1.6890    1.9485   -1.1189 C.1     1  LIG1       -0.0663
      9 C           2.3409    2.8797   -1.5113 C.1     1  LIG1       -0.1138
     10 H           2.9273    3.6979   -1.8588 H       1  LIG1        0.1232
     11 N          -1.4653    1.8332   -1.1264 N.pl3   1  LIG1       -0.3553
     12 H          -1.2998    2.7069   -0.6319 H       1  LIG1        0.1424
     13 H          -1.3116    2.0211   -2.1149 H       1  LIG1        0.1424
     14 C          -2.2745   -0.9083    0.0548 C.ar    1  LIG1        0.0826
     15 C          -2.7092   -2.1423    0.5281 C.ar    1  LIG1        0.0727
     16 C          -4.1389   -2.1270    0.5027 C.ar    1  LIG1        0.0679
     17 C          -4.5113   -0.8899    0.0084 C.ar    1  LIG1        0.0868
     18 N          -3.3599   -0.1739   -0.2516 N.ar    1  LIG1       -0.3493
     19 H          -3.2673    0.7429   -0.6833 H       1  LIG1        0.1661
     20 C          -1.8839   -3.2218    0.9685 C.1     1  LIG1       -0.0656
     21 C          -1.1941   -4.1382    1.3408 C.1     1  LIG1       -0.1138
     22 H          -0.6013   -4.9564    1.6783 H       1  LIG1        0.1232
     23 N          -4.9609   -3.1395    0.9859 N.pl3   1  LIG1       -0.3553
     24 H          -5.8100   -3.2739    0.4498 H       1  LIG1        0.1424
     25 H          -4.4597   -4.0064    1.1308 H       1  LIG1        0.1424
     26 C          -5.8288   -0.3003   -0.1677 C.ar    1  LIG1        0.0826
     27 C          -7.0164   -0.8471   -0.6350 C.ar    1  LIG1        0.0727
     28 C          -8.0036    0.1864   -0.5890 C.ar    1  LIG1        0.0679
     29 C          -7.3833    1.3178   -0.1138 C.ar    1  LIG1        0.0868
     30 N          -6.0765    1.0038    0.1370 N.ar    1  LIG1       -0.3493
     31 H          -5.4212    1.6412    0.5713 H       1  LIG1        0.1661
     32 C          -7.2170   -2.1731   -1.1275 C.1     1  LIG1       -0.0656
     33 C          -7.4030   -3.2886   -1.5430 C.1     1  LIG1       -0.1138
     34 H          -7.5613   -4.2665   -1.9344 H       1  LIG1        0.1232
     35 N          -9.3805    0.1248   -0.9677 N.pl3   1  LIG1       -0.3553
     36 H          -9.4622   -0.1869   -1.9329 H       1  LIG1        0.1424
     37 H          -9.8682   -0.5586   -0.3922 H       1  LIG1        0.1424
     38 C          -7.9338    2.6432    0.1126 C.ar    1  LIG1        0.0821
     39 C          -7.3422    3.8057    0.5938 C.ar    1  LIG1        0.0720
     40 C          -8.3560    4.8152    0.6081 C.ar    1  LIG1        0.0584
     41 C          -9.5070    4.2292    0.1379 C.ar    1  LIG1        0.0243
     42 N          -9.2246    2.9204   -0.1630 N.ar    1  LIG1       -0.3569
     43 H          -9.8405    2.2028   -0.5332 H       1  LIG1        0.1655
     44 H         -10.4907    4.6430    0.0083 H       1  LIG1        0.0826
     45 C          -5.9813    3.9614    1.0016 C.1     1  LIG1       -0.0656
     46 C          -4.8344    4.0980    1.3488 C.1     1  LIG1       -0.1138
     47 H          -3.8293    4.2285    1.6764 H       1  LIG1        0.1232
     48 N          -8.1869    6.1347    1.0692 N.pl3   1  LIG1       -0.3559
     49 H          -7.2132    6.3281    1.2731 H       1  LIG1        0.1424
     50 H          -8.5456    6.8232    0.4192 H       1  LIG1        0.1424
@<TRIPOS>BOND
     1    13    11    1
     2    34    33    1
     3    36    35    1
     4    10     9    1
     5    33    32    3
     6     9     8    3
     7    32    27    1
     8    11     3    1
     9    11    12    1
    10     8     2    1
    11    35    28    1
    12    35    37    1
    13    19    18    1
    14     3     2   ar
    15     3     4   ar
    16     2     1   ar
    17    27    28   ar
    18    27    26   ar
    19    28    29   ar
    20    43    42    1
    21    18    17   ar
    22    18    14   ar
    23    26    17    1
    24    26    30   ar
    25    42    38   ar
    26    42    41   ar
    27     4    14    1
    28     4     5   ar
    29     1     7    1
    30     1     5   ar
    31    29    38    1
    32    29    30   ar
    33    44    41    1
    34    17    16   ar
    35    14    15   ar
    36    38    39   ar
    37    30    31    1
    38    41    40   ar
    39     5     6    1
    40    50    48    1
    41    24    23    1
    42    16    15   ar
    43    16    23    1
    44    15    20    1
    45    39    40   ar
    46    39    45    1
    47    40    48    1
    48    20    21    3
    49    23    25    1
    50    45    46    3
    51    48    49    1
    52    21    22    1
    53    46    47    1
