@<TRIPOS>MOLECULE
mol_data/opt/m06hf/geoms/mol2/13eh13eh-.out
 26 27 0 0 0
SMALL
GASTEIGER

@<TRIPOS>ATOM
      1 C           1.1742   -0.3280   -0.0993 C.ar    1  LIG1        0.0195
      2 C           0.7722    0.9927   -0.1050 C.ar    1  LIG1        0.0632
      3 C          -0.6577    0.9906   -0.0901 C.ar    1  LIG1        0.0672
      4 C          -1.0604   -0.3249   -0.0762 C.ar    1  LIG1        0.0863
      5 N           0.0617   -1.1049   -0.0821 N.ar    1  LIG1       -0.3569
      6 H           0.0312   -2.1160   -0.0740 H       1  LIG1        0.1655
      7 H           2.1648   -0.7463   -0.1061 H       1  LIG1        0.0820
      8 C           1.6008    2.1608   -0.1221 C.1     1  LIG1       -0.0663
      9 C           2.2698    3.1605   -0.1361 C.1     1  LIG1       -0.1138
     10 H           2.8709    4.0399   -0.1484 H       1  LIG1        0.1232
     11 N          -1.5538    2.1050   -0.0890 N.pl3   1  LIG1       -0.3553
     12 H          -1.3735    2.6949    0.7205 H       1  LIG1        0.1424
     13 H          -1.3965    2.6781   -0.9152 H       1  LIG1        0.1424
     14 C          -2.4080   -0.8737   -0.0578 C.ar    1  LIG1        0.0821
     15 C          -2.8648   -2.1821   -0.0449 C.ar    1  LIG1        0.0720
     16 C          -4.2984   -2.1222   -0.0244 C.ar    1  LIG1        0.0584
     17 C          -4.6390   -0.7936   -0.0260 C.ar    1  LIG1        0.0243
     18 N          -3.4896   -0.0564   -0.0495 N.ar    1  LIG1       -0.3569
     19 H          -3.3705    0.9534   -0.0559 H       1  LIG1        0.1655
     20 H          -5.6158   -0.3443   -0.0108 H       1  LIG1        0.0826
     21 C          -2.0588   -3.3637   -0.0479 C.1     1  LIG1       -0.0656
     22 C          -1.3823   -4.3616   -0.0494 C.1     1  LIG1       -0.1138
     23 H          -0.8069   -5.2583   -0.0510 H       1  LIG1        0.1232
     24 N          -5.2206   -3.2065   -0.0069 N.pl3   1  LIG1       -0.3559
     25 H          -5.1658   -3.7312   -0.8756 H       1  LIG1        0.1424
     26 H          -4.9942   -3.8470    0.7488 H       1  LIG1        0.1424
@<TRIPOS>BOND
     1    13    11    1
     2    25    24    1
     3    10     9    1
     4     9     8    3
     5     8     2    1
     6     7     1    1
     7     2     1   ar
     8     2     3   ar
     9     1     5   ar
    10     3    11    1
    11     3     4   ar
    12    11    12    1
    13     5     4   ar
    14     5     6    1
    15     4    14    1
    16    14    18   ar
    17    14    15   ar
    18    19    18    1
    19    23    22    1
    20    18    17   ar
    21    22    21    3
    22    21    15    1
    23    15    16   ar
    24    17    16   ar
    25    17    20    1
    26    16    24    1
    27    24    26    1
