@<TRIPOS>MOLECULE
mol_data/opt/m06hf/geoms/mol2/13eh13eh13eh13eh-.out
 50 53 0 0 0
SMALL
GASTEIGER

@<TRIPOS>ATOM
      1 C           0.5946    0.4078   -2.0304 C.ar    1  LIG1        0.0195
      2 C           0.7376    1.1035   -0.8464 C.ar    1  LIG1        0.0632
      3 C          -0.4088    0.8132   -0.0350 C.ar    1  LIG1        0.0672
      4 C          -1.2003   -0.0484   -0.7638 C.ar    1  LIG1        0.0863
      5 N          -0.5638   -0.2845   -1.9717 N.ar    1  LIG1       -0.3569
      6 H          -0.9903   -0.7684   -2.7455 H       1  LIG1        0.1655
      7 H           1.2350    0.3857   -2.8945 H       1  LIG1        0.0820
      8 C           1.8153    1.9635   -0.4629 C.1     1  LIG1       -0.0663
      9 C           2.6963    2.6997   -0.1029 C.1     1  LIG1       -0.1138
     10 H           3.4808    3.3497    0.2077 H       1  LIG1        0.1232
     11 N          -0.6056    1.2598    1.2667 N.pl3   1  LIG1       -0.3553
     12 H           0.0228    2.0147    1.5101 H       1  LIG1        0.1424
     13 H          -1.5704    1.4785    1.4850 H       1  LIG1        0.1424
     14 C          -2.4549   -0.6985   -0.4110 C.ar    1  LIG1        0.0826
     15 C          -3.6049   -0.1719    0.1614 C.ar    1  LIG1        0.0727
     16 C          -4.5533   -1.2355    0.2994 C.ar    1  LIG1        0.0679
     17 C          -3.9518   -2.3692   -0.2073 C.ar    1  LIG1        0.0868
     18 N          -2.6809   -2.0157   -0.6297 N.ar    1  LIG1       -0.3493
     19 H          -2.0032   -2.6554   -1.0138 H       1  LIG1        0.1661
     20 C          -3.8181    1.1905    0.5323 C.1     1  LIG1       -0.0656
     21 C          -4.0094    2.3333    0.8620 C.1     1  LIG1       -0.1138
     22 H          -4.1829    3.3481    1.1349 H       1  LIG1        0.1232
     23 N          -5.8007   -1.1265    0.9020 N.pl3   1  LIG1       -0.3553
     24 H          -6.0904   -0.1637    1.0159 H       1  LIG1        0.1424
     25 H          -6.5193   -1.6962    0.4717 H       1  LIG1        0.1424
     26 C          -4.4197   -3.7455   -0.2649 C.ar    1  LIG1        0.0826
     27 C          -5.6512   -4.2709   -0.6282 C.ar    1  LIG1        0.0727
     28 C          -5.5596   -5.6921   -0.4986 C.ar    1  LIG1        0.0679
     29 C          -4.2822   -5.9774   -0.0766 C.ar    1  LIG1        0.0868
     30 N          -3.6128   -4.7937    0.0622 N.ar    1  LIG1       -0.3493
     31 H          -2.6852   -4.7228    0.4620 H       1  LIG1        0.1661
     32 C          -6.7907   -3.5376   -1.0846 C.1     1  LIG1       -0.0656
     33 C          -7.7608   -2.9305   -1.4618 C.1     1  LIG1       -0.1138
     34 H          -8.6111   -2.3965   -1.8187 H       1  LIG1        0.1232
     35 N          -6.5576   -6.6821   -0.7542 N.pl3   1  LIG1       -0.3553
     36 H          -7.3419   -6.5600   -0.1169 H       1  LIG1        0.1424
     37 H          -6.9197   -6.5796   -1.6992 H       1  LIG1        0.1424
     38 C          -3.6662   -7.2643    0.1981 C.ar    1  LIG1        0.0821
     39 C          -2.3831   -7.5820    0.6290 C.ar    1  LIG1        0.0720
     40 C          -2.3178   -9.0071    0.7294 C.ar    1  LIG1        0.0584
     41 C          -3.5502   -9.4891    0.3560 C.ar    1  LIG1        0.0243
     42 N          -4.3461   -8.4169    0.0360 N.ar    1  LIG1       -0.3569
     43 H          -5.3100   -8.4109   -0.2823 H       1  LIG1        0.1655
     44 H          -3.9134  -10.5000    0.3065 H       1  LIG1        0.0826
     45 C          -1.3310   -6.6585    0.9177 C.1     1  LIG1       -0.0656
     46 C          -0.4410   -5.8816    1.1615 C.1     1  LIG1       -0.1138
     47 H           0.3490   -5.2066    1.3988 H       1  LIG1        0.1232
     48 N          -1.2043   -9.7305    1.1866 N.pl3   1  LIG1       -0.3559
     49 H          -1.0695  -10.6035    0.6933 H       1  LIG1        0.1424
     50 H          -0.3587   -9.1735    1.1547 H       1  LIG1        0.1424
@<TRIPOS>BOND
     1     7     1    1
     2     6     5    1
     3     1     5   ar
     4     1     2   ar
     5     5     4   ar
     6    34    33    1
     7    37    35    1
     8    33    32    3
     9    32    27    1
    10    19    18    1
    11     2     8    1
    12     2     3   ar
    13     4    14    1
    14     4     3   ar
    15    35    28    1
    16    35    36    1
    17    18    14   ar
    18    18    17   ar
    19    27    28   ar
    20    27    26   ar
    21    28    29   ar
    22     8     9    3
    23    14    15   ar
    24    43    42    1
    25    26    17    1
    26    26    30   ar
    27    17    16   ar
    28     9    10    1
    29    29    30   ar
    30    29    38    1
    31     3    11    1
    32    42    38   ar
    33    42    41   ar
    34    30    31    1
    35    15    16   ar
    36    15    20    1
    37    38    39   ar
    38    16    23    1
    39    44    41    1
    40    41    40   ar
    41    25    23    1
    42    20    21    3
    43    39    40   ar
    44    39    45    1
    45    49    48    1
    46    40    48    1
    47    21    22    1
    48    23    24    1
    49    45    46    3
    50    50    48    1
    51    46    47    1
    52    11    13    1
    53    11    12    1
