@<TRIPOS>MOLECULE
mol_data/opt/m06hf/geoms/mol2/13eh13eh13eh.out
 38 40 0 0 0
SMALL
GASTEIGER

@<TRIPOS>ATOM
      1 C           0.9301   -0.0458   -1.4366 C.ar    1  LIG1        0.0195
      2 C           0.8448    0.9591   -0.4941 C.ar    1  LIG1        0.0632
      3 C          -0.4502    0.8698    0.1158 C.ar    1  LIG1        0.0672
      4 C          -1.0974   -0.1883   -0.4855 C.ar    1  LIG1        0.0863
      5 N          -0.2340   -0.7320   -1.4227 N.ar    1  LIG1       -0.3569
      6 H          -0.5060   -1.4272   -2.0989 H       1  LIG1        0.1655
      7 H           1.7343   -0.2889   -2.1089 H       1  LIG1        0.0820
      8 C           1.8446    1.9239   -0.1511 C.1     1  LIG1       -0.0663
      9 C           2.6541    2.7546    0.1693 C.1     1  LIG1       -0.1138
     10 H           3.3795    3.4822    0.4506 H       1  LIG1        0.1232
     11 N          -0.8984    1.6566    1.1716 N.pl3   1  LIG1       -0.3553
     12 H          -0.3022    2.4597    1.3276 H       1  LIG1        0.1424
     13 H          -1.8756    1.9162    1.1022 H       1  LIG1        0.1424
     14 C          -2.4093   -0.7612   -0.2187 C.ar    1  LIG1        0.0826
     15 C          -3.6376   -0.1403   -0.0393 C.ar    1  LIG1        0.0727
     16 C          -4.6139   -1.1598    0.2013 C.ar    1  LIG1        0.0679
     17 C          -3.9478   -2.3660    0.1489 C.ar    1  LIG1        0.0868
     18 N          -2.6139   -2.0961   -0.1079 N.ar    1  LIG1       -0.3493
     19 H          -1.8904   -2.7937   -0.1822 H       1  LIG1        0.1661
     20 C          -3.8973    1.2628   -0.1089 C.1     1  LIG1       -0.0656
     21 C          -4.1366    2.4430   -0.1556 C.1     1  LIG1       -0.1138
     22 H          -4.3558    3.4840   -0.2178 H       1  LIG1        0.1232
     23 N          -5.9544   -0.9379    0.4964 N.pl3   1  LIG1       -0.3553
     24 H          -6.2445    0.0064    0.2772 H       1  LIG1        0.1424
     25 H          -6.5805   -1.6294    0.1011 H       1  LIG1        0.1424
     26 C          -4.4358   -3.7210    0.3650 C.ar    1  LIG1        0.0821
     27 C          -5.5675   -4.3540   -0.1248 C.ar    1  LIG1        0.0720
     28 C          -5.5905   -5.6809    0.4169 C.ar    1  LIG1        0.0584
     29 C          -4.4724   -5.8095    1.2000 C.ar    1  LIG1        0.0243
     30 N          -3.7822   -4.6172    1.1482 N.ar    1  LIG1       -0.3569
     31 H          -2.9993   -4.3770    1.7350 H       1  LIG1        0.1655
     32 H          -4.1261   -6.6400    1.7885 H       1  LIG1        0.0826
     33 C          -6.5240   -3.8035   -1.0319 C.1     1  LIG1       -0.0656
     34 C          -7.3465   -3.3531   -1.7887 C.1     1  LIG1       -0.1138
     35 H          -8.0623   -2.9594   -2.4726 H       1  LIG1        0.1232
     36 N          -6.6039   -6.6259    0.1909 N.pl3   1  LIG1       -0.3559
     37 H          -7.2221   -6.3358   -0.5576 H       1  LIG1        0.1424
     38 H          -6.2483   -7.5564    0.0142 H       1  LIG1        0.1424
@<TRIPOS>BOND
     1    35    34    1
     2     7     1    1
     3     6     5    1
     4    34    33    3
     5     1     5   ar
     6     1     2   ar
     7     5     4   ar
     8    33    27    1
     9    37    36    1
    10     2     8    1
    11     2     3   ar
    12     4    14    1
    13     4     3   ar
    14    14    18   ar
    15    14    15   ar
    16    22    21    1
    17    19    18    1
    18    21    20    3
    19     8     9    3
    20    27    26   ar
    21    27    28   ar
    22    20    15    1
    23    18    17   ar
    24    15    16   ar
    25    38    36    1
    26    25    23    1
    27     3    11    1
    28    17    16   ar
    29    17    26    1
    30     9    10    1
    31    36    28    1
    32    16    23    1
    33    24    23    1
    34    26    30   ar
    35    28    29   ar
    36    13    11    1
    37    30    29   ar
    38    30    31    1
    39    11    12    1
    40    29    32    1
