@<TRIPOS>MOLECULE
mol_data/opt/m06hf/geoms/mol2/13ei13ei.out
 28 29 0 0 0
SMALL
GASTEIGER

@<TRIPOS>ATOM
      1 C           1.0911   -0.2336   -0.8373 C.ar    1  LIG1        0.0179
      2 C           0.8269    0.9752   -0.2292 C.ar    1  LIG1        0.0455
      3 C          -0.5334    0.9518    0.2219 C.ar    1  LIG1       -0.0084
      4 C          -1.0361   -0.2758   -0.1382 C.ar    1  LIG1        0.0682
      5 N          -0.0373   -0.9833   -0.7710 N.ar    1  LIG1       -0.3581
      6 H          -0.1747   -1.8741   -1.2213 H       1  LIG1        0.1654
      7 H           1.9926   -0.5908   -1.3034 H       1  LIG1        0.0819
      8 C           1.7494    2.0596   -0.0575 C.1     1  LIG1       -0.0679
      9 C           2.5055    2.9809    0.1015 C.1     1  LIG1       -0.1139
     10 H           3.1758    3.7964    0.2409 H       1  LIG1        0.1232
     11 C          -1.2424    2.0552    0.9590 C.3     1  LIG1       -0.0365
     12 H          -2.1355    1.6659    1.4469 H       1  LIG1        0.0279
     13 H          -1.5449    2.8405    0.2647 H       1  LIG1        0.0279
     14 H          -0.5742    2.4862    1.7052 H       1  LIG1        0.0279
     15 C          -2.3631   -0.8563    0.0683 C.ar    1  LIG1        0.0790
     16 C          -3.6209   -0.3527   -0.2108 C.ar    1  LIG1        0.0542
     17 C          -4.5852   -1.3328    0.1937 C.ar    1  LIG1       -0.0171
     18 C          -3.8734   -2.3912    0.6938 C.ar    1  LIG1        0.0063
     19 N          -2.5377   -2.0968    0.6097 N.ar    1  LIG1       -0.3583
     20 H          -1.7892   -2.6498    0.9954 H       1  LIG1        0.1654
     21 H          -4.2169   -3.3259    1.1033 H       1  LIG1        0.0810
     22 C          -3.9047    0.9082   -0.8280 C.1     1  LIG1       -0.0672
     23 C          -4.1634    1.9631   -1.3446 C.1     1  LIG1       -0.1138
     24 H          -4.3852    2.8959   -1.8077 H       1  LIG1        0.1232
     25 C          -6.0799   -1.1989    0.0655 C.3     1  LIG1       -0.0371
     26 H          -6.5754   -2.0823    0.4672 H       1  LIG1        0.0278
     27 H          -6.3612   -1.0804   -0.9817 H       1  LIG1        0.0278
     28 H          -6.4267   -0.3200    0.6104 H       1  LIG1        0.0278
@<TRIPOS>BOND
     1    24    23    1
     2    23    22    3
     3     7     1    1
     4     6     5    1
     5    27    25    1
     6     1     5   ar
     7     1     2   ar
     8    22    16    1
     9     5     4   ar
    10     2     8    1
    11     2     3   ar
    12    16    15   ar
    13    16    17   ar
    14     4    15    1
    15     4     3   ar
    16     8     9    3
    17    25    17    1
    18    25    26    1
    19    25    28    1
    20    15    19   ar
    21     9    10    1
    22    17    18   ar
    23     3    11    1
    24    13    11    1
    25    19    18   ar
    26    19    20    1
    27    18    21    1
    28    11    12    1
    29    11    14    1
