@<TRIPOS>MOLECULE
mol_data/opt/m06hf/geoms/mol2/13ei13ei-13ei-13ei-.out
 54 57 0 0 0
SMALL
GASTEIGER

@<TRIPOS>ATOM
      1 C           1.2195   -0.3728   -0.8068 C.ar    1  LIG1        0.0179
      2 C           0.7968    0.9240   -1.0247 C.ar    1  LIG1        0.0455
      3 C          -0.6060    0.9740   -0.7572 C.ar    1  LIG1       -0.0084
      4 C          -0.9730   -0.3064   -0.3904 C.ar    1  LIG1        0.0682
      5 N           0.1443   -1.0993   -0.4285 N.ar    1  LIG1       -0.3581
      6 H           0.1398   -2.0782   -0.1741 H       1  LIG1        0.1654
      7 H           2.2009   -0.8043   -0.8968 H       1  LIG1        0.0819
      8 C           1.6169    2.0271   -1.4313 C.1     1  LIG1       -0.0679
      9 C           2.2905    2.9644   -1.7690 C.1     1  LIG1       -0.1139
     10 H           2.8937    3.7884   -2.0704 H       1  LIG1        0.1232
     11 C          -1.4666    2.2088   -0.8527 C.3     1  LIG1       -0.0365
     12 H          -2.0856    2.3233    0.0403 H       1  LIG1        0.0279
     13 H          -2.1085    2.1838   -1.7381 H       1  LIG1        0.0279
     14 H          -0.8214    3.0827   -0.9366 H       1  LIG1        0.0279
     15 C          -2.2649   -0.8599   -0.0059 C.ar    1  LIG1        0.0795
     16 C          -2.5922   -2.0886    0.5537 C.ar    1  LIG1        0.0549
     17 C          -4.0122   -2.1376    0.7231 C.ar    1  LIG1       -0.0077
     18 C          -4.4949   -0.9394    0.2557 C.ar    1  LIG1        0.0687
     19 N          -3.4284   -0.1791   -0.1739 N.ar    1  LIG1       -0.3506
     20 H          -3.5141    0.6845   -0.6871 H       1  LIG1        0.1660
     21 C          -1.6704   -3.1239    0.9136 C.1     1  LIG1       -0.0672
     22 C          -0.9003   -4.0020    1.2118 C.1     1  LIG1       -0.1138
     23 H          -0.2358   -4.7858    1.4944 H       1  LIG1        0.1232
     24 C          -4.7938   -3.2746    1.3234 C.3     1  LIG1       -0.0365
     25 H          -4.2958   -3.6294    2.2263 H       1  LIG1        0.0279
     26 H          -4.8633   -4.1000    0.6135 H       1  LIG1        0.0279
     27 H          -5.8033   -2.9451    1.5663 H       1  LIG1        0.0279
     28 C          -5.8600   -0.4201    0.1953 C.ar    1  LIG1        0.0795
     29 C          -7.0230   -0.9833   -0.3041 C.ar    1  LIG1        0.0549
     30 C          -8.0827   -0.0374   -0.1311 C.ar    1  LIG1       -0.0077
     31 C          -7.5190    1.0708    0.4586 C.ar    1  LIG1        0.0687
     32 N          -6.1799    0.8230    0.6507 N.ar    1  LIG1       -0.3506
     33 H          -5.5261    1.4708    1.0628 H       1  LIG1        0.1660
     34 C          -7.1369   -2.2781   -0.9060 C.1     1  LIG1       -0.0672
     35 C          -7.2526   -3.3640   -1.4099 C.1     1  LIG1       -0.1138
     36 H          -7.3514   -4.3244   -1.8595 H       1  LIG1        0.1232
     37 C          -9.5210   -0.2370   -0.5251 C.3     1  LIG1       -0.0365
     38 H          -9.8436   -1.2389   -0.2409 H       1  LIG1        0.0279
     39 H          -9.6352   -0.1245   -1.6041 H       1  LIG1        0.0279
     40 H         -10.1494    0.5058   -0.0347 H       1  LIG1        0.0279
     41 C          -8.1244    2.3374    0.8712 C.ar    1  LIG1        0.0790
     42 C          -8.9207    3.2238    0.1691 C.ar    1  LIG1        0.0542
     43 C          -9.2390    4.3139    1.0434 C.ar    1  LIG1       -0.0171
     44 C          -8.6178    4.0467    2.2347 C.ar    1  LIG1        0.0063
     45 N          -7.9458    2.8581    2.1200 N.ar    1  LIG1       -0.3583
     46 H          -7.4861    2.3708    2.8727 H       1  LIG1        0.1654
     47 H          -8.6060    4.6104    3.1518 H       1  LIG1        0.0810
     48 C          -9.3253    3.0894   -1.1984 C.1     1  LIG1       -0.0672
     49 C          -9.6772    2.9949   -2.3445 C.1     1  LIG1       -0.1138
     50 H          -9.9855    2.9080   -3.3603 H       1  LIG1        0.1232
     51 C         -10.0807    5.5102    0.6843 C.3     1  LIG1       -0.0371
     52 H         -11.0808    5.1916    0.3878 H       1  LIG1        0.0278
     53 H          -9.6345    6.0494   -0.1524 H       1  LIG1        0.0278
     54 H         -10.1628    6.1845    1.5362 H       1  LIG1        0.0278
@<TRIPOS>BOND
     1    50    49    1
     2    49    48    3
     3    10     9    1
     4    36    35    1
     5     9     8    3
     6    13    11    1
     7    39    37    1
     8     8     2    1
     9    35    34    3
    10    48    42    1
    11     2     1   ar
    12     2     3   ar
    13    14    11    1
    14    34    29    1
    15     7     1    1
    16    11     3    1
    17    11    12    1
    18     1     5   ar
    19     3     4   ar
    20    20    19    1
    21    37    38    1
    22    37    30    1
    23    37    40    1
    24     5     4   ar
    25     5     6    1
    26     4    15    1
    27    29    30   ar
    28    29    28   ar
    29    19    15   ar
    30    19    18   ar
    31    53    51    1
    32    30    31   ar
    33    15    16   ar
    34    42    41   ar
    35    42    43   ar
    36    28    18    1
    37    28    32   ar
    38    18    17   ar
    39    52    51    1
    40    31    32   ar
    41    31    41    1
    42    16    17   ar
    43    16    21    1
    44    26    24    1
    45    32    33    1
    46    51    43    1
    47    51    54    1
    48    17    24    1
    49    41    45   ar
    50    21    22    3
    51    43    44   ar
    52    22    23    1
    53    24    27    1
    54    24    25    1
    55    45    44   ar
    56    45    46    1
    57    44    47    1
