@<TRIPOS>MOLECULE
mol_data/opt/m06hf/geoms/mol2/13ei13ei-.out
 28 29 0 0 0
SMALL
GASTEIGER

@<TRIPOS>ATOM
      1 C           1.1867   -0.3366   -0.0183 C.ar    1  LIG1        0.0179
      2 C           0.8139    0.9929    0.0019 C.ar    1  LIG1        0.0455
      3 C          -0.6143    1.0429    0.0133 C.ar    1  LIG1       -0.0084
      4 C          -1.0462   -0.2693   -0.0007 C.ar    1  LIG1        0.0682
      5 N           0.0577   -1.0808   -0.0197 N.ar    1  LIG1       -0.3581
      6 H           0.0033   -2.0911   -0.0324 H       1  LIG1        0.1654
      7 H           2.1668   -0.7789   -0.0315 H       1  LIG1        0.0819
      8 C           1.6949    2.1234    0.0101 C.1     1  LIG1       -0.0679
      9 C           2.4163    3.0858    0.0174 C.1     1  LIG1       -0.1139
     10 H           3.0609    3.9336    0.0237 H       1  LIG1        0.1232
     11 C          -1.4359    2.3075    0.0361 C.3     1  LIG1       -0.0365
     12 H          -2.0571    2.3618    0.9344 H       1  LIG1        0.0279
     13 H          -2.0696    2.3861   -0.8516 H       1  LIG1        0.0279
     14 H          -0.7628    3.1642    0.0431 H       1  LIG1        0.0279
     15 C          -2.3887   -0.8405    0.0018 C.ar    1  LIG1        0.0790
     16 C          -2.8083   -2.1640   -0.0118 C.ar    1  LIG1        0.0542
     17 C          -4.2409   -2.1736   -0.0017 C.ar    1  LIG1       -0.0171
     18 C          -4.6315   -0.8623    0.0176 C.ar    1  LIG1        0.0063
     19 N          -3.5106   -0.0722    0.0195 N.ar    1  LIG1       -0.3583
     20 H          -3.5065    0.9343    0.0320 H       1  LIG1        0.1654
     21 H          -5.6180   -0.4323    0.0301 H       1  LIG1        0.0810
     22 C          -1.9689   -3.3234   -0.0324 C.1     1  LIG1       -0.0672
     23 C          -1.2730   -4.3076   -0.0498 C.1     1  LIG1       -0.1138
     24 H          -0.6813   -5.1936   -0.0652 H       1  LIG1        0.1232
     25 C          -5.1118   -3.4020   -0.0108 C.3     1  LIG1       -0.0371
     26 H          -4.9043   -4.0202    0.8636 H       1  LIG1        0.0278
     27 H          -4.9171   -3.9979   -0.9035 H       1  LIG1        0.0278
     28 H          -6.1635   -3.1175    0.0004 H       1  LIG1        0.0278
@<TRIPOS>BOND
     1    27    25    1
     2    13    11    1
     3    24    23    1
     4    23    22    3
     5    22    16    1
     6     6     5    1
     7     7     1    1
     8     5     1   ar
     9     5     4   ar
    10     1     2   ar
    11    16    17   ar
    12    16    15   ar
    13    25    17    1
    14    25    28    1
    15    25    26    1
    16    17    18   ar
    17     4    15    1
    18     4     3   ar
    19    15    19   ar
    20     2     8    1
    21     2     3   ar
    22     8     9    3
    23     3    11    1
    24     9    10    1
    25    18    19   ar
    26    18    21    1
    27    19    20    1
    28    11    14    1
    29    11    12    1
