@<TRIPOS>MOLECULE
mol_data/opt/m06hf/geoms/mol2/13ei13ei-13ei13ei-.out
 54 57 0 0 0
SMALL
GASTEIGER

@<TRIPOS>ATOM
      1 C          -6.1942    1.0100    0.1488 C.ar    1  LIG1        0.0179
      2 C          -6.0881   -0.3665    0.1003 C.ar    1  LIG1        0.0455
      3 C          -4.6984   -0.6923    0.0372 C.ar    1  LIG1       -0.0084
      4 C          -4.0196    0.5104    0.0510 C.ar    1  LIG1        0.0682
      5 N          -4.9434    1.5211    0.1193 N.ar    1  LIG1       -0.3581
      6 H          -4.6941    2.5012    0.1376 H       1  LIG1        0.1654
      7 H          -7.0692    1.6336    0.2017 H       1  LIG1        0.0819
      8 C          -7.1740   -1.3019    0.1090 C.1     1  LIG1       -0.0679
      9 C          -8.0723   -2.1014    0.1148 C.1     1  LIG1       -0.1139
     10 H          -8.8731   -2.8032    0.1204 H       1  LIG1        0.1232
     11 C          -4.1292   -2.0858   -0.0338 C.3     1  LIG1       -0.0365
     12 H          -3.5183   -2.3096    0.8454 H       1  LIG1        0.0279
     13 H          -3.5228   -2.2173   -0.9343 H       1  LIG1        0.0279
     14 H          -4.9510   -2.8010   -0.0666 H       1  LIG1        0.0279
     15 C          -2.5926    0.8057    0.0085 C.ar    1  LIG1        0.0795
     16 C          -1.9285    2.0287   -0.0257 C.ar    1  LIG1        0.0549
     17 C          -0.5266    1.7695   -0.0578 C.ar    1  LIG1       -0.0077
     18 C          -0.3879    0.3967   -0.0394 C.ar    1  LIG1        0.0687
     19 N          -1.6420   -0.1598    0.0001 N.ar    1  LIG1       -0.3506
     20 H          -1.8139   -1.1572    0.0163 H       1  LIG1        0.1660
     21 C          -2.5341    3.3257   -0.0322 C.1     1  LIG1       -0.0672
     22 C          -3.0319    4.4234   -0.0364 C.1     1  LIG1       -0.1138
     23 H          -3.4547    5.4010   -0.0432 H       1  LIG1        0.1232
     24 C           0.5532    2.8188   -0.1124 C.3     1  LIG1       -0.0365
     25 H           0.0907    3.8003   -0.2143 H       1  LIG1        0.0279
     26 H           1.2103    2.6578   -0.9710 H       1  LIG1        0.0279
     27 H           1.1525    2.8198    0.8022 H       1  LIG1        0.0279
     28 C           0.8045   -0.4397   -0.0479 C.ar    1  LIG1        0.0795
     29 C           0.9321   -1.8239   -0.1120 C.ar    1  LIG1        0.0549
     30 C           2.3229   -2.1421   -0.0858 C.ar    1  LIG1       -0.0077
     31 C           2.9910   -0.9379   -0.0007 C.ar    1  LIG1        0.0687
     32 N           2.0605    0.0686    0.0207 N.ar    1  LIG1       -0.3506
     33 H           2.3056    1.0496    0.0748 H       1  LIG1        0.1660
     34 C          -0.1325   -2.7767   -0.1951 C.1     1  LIG1       -0.0672
     35 C          -1.0092   -3.6015   -0.2618 C.1     1  LIG1       -0.1138
     36 H          -1.7744   -4.3412   -0.3225 H       1  LIG1        0.1232
     37 C           2.8951   -3.5354   -0.1569 C.3     1  LIG1       -0.0365
     38 H           3.3274   -3.8392    0.8010 H       1  LIG1        0.0279
     39 H           3.6548   -3.6061   -0.9391 H       1  LIG1        0.0279
     40 H           2.0964   -4.2365   -0.3966 H       1  LIG1        0.0279
     41 C           4.4156   -0.6371    0.0727 C.ar    1  LIG1        0.0790
     42 C           5.0872    0.5759    0.0091 C.ar    1  LIG1        0.0542
     43 C           6.4885    0.3122    0.1482 C.ar    1  LIG1       -0.0171
     44 C           6.6103   -1.0430    0.2908 C.ar    1  LIG1        0.0063
     45 N           5.3594   -1.6020    0.2439 N.ar    1  LIG1       -0.3583
     46 H           5.1531   -2.5804    0.3584 H       1  LIG1        0.1654
     47 H           7.4894   -1.6502    0.4224 H       1  LIG1        0.0810
     48 C           4.4986    1.8702   -0.1576 C.1     1  LIG1       -0.0672
     49 C           4.0305    2.9736   -0.2887 C.1     1  LIG1       -0.1138
     50 H           3.6381    3.9569   -0.4122 H       1  LIG1        0.1232
     51 C           7.5817    1.3474    0.1310 C.3     1  LIG1       -0.0371
     52 H           7.4204    2.0800    0.9228 H       1  LIG1        0.0278
     53 H           7.5895    1.8741   -0.8241 H       1  LIG1        0.0278
     54 H           8.5517    0.8743    0.2805 H       1  LIG1        0.0278
@<TRIPOS>BOND
     1    26    24    1
     2    39    37    1
     3    13    11    1
     4    53    51    1
     5    50    49    1
     6    40    37    1
     7    36    35    1
     8    49    48    3
     9    35    34    3
    10    25    24    1
    11    34    29    1
    12    48    42    1
    13    37    30    1
    14    37    38    1
    15    24    17    1
    16    24    27    1
    17    29    30   ar
    18    29    28   ar
    19    30    31   ar
    20    14    11    1
    21    17    18   ar
    22    17    16   ar
    23    28    18    1
    24    28    32   ar
    25    23    22    1
    26    18    19   ar
    27    22    21    3
    28    11     3    1
    29    11    12    1
    30    21    16    1
    31    16    15   ar
    32    31    32   ar
    33    31    41    1
    34    19    15   ar
    35    19    20    1
    36    15     4    1
    37    42    41   ar
    38    42    43   ar
    39    32    33    1
    40     3     4   ar
    41     3     2   ar
    42     4     5   ar
    43    41    45   ar
    44     2     8    1
    45     2     1   ar
    46     8     9    3
    47     9    10    1
    48     5     6    1
    49     5     1   ar
    50    51    43    1
    51    51    54    1
    52    51    52    1
    53    43    44   ar
    54     1     7    1
    55    45    44   ar
    56    45    46    1
    57    44    47    1
