@<TRIPOS>MOLECULE
mol_data/opt/m06hf/geoms/mol2/13ei13ei-4ei13ei.out
 56 59 0 0 0
SMALL
GASTEIGER

@<TRIPOS>ATOM
      1 C           1.4073   -0.4198   -0.0032 C.ar    1  LIG1        0.0179
      2 C           1.0526    0.7472   -0.6514 C.ar    1  LIG1        0.0455
      3 C          -0.3748    0.7979   -0.7057 C.ar    1  LIG1       -0.0084
      4 C          -0.8233   -0.3482   -0.0787 C.ar    1  LIG1        0.0682
      5 N           0.2686   -1.0658    0.3351 N.ar    1  LIG1       -0.3581
      6 H           0.2011   -1.9556    0.8107 H       1  LIG1        0.1654
      7 H           2.3815   -0.8133    0.2277 H       1  LIG1        0.0819
      8 C           1.9507    1.7299   -1.1831 C.1     1  LIG1       -0.0679
      9 C           2.6852    2.5668   -1.6374 C.1     1  LIG1       -0.1139
     10 H           3.3394    3.3051   -2.0380 H       1  LIG1        0.1232
     11 C          -1.1852    1.8958   -1.3473 C.3     1  LIG1       -0.0365
     12 H          -1.7346    2.4788   -0.6022 H       1  LIG1        0.0279
     13 H          -1.8932    1.4882   -2.0729 H       1  LIG1        0.0279
     14 H          -0.5102    2.5726   -1.8702 H       1  LIG1        0.0279
     15 C          -2.1749   -0.8325    0.1707 C.ar    1  LIG1        0.0794
     16 C          -2.6242   -2.0537    0.6642 C.ar    1  LIG1        0.0548
     17 C          -4.0493   -2.0049    0.7308 C.ar    1  LIG1       -0.0091
     18 C          -4.4169   -0.7558    0.2717 C.ar    1  LIG1        0.0523
     19 N          -3.2715   -0.0727   -0.0558 N.ar    1  LIG1       -0.3518
     20 H          -3.2577    0.8948   -0.3446 H       1  LIG1        0.1660
     21 C          -1.8048   -3.1610    1.0550 C.1     1  LIG1       -0.0672
     22 C          -1.1217   -4.0948    1.3943 C.1     1  LIG1       -0.1138
     23 H          -0.5386   -4.9357    1.6920 H       1  LIG1        0.1232
     24 C          -4.9246   -3.1132    1.2579 C.3     1  LIG1       -0.0365
     25 H          -4.3933   -3.6424    2.0493 H       1  LIG1        0.0279
     26 H          -5.1648   -3.8339    0.4726 H       1  LIG1        0.0279
     27 H          -5.8516   -2.7077    1.6631 H       1  LIG1        0.0279
     28 C          -6.0290    1.1945    0.3338 C.ar    1  LIG1        0.0344
     29 C          -7.3164    1.6908    0.1316 C.ar    1  LIG1       -0.0363
     30 C          -5.7563   -0.1659    0.0932 C.ar    1  LIG1        0.0142
     31 C          -8.3538    0.8605   -0.2909 C.ar    1  LIG1        0.0036
     32 H          -7.5141    2.7384    0.3151 H       1  LIG1        0.0637
     33 C          -6.8070   -0.9804   -0.3342 C.ar    1  LIG1       -0.0479
     34 C          -8.1040   -0.5041   -0.5127 C.ar    1  LIG1       -0.0406
     35 H          -6.5970   -2.0222   -0.5430 H       1  LIG1        0.0627
     36 C          -5.0114    2.1119    0.7970 C.1     1  LIG1       -0.0690
     37 C          -4.1861    2.8992    1.1802 C.1     1  LIG1       -0.1139
     38 H          -3.4630    3.5926    1.5447 H       1  LIG1        0.1232
     39 C          -9.2005   -1.4725   -0.9230 C.3     1  LIG1       -0.0391
     40 H          -8.9417   -2.4777   -0.5930 H       1  LIG1        0.0278
     41 H          -9.3175   -1.4995   -2.0100 H       1  LIG1        0.0278
     42 H         -10.1520   -1.1848   -0.4760 H       1  LIG1        0.0278
     43 C          -9.6921    1.4626   -0.4721 C.ar    1  LIG1        0.0626
     44 C         -10.3967    2.3256    0.3513 C.ar    1  LIG1        0.0528
     45 C         -11.6323    2.6457   -0.2988 C.ar    1  LIG1       -0.0172
     46 C         -11.6253    1.9696   -1.4905 C.ar    1  LIG1        0.0063
     47 N         -10.4587    1.2582   -1.5798 N.ar    1  LIG1       -0.3594
     48 H         -10.1599    0.7263   -2.3811 H       1  LIG1        0.1654
     49 H         -12.3597    1.9428   -2.2774 H       1  LIG1        0.0810
     50 C          -9.9791    2.8042    1.6361 C.1     1  LIG1       -0.0673
     51 C          -9.6448    3.2226    2.7134 C.1     1  LIG1       -0.1138
     52 H          -9.3452    3.5868    3.6684 H       1  LIG1        0.1232
     53 C         -12.7066    3.5459    0.2525 C.3     1  LIG1       -0.0371
     54 H         -13.5226    3.6442   -0.4631 H       1  LIG1        0.0278
     55 H         -12.2977    4.5351    0.4616 H       1  LIG1        0.0278
     56 H         -13.1009    3.1385    1.1845 H       1  LIG1        0.0278
@<TRIPOS>BOND
     1    48    47    1
     2    49    46    1
     3    13    11    1
     4    10     9    1
     5    41    39    1
     6    14    11    1
     7     9     8    3
     8    47    46   ar
     9    47    43   ar
    10    46    45   ar
    11    11     3    1
    12    11    12    1
    13     8     2    1
    14    39    40    1
    15    39    34    1
    16    39    42    1
    17     3     2   ar
    18     3     4   ar
    19     2     1   ar
    20    35    33    1
    21    34    33   ar
    22    34    31   ar
    23    43    31    1
    24    43    44   ar
    25    54    53    1
    26    20    19    1
    27    33    30   ar
    28    45    53    1
    29    45    44   ar
    30    31    29   ar
    31     4    15    1
    32     4     5   ar
    33    19    15   ar
    34    19    18   ar
    35     1     7    1
    36     1     5   ar
    37    30    18    1
    38    30    28   ar
    39    29    32    1
    40    29    28   ar
    41    15    16   ar
    42    53    55    1
    43    53    56    1
    44    18    17   ar
    45    28    36    1
    46     5     6    1
    47    44    50    1
    48    26    24    1
    49    16    17   ar
    50    16    21    1
    51    17    24    1
    52    36    37    3
    53    21    22    3
    54    37    38    1
    55    24    27    1
    56    24    25    1
    57    22    23    1
    58    50    51    3
    59    51    52    1
