@<TRIPOS>MOLECULE
mol_data/opt/m06hf/geoms/mol2/13ei13ei13ei-13ei-.out
 54 57 0 0 0
SMALL
GASTEIGER

@<TRIPOS>ATOM
      1 C           1.1470   -0.0828   -1.0230 C.ar    1  LIG1        0.0179
      2 C           0.8859    1.0319   -0.2538 C.ar    1  LIG1        0.0455
      3 C          -0.4943    0.9888    0.1280 C.ar    1  LIG1       -0.0084
      4 C          -1.0112   -0.1547   -0.4347 C.ar    1  LIG1        0.0682
      5 N          -0.0028   -0.7941   -1.1212 N.ar    1  LIG1       -0.3581
      6 H          -0.1385   -1.6157   -1.6891 H       1  LIG1        0.1654
      7 H           2.0608   -0.3994   -1.4940 H       1  LIG1        0.0819
      8 C           1.8303    2.0424    0.1249 C.1     1  LIG1       -0.0679
      9 C           2.6056    2.8978    0.4614 C.1     1  LIG1       -0.1139
     10 H           3.2939    3.6536    0.7603 H       1  LIG1        0.1232
     11 C          -1.2040    1.9888    1.0003 C.3     1  LIG1       -0.0365
     12 H          -2.1254    1.5578    1.3912 H       1  LIG1        0.0279
     13 H          -1.4587    2.8808    0.4264 H       1  LIG1        0.0279
     14 H          -0.5543    2.2779    1.8267 H       1  LIG1        0.0279
     15 C          -2.3560   -0.7248   -0.3763 C.ar    1  LIG1        0.0795
     16 C          -3.5986   -0.1452   -0.5857 C.ar    1  LIG1        0.0549
     17 C          -4.5889   -1.1610   -0.4228 C.ar    1  LIG1       -0.0077
     18 C          -3.9048   -2.3258   -0.1292 C.ar    1  LIG1        0.0687
     19 N          -2.5660   -2.0392   -0.1070 N.ar    1  LIG1       -0.3506
     20 H          -1.8541   -2.7035    0.1721 H       1  LIG1        0.1660
     21 C          -3.8413    1.2188   -0.9485 C.1     1  LIG1       -0.0672
     22 C          -4.0664    2.3602   -1.2550 C.1     1  LIG1       -0.1138
     23 H          -4.2543    3.3716   -1.5317 H       1  LIG1        0.1232
     24 C          -6.0749   -0.9532   -0.5728 C.3     1  LIG1       -0.0365
     25 H          -6.6053   -1.2078    0.3488 H       1  LIG1        0.0279
     26 H          -6.4774   -1.5439   -1.4006 H       1  LIG1        0.0279
     27 H          -6.2631    0.0978   -0.7901 H       1  LIG1        0.0279
     28 C          -4.3766   -3.6785    0.1349 C.ar    1  LIG1        0.0795
     29 C          -3.6699   -4.8397    0.4250 C.ar    1  LIG1        0.0549
     30 C          -4.6101   -5.9050    0.5920 C.ar    1  LIG1       -0.0077
     31 C          -5.8526   -5.3527    0.3920 C.ar    1  LIG1        0.0687
     32 N          -5.6941   -4.0106    0.1250 N.ar    1  LIG1       -0.3506
     33 H          -6.4386   -3.3971   -0.1669 H       1  LIG1        0.1660
     34 C          -2.2488   -4.9529    0.5613 C.1     1  LIG1       -0.0672
     35 C          -1.0540   -5.0553    0.6846 C.1     1  LIG1       -0.1138
     36 H          -0.0022   -5.1735    0.8074 H       1  LIG1        0.1232
     37 C          -4.2830   -7.3315    0.9407 C.3     1  LIG1       -0.0365
     38 H          -3.5030   -7.3558    1.7022 H       1  LIG1        0.0279
     39 H          -3.9307   -7.8656    0.0571 H       1  LIG1        0.0279
     40 H          -5.1742   -7.8364    1.3121 H       1  LIG1        0.0279
     41 C          -7.1821   -5.9572    0.4537 C.ar    1  LIG1        0.0790
     42 C          -7.6795   -7.1088   -0.1296 C.ar    1  LIG1        0.0542
     43 C          -9.0518   -7.2407    0.2625 C.ar    1  LIG1       -0.0171
     44 C          -9.3308   -6.1617    1.0590 C.ar    1  LIG1        0.0063
     45 N          -8.2017   -5.3932    1.1646 N.ar    1  LIG1       -0.3583
     46 H          -8.0905   -4.5935    1.7680 H       1  LIG1        0.1654
     47 H         -10.2448   -5.8851    1.5564 H       1  LIG1        0.0810
     48 C          -6.9626   -7.9887   -1.0033 C.1     1  LIG1       -0.0672
     49 C          -6.3794   -8.7415   -1.7381 C.1     1  LIG1       -0.1138
     50 H          -5.8617   -9.4036   -2.3924 H       1  LIG1        0.1232
     51 C          -9.9802   -8.3509   -0.1546 C.3     1  LIG1       -0.0371
     52 H          -9.5867   -9.3142    0.1718 H       1  LIG1        0.0278
     53 H         -10.0771   -8.3745   -1.2409 H       1  LIG1        0.0278
     54 H         -10.9666   -8.2046    0.2847 H       1  LIG1        0.0278
@<TRIPOS>BOND
     1    50    49    1
     2    49    48    3
     3     6     5    1
     4    23    22    1
     5     7     1    1
     6    26    24    1
     7    22    21    3
     8    53    51    1
     9     5     1   ar
    10     5     4   ar
    11     1     2   ar
    12    48    42    1
    13    21    16    1
    14    27    24    1
    15    16    17   ar
    16    16    15   ar
    17    24    17    1
    18    24    25    1
    19     4    15    1
    20     4     3   ar
    21    17    18   ar
    22    15    19   ar
    23     2     8    1
    24     2     3   ar
    25    33    32    1
    26    51    52    1
    27    51    43    1
    28    51    54    1
    29    42    43   ar
    30    42    41   ar
    31    18    19   ar
    32    18    28    1
    33    19    20    1
    34    39    37    1
    35     8     9    3
    36    32    28   ar
    37    32    31   ar
    38     3    11    1
    39    28    29   ar
    40    43    44   ar
    41    31    41    1
    42    31    30   ar
    43    29    34    1
    44    29    30   ar
    45    13    11    1
    46    41    45   ar
    47     9    10    1
    48    34    35    3
    49    30    37    1
    50    35    36    1
    51    37    40    1
    52    37    38    1
    53    11    12    1
    54    11    14    1
    55    44    45   ar
    56    44    47    1
    57    45    46    1
