@<TRIPOS>MOLECULE
mol_data/opt/m06hf/geoms/mol2/13ei13ei13ei-13ei.out
 54 57 0 0 0
SMALL
GASTEIGER

@<TRIPOS>ATOM
      1 C           1.1744   -0.0303   -0.7884 C.ar    1  LIG1        0.0179
      2 C           0.8960    1.0227    0.0575 C.ar    1  LIG1        0.0455
      3 C          -0.4945    0.9582    0.3972 C.ar    1  LIG1       -0.0084
      4 C          -0.9999   -0.1345   -0.2667 C.ar    1  LIG1        0.0682
      5 N           0.0249   -0.7256   -0.9726 N.ar    1  LIG1       -0.3581
      6 H          -0.1010   -1.4952   -1.6113 H       1  LIG1        0.1654
      7 H           2.0999   -0.3141   -1.2583 H       1  LIG1        0.0819
      8 C           1.8330    1.9984    0.5324 C.1     1  LIG1       -0.0679
      9 C           2.6032    2.8255    0.9431 C.1     1  LIG1       -0.1139
     10 H           3.2860    3.5583    1.3046 H       1  LIG1        0.1232
     11 C          -1.2236    1.8915    1.3259 C.3     1  LIG1       -0.0365
     12 H          -2.1527    1.4337    1.6643 H       1  LIG1        0.0279
     13 H          -1.4665    2.8239    0.8148 H       1  LIG1        0.0279
     14 H          -0.5915    2.1174    2.1852 H       1  LIG1        0.0279
     15 C          -2.3472   -0.6997   -0.2937 C.ar    1  LIG1        0.0795
     16 C          -3.5828   -0.0998   -0.4907 C.ar    1  LIG1        0.0549
     17 C          -4.5768   -1.1243   -0.4596 C.ar    1  LIG1       -0.0077
     18 C          -3.9032   -2.3115   -0.2482 C.ar    1  LIG1        0.0687
     19 N          -2.5659   -2.0325   -0.1516 N.ar    1  LIG1       -0.3506
     20 H          -1.8599   -2.7225    0.0716 H       1  LIG1        0.1660
     21 C          -3.8156    1.2903   -0.7424 C.1     1  LIG1       -0.0672
     22 C          -4.0361    2.4530   -0.9579 C.1     1  LIG1       -0.1138
     23 H          -4.2234    3.4830   -1.1525 H       1  LIG1        0.1232
     24 C          -6.0561   -0.9164   -0.6590 C.3     1  LIG1       -0.0365
     25 H          -6.6027   -1.0324    0.2812 H       1  LIG1        0.0279
     26 H          -6.4529   -1.6231   -1.3920 H       1  LIG1        0.0279
     27 H          -6.2252    0.0956   -1.0262 H       1  LIG1        0.0279
     28 C          -4.3827   -3.6818   -0.1326 C.ar    1  LIG1        0.0795
     29 C          -3.6719   -4.8779   -0.1243 C.ar    1  LIG1        0.0549
     30 C          -4.6079   -5.9466    0.0132 C.ar    1  LIG1       -0.0077
     31 C          -5.8543   -5.3582    0.0875 C.ar    1  LIG1        0.0687
     32 N          -5.6936   -3.9994   -0.0015 N.ar    1  LIG1       -0.3506
     33 H          -6.4638   -3.3425    0.0379 H       1  LIG1        0.1660
     34 C          -2.2514   -5.0189   -0.2392 C.1     1  LIG1       -0.0672
     35 C          -1.0558   -5.1492   -0.3253 C.1     1  LIG1       -0.1138
     36 H          -0.0021   -5.2894   -0.4006 H       1  LIG1        0.1232
     37 C          -4.2529   -7.4118    0.0433 C.3     1  LIG1       -0.0365
     38 H          -3.2037   -7.5293   -0.2257 H       1  LIG1        0.0279
     39 H          -4.8534   -7.9741   -0.6757 H       1  LIG1        0.0279
     40 H          -4.3882   -7.8360    1.0425 H       1  LIG1        0.0279
     41 C          -7.1812   -5.9421    0.2411 C.ar    1  LIG1        0.0790
     42 C          -8.4387   -5.3630    0.1446 C.ar    1  LIG1        0.0542
     43 C          -9.4136   -6.3818    0.3969 C.ar    1  LIG1       -0.0171
     44 C          -8.7118   -7.5322    0.6355 C.ar    1  LIG1        0.0063
     45 N          -7.3725   -7.2554    0.5394 N.ar    1  LIG1       -0.3583
     46 H          -6.6273   -7.9113    0.7070 H       1  LIG1        0.1654
     47 H          -9.0628   -8.5229    0.8669 H       1  LIG1        0.0810
     48 C          -8.7251   -3.9918   -0.1496 C.1     1  LIG1       -0.0672
     49 C          -8.9906   -2.8403   -0.3873 C.1     1  LIG1       -0.1138
     50 H          -9.2454   -1.8291   -0.6073 H       1  LIG1        0.1232
     51 C         -10.9069   -6.1877    0.3876 C.3     1  LIG1       -0.0371
     52 H         -11.4104   -7.1226    0.6313 H       1  LIG1        0.0278
     53 H         -11.2392   -5.8536   -0.5961 H       1  LIG1        0.0278
     54 H         -11.1937   -5.4307    1.1189 H       1  LIG1        0.0278
@<TRIPOS>BOND
     1     6     5    1
     2    26    24    1
     3     7     1    1
     4    23    22    1
     5    27    24    1
     6     5     1   ar
     7     5     4   ar
     8    22    21    3
     9     1     2   ar
    10    21    16    1
    11    39    37    1
    12    24    17    1
    13    24    25    1
    14    50    49    1
    15    53    51    1
    16    16    17   ar
    17    16    15   ar
    18    17    18   ar
    19    36    35    1
    20    49    48    3
    21    35    34    3
    22    15     4    1
    23    15    19   ar
    24     4     3   ar
    25    18    19   ar
    26    18    28    1
    27    34    29    1
    28    38    37    1
    29    19    20    1
    30    48    42    1
    31    28    29   ar
    32    28    32   ar
    33    29    30   ar
    34    32    33    1
    35    32    31   ar
    36    30    37    1
    37    30    31   ar
    38    37    40    1
    39     2     3   ar
    40     2     8    1
    41    31    41    1
    42    42    41   ar
    43    42    43   ar
    44    41    45   ar
    45    51    43    1
    46    51    52    1
    47    51    54    1
    48    43    44   ar
    49     3    11    1
    50     8     9    3
    51    45    44   ar
    52    45    46    1
    53    44    47    1
    54    13    11    1
    55     9    10    1
    56    11    12    1
    57    11    14    1
