@<TRIPOS>MOLECULE
mol_data/opt/m06hf/geoms/mol2/13ei13ei-13ei.out
 41 43 0 0 0
SMALL
GASTEIGER

@<TRIPOS>ATOM
      1 C           4.4670    0.3791   -0.2615 C.ar    1  LIG1        0.0179
      2 C           4.1271   -0.9521   -0.1174 C.ar    1  LIG1        0.0455
      3 C           2.7049   -1.0265    0.0030 C.ar    1  LIG1       -0.0084
      4 C           2.2438    0.2724   -0.0783 C.ar    1  LIG1        0.0682
      5 N           3.3243    1.1013   -0.2375 N.ar    1  LIG1       -0.3581
      6 H           3.2482    2.1078   -0.3034 H       1  LIG1        0.1654
      7 H           5.4337    0.8370   -0.3753 H       1  LIG1        0.0819
      8 C           5.0355   -2.0604   -0.0842 C.1     1  LIG1       -0.0679
      9 C           5.7843   -3.0011   -0.0536 C.1     1  LIG1       -0.1139
     10 H           6.4539   -3.8289   -0.0279 H       1  LIG1        0.1232
     11 C           1.9074   -2.2907    0.1964 C.3     1  LIG1       -0.0365
     12 H           1.3475   -2.5507   -0.7065 H       1  LIG1        0.0279
     13 H           1.2106   -2.1883    1.0320 H       1  LIG1        0.0279
     14 H           2.5924   -3.1097    0.4150 H       1  LIG1        0.0279
     15 C           0.8917    0.8150   -0.0235 C.ar    1  LIG1        0.0795
     16 C           0.4561    2.1318    0.0890 C.ar    1  LIG1        0.0549
     17 C          -0.9710    2.1268    0.0936 C.ar    1  LIG1       -0.0077
     18 C          -1.3506    0.8057   -0.0242 C.ar    1  LIG1        0.0687
     19 N          -0.2167    0.0373   -0.0913 N.ar    1  LIG1       -0.3506
     20 H          -0.2300   -0.9717   -0.1778 H       1  LIG1        0.1660
     21 C           1.2856    3.2941    0.1929 C.1     1  LIG1       -0.0672
     22 C           1.9728    4.2811    0.2763 C.1     1  LIG1       -0.1138
     23 H           2.5620    5.1643    0.3652 H       1  LIG1        0.1232
     24 C          -1.8449    3.3477    0.2315 C.3     1  LIG1       -0.0365
     25 H          -1.2403    4.1819    0.5858 H       1  LIG1        0.0279
     26 H          -2.6435    3.1725    0.9558 H       1  LIG1        0.0279
     27 H          -2.2816    3.6391   -0.7283 H       1  LIG1        0.0279
     28 C          -2.6716    0.1926   -0.0883 C.ar    1  LIG1        0.0790
     29 C          -3.0586   -1.1341    0.0353 C.ar    1  LIG1        0.0542
     30 C          -4.4817   -1.1945   -0.1217 C.ar    1  LIG1       -0.0171
     31 C          -4.8980    0.0918   -0.3349 C.ar    1  LIG1        0.0063
     32 N          -3.8017    0.9151   -0.3134 N.ar    1  LIG1       -0.3583
     33 H          -3.8122    1.9056   -0.4945 H       1  LIG1        0.1654
     34 H          -5.8869    0.4832   -0.5010 H       1  LIG1        0.0810
     35 C          -2.1952   -2.2518    0.2675 C.1     1  LIG1       -0.0672
     36 C          -1.4847   -3.2081    0.4494 C.1     1  LIG1       -0.1138
     37 H          -0.8738   -4.0642    0.6209 H       1  LIG1        0.1232
     38 C          -5.3205   -2.4435   -0.0542 C.3     1  LIG1       -0.0371
     39 H          -6.3706   -2.2008   -0.2131 H       1  LIG1        0.0278
     40 H          -5.2114   -2.9207    0.9205 H       1  LIG1        0.0278
     41 H          -5.0026   -3.1541   -0.8185 H       1  LIG1        0.0278
@<TRIPOS>BOND
     1    41    38    1
     2    27    24    1
     3    12    11    1
     4    34    31    1
     5    33    32    1
     6     7     1    1
     7    31    32   ar
     8    31    30   ar
     9    32    28   ar
    10     6     5    1
    11     1     5   ar
    12     1     2   ar
    13     5     4   ar
    14    39    38    1
    15    20    19    1
    16    30    38    1
    17    30    29   ar
    18     2     8    1
    19     2     3   ar
    20    19    18   ar
    21    19    15   ar
    22    28    18    1
    23    28    29   ar
    24     8     9    3
    25     4    15    1
    26     4     3   ar
    27    38    40    1
    28     9    10    1
    29    18    17   ar
    30    15    16   ar
    31     3    11    1
    32    29    35    1
    33    16    17   ar
    34    16    21    1
    35    17    24    1
    36    21    22    3
    37    11    14    1
    38    11    13    1
    39    24    25    1
    40    24    26    1
    41    35    36    3
    42    22    23    1
    43    36    37    1
