@<TRIPOS>MOLECULE
mol_data/opt/m06hf/geoms/mol2/13ei4dd6ie13ie.out
 54 57 0 0 0
SMALL
GASTEIGER

@<TRIPOS>ATOM
      1 C           0.9217    0.7198   -1.4605 C.ar    1  LIG1        0.0179
      2 C           0.9469    1.1891   -0.1642 C.ar    1  LIG1        0.0454
      3 C          -0.2902    0.8268    0.4582 C.ar    1  LIG1       -0.0098
      4 C          -1.0148    0.1495   -0.4983 C.ar    1  LIG1        0.0519
      5 N          -0.2591    0.0827   -1.6471 N.ar    1  LIG1       -0.3593
      6 H          -0.5840   -0.2937   -2.5237 H       1  LIG1        0.1654
      7 H           1.6564    0.8062   -2.2417 H       1  LIG1        0.0819
      8 C           2.0239    1.8954    0.4656 C.1     1  LIG1       -0.0679
      9 C           2.9142    2.4859    1.0167 C.1     1  LIG1       -0.1139
     10 H           3.7022    3.0141    1.5012 H       1  LIG1        0.1232
     11 C          -0.6461    1.0982    1.8961 C.3     1  LIG1       -0.0365
     12 H          -1.4738    0.4647    2.2166 H       1  LIG1        0.0279
     13 H          -0.9356    2.1421    2.0247 H       1  LIG1        0.0279
     14 H           0.2219    0.8947    2.5235 H       1  LIG1        0.0279
     15 C          -3.4689    0.1442    0.0642 C.ar    1  LIG1        0.0615
     16 C          -4.7045   -0.5009    0.1473 C.ar    1  LIG1       -0.0347
     17 C          -2.3294   -0.5110   -0.4271 C.ar    1  LIG1        0.0172
     18 C          -4.8491   -1.8161   -0.2832 C.ar    1  LIG1        0.0025
     19 H          -5.5592    0.0310    0.5446 H       1  LIG1        0.0637
     20 C          -2.4775   -1.8288   -0.8651 C.ar    1  LIG1       -0.0334
     21 C          -3.7172   -2.4602   -0.8054 C.ar    1  LIG1        0.0602
     22 H          -1.6188   -2.3729   -1.2363 H       1  LIG1        0.0637
     23 N          -3.3851    2.6392    0.7765 N.1     1  LIG1       -0.1908
     24 C          -3.3973    1.5362    0.4616 C.1     1  LIG1        0.0998
     25 N          -3.8949   -4.8972   -1.6867 N.1     1  LIG1       -0.1908
     26 C          -3.8276   -3.8201   -1.2974 C.1     1  LIG1        0.0998
     27 C          -6.4348   -3.5908    0.6088 C.ar    1  LIG1        0.0468
     28 C          -6.1822   -2.4839   -0.2219 C.ar    1  LIG1        0.0056
     29 C          -7.2161   -2.0107   -1.0187 C.ar    1  LIG1       -0.0347
     30 C          -8.4732   -2.6153   -0.9756 C.ar    1  LIG1        0.0526
     31 C          -8.6584   -3.6662   -0.0604 C.ar    1  LIG1        0.1030
     32 N          -7.6431   -4.1378    0.6720 N.ar    1  LIG1       -0.2486
     33 H          -7.0456   -1.1931   -1.7081 H       1  LIG1        0.0637
     34 C          -5.3741   -4.2179    1.4890 C.3     1  LIG1       -0.0217
     35 H          -4.6133   -3.4909    1.7718 H       1  LIG1        0.0293
     36 H          -4.8975   -5.0407    0.9526 H       1  LIG1        0.0293
     37 H          -5.8612   -4.6108    2.3790 H       1  LIG1        0.0293
     38 C          -9.4747   -2.2093   -1.9269 C.1     1  LIG1       -0.0675
     39 C         -10.2513   -1.8516   -2.7718 C.1     1  LIG1       -0.1138
     40 H         -10.9489   -1.5477   -3.5185 H       1  LIG1        0.1232
     41 C          -9.9364   -4.3657    0.1431 C.ar    1  LIG1        0.0703
     42 C         -11.2608   -3.9695    0.1703 C.ar    1  LIG1       -0.0083
     43 C         -12.0121   -5.1389    0.5056 C.ar    1  LIG1        0.0455
     44 C         -11.1207   -6.1805    0.6847 C.ar    1  LIG1        0.0179
     45 N          -9.8808   -5.6964    0.4738 N.ar    1  LIG1       -0.3581
     46 H          -9.0048   -6.1850    0.5868 H       1  LIG1        0.1654
     47 H         -11.3024   -7.2080    0.9477 H       1  LIG1        0.0819
     48 C         -11.8654   -2.5983    0.0155 C.3     1  LIG1       -0.0365
     49 H         -12.6611   -2.4851    0.7525 H       1  LIG1        0.0279
     50 H         -12.2922   -2.4741   -0.9806 H       1  LIG1        0.0279
     51 H         -11.1180   -1.8217    0.1691 H       1  LIG1        0.0279
     52 C         -13.4358   -5.2042    0.6601 C.1     1  LIG1       -0.0679
     53 C         -14.6313   -5.2388    0.7881 C.1     1  LIG1       -0.1139
     54 H         -15.6898   -5.2736    0.9004 H       1  LIG1        0.1232
@<TRIPOS>BOND
     1    40    39    1
     2    39    38    3
     3     6     5    1
     4     7     1    1
     5    38    30    1
     6    33    29    1
     7    25    26    3
     8     5     1   ar
     9     5     4   ar
    10     1     2   ar
    11    26    21    1
    12    22    20    1
    13    29    30   ar
    14    29    28   ar
    15    50    48    1
    16    30    31   ar
    17    20    21   ar
    18    20    17   ar
    19    21    18   ar
    20     4    17    1
    21     4     3   ar
    22    17    15   ar
    23    18    28    1
    24    18    16   ar
    25    28    27   ar
    26     2     3   ar
    27     2     8    1
    28    31    41    1
    29    31    32   ar
    30    48    51    1
    31    48    42    1
    32    48    49    1
    33    15    16   ar
    34    15    24    1
    35    41    42   ar
    36    41    45   ar
    37    16    19    1
    38    42    43   ar
    39     3    11    1
    40    24    23    3
    41     8     9    3
    42    45    46    1
    43    45    44   ar
    44    43    52    1
    45    43    44   ar
    46    27    32   ar
    47    27    34    1
    48    52    53    3
    49    44    47    1
    50    53    54    1
    51    36    34    1
    52     9    10    1
    53    34    35    1
    54    34    37    1
    55    11    13    1
    56    11    12    1
    57    11    14    1
