@<TRIPOS>MOLECULE
mol_data/opt/m06hf/geoms/mol2/13ei13ei13ei.out
 41 43 0 0 0
SMALL
GASTEIGER

@<TRIPOS>ATOM
      1 C           0.8120    0.0416   -1.6253 C.ar    1  LIG1        0.0179
      2 C           0.7967    0.9974   -0.6314 C.ar    1  LIG1        0.0455
      3 C          -0.4514    0.8876    0.0636 C.ar    1  LIG1       -0.0084
      4 C          -1.1402   -0.1351   -0.5445 C.ar    1  LIG1        0.0682
      5 N          -0.3582   -0.6409   -1.5598 N.ar    1  LIG1       -0.3581
      6 H          -0.6691   -1.3324   -2.2238 H       1  LIG1        0.1654
      7 H           1.5675   -0.1825   -2.3577 H       1  LIG1        0.0819
      8 C           1.8507    1.9214   -0.3301 C.1     1  LIG1       -0.0679
      9 C           2.7271    2.6988   -0.0594 C.1     1  LIG1       -0.1139
     10 H           3.5056    3.3850    0.1785 H       1  LIG1        0.1232
     11 C          -0.8949    1.7234    1.2337 C.3     1  LIG1       -0.0365
     12 H          -1.7260    1.2390    1.7455 H       1  LIG1        0.0279
     13 H          -1.2289    2.7036    0.8914 H       1  LIG1        0.0279
     14 H          -0.0634    1.8587    1.9260 H       1  LIG1        0.0279
     15 C          -2.4579   -0.6964   -0.2454 C.ar    1  LIG1        0.0795
     16 C          -3.6899   -0.0801   -0.1023 C.ar    1  LIG1        0.0549
     17 C          -4.6601   -1.0901    0.1897 C.ar    1  LIG1       -0.0077
     18 C          -3.9801   -2.2866    0.2028 C.ar    1  LIG1        0.0687
     19 N          -2.6542   -2.0314   -0.0594 N.ar    1  LIG1       -0.3506
     20 H          -1.9288   -2.7302   -0.1091 H       1  LIG1        0.1660
     21 C          -3.9443    1.3235   -0.2386 C.1     1  LIG1       -0.0672
     22 C          -4.1791    2.4985   -0.3464 C.1     1  LIG1       -0.1138
     23 H          -4.3878    3.5380   -0.4508 H       1  LIG1        0.1232
     24 C          -6.1281   -0.8666    0.4330 C.3     1  LIG1       -0.0365
     25 H          -6.5590   -1.7301    0.9390 H       1  LIG1        0.0279
     26 H          -6.6507   -0.7275   -0.5141 H       1  LIG1        0.0279
     27 H          -6.2660    0.0258    1.0440 H       1  LIG1        0.0279
     28 C          -4.4560   -3.6450    0.4637 C.ar    1  LIG1        0.0790
     29 C          -5.5095   -4.3526   -0.0862 C.ar    1  LIG1        0.0542
     30 C          -5.5378   -5.6462    0.5306 C.ar    1  LIG1       -0.0171
     31 C          -4.4982   -5.6711    1.4227 C.ar    1  LIG1        0.0063
     32 N          -3.8508   -4.4646    1.3717 N.ar    1  LIG1       -0.3583
     33 H          -3.1131   -4.1678    1.9910 H       1  LIG1        0.1654
     34 H          -4.1744   -6.4537    2.0876 H       1  LIG1        0.0810
     35 C          -6.3911   -3.8872   -1.1152 C.1     1  LIG1       -0.0672
     36 C          -7.1444   -3.5178   -1.9772 C.1     1  LIG1       -0.1138
     37 H          -7.8086   -3.1892   -2.7424 H       1  LIG1        0.1232
     38 C          -6.5222   -6.7442    0.2245 C.3     1  LIG1       -0.0371
     39 H          -6.3117   -7.6218    0.8351 H       1  LIG1        0.0278
     40 H          -6.4628   -7.0232   -0.8284 H       1  LIG1        0.0278
     41 H          -7.5388   -6.4061    0.4286 H       1  LIG1        0.0278
@<TRIPOS>BOND
     1    37    36    1
     2     7     1    1
     3     6     5    1
     4    36    35    3
     5     1     5   ar
     6     1     2   ar
     7     5     4   ar
     8    35    29    1
     9    40    38    1
    10     2     8    1
    11     2     3   ar
    12     4    15    1
    13     4     3   ar
    14    26    24    1
    15    23    22    1
    16    22    21    3
    17     8     9    3
    18    15    16   ar
    19    15    19   ar
    20    21    16    1
    21    20    19    1
    22    16    17   ar
    23    29    28   ar
    24    29    30   ar
    25     9    10    1
    26    19    18   ar
    27     3    11    1
    28    17    18   ar
    29    17    24    1
    30    18    28    1
    31    38    41    1
    32    38    30    1
    33    38    39    1
    34    24    25    1
    35    24    27    1
    36    28    32   ar
    37    30    31   ar
    38    13    11    1
    39    11    12    1
    40    11    14    1
    41    32    31   ar
    42    32    33    1
    43    31    34    1
