@<TRIPOS>MOLECULE
mol_data/opt/m06hf/geoms/mol2/13ei13ei13ei13ei-.out
 54 57 0 0 0
SMALL
GASTEIGER

@<TRIPOS>ATOM
      1 C           0.3843    0.4670   -2.2077 C.ar    1  LIG1        0.0179
      2 C           0.6268    1.1077   -1.0112 C.ar    1  LIG1        0.0455
      3 C          -0.4493    0.7934   -0.1188 C.ar    1  LIG1       -0.0084
      4 C          -1.3015   -0.0262   -0.8198 C.ar    1  LIG1        0.0682
      5 N          -0.7780   -0.2204   -2.0795 N.ar    1  LIG1       -0.3581
      6 H          -1.2618   -0.6933   -2.8263 H       1  LIG1        0.1654
      7 H           0.9546    0.4657   -3.1197 H       1  LIG1        0.0819
      8 C           1.7616    1.9286   -0.7029 C.1     1  LIG1       -0.0679
      9 C           2.7067    2.6182   -0.4236 C.1     1  LIG1       -0.1139
     10 H           3.5422    3.2322   -0.1791 H       1  LIG1        0.1232
     11 C          -0.5862    1.2601    1.3053 C.3     1  LIG1       -0.0365
     12 H          -1.3299    0.6579    1.8262 H       1  LIG1        0.0279
     13 H          -0.9082    2.3021    1.3314 H       1  LIG1        0.0279
     14 H           0.3755    1.1791    1.8127 H       1  LIG1        0.0279
     15 C          -2.5551   -0.6603   -0.4111 C.ar    1  LIG1        0.0795
     16 C          -3.6905   -0.1229    0.1727 C.ar    1  LIG1        0.0549
     17 C          -4.6339   -1.1810    0.3661 C.ar    1  LIG1       -0.0077
     18 C          -4.0380   -2.3216   -0.1223 C.ar    1  LIG1        0.0687
     19 N          -2.7850   -1.9915   -0.5833 N.ar    1  LIG1       -0.3506
     20 H          -2.1237   -2.6436   -0.9774 H       1  LIG1        0.1660
     21 C          -3.8855    1.2549    0.5122 C.1     1  LIG1       -0.0672
     22 C          -4.0673    2.4060    0.8088 C.1     1  LIG1       -0.1138
     23 H          -4.2257    3.4277    1.0637 H       1  LIG1        0.1232
     24 C          -5.9927   -1.0497    0.9990 C.3     1  LIG1       -0.0365
     25 H          -6.3500   -2.0265    1.3243 H       1  LIG1        0.0279
     26 H          -6.7088   -0.6427    0.2838 H       1  LIG1        0.0279
     27 H          -5.9320   -0.3773    1.8552 H       1  LIG1        0.0279
     28 C          -4.5084   -3.7039   -0.1693 C.ar    1  LIG1        0.0795
     29 C          -5.7155   -4.2454   -0.5864 C.ar    1  LIG1        0.0549
     30 C          -5.6260   -5.6653   -0.4592 C.ar    1  LIG1       -0.0077
     31 C          -4.3603   -5.9307    0.0265 C.ar    1  LIG1        0.0687
     32 N          -3.7089   -4.7396    0.1956 N.ar    1  LIG1       -0.3506
     33 H          -2.7825   -4.6599    0.5961 H       1  LIG1        0.1660
     34 C          -6.8260   -3.5156   -1.1201 C.1     1  LIG1       -0.0672
     35 C          -7.7662   -2.9223   -1.5795 C.1     1  LIG1       -0.1138
     36 H          -8.5915   -2.3890   -1.9902 H       1  LIG1        0.1232
     37 C          -6.7086   -6.6451   -0.8352 C.3     1  LIG1       -0.0365
     38 H          -7.1933   -7.0649    0.0510 H       1  LIG1        0.0279
     39 H          -6.3052   -7.4556   -1.4465 H       1  LIG1        0.0279
     40 H          -7.4709   -6.1249   -1.4140 H       1  LIG1        0.0279
     41 C          -3.6869   -7.1840    0.3415 C.ar    1  LIG1        0.0790
     42 C          -2.3428   -7.4404    0.5740 C.ar    1  LIG1        0.0542
     43 C          -2.2037   -8.8400    0.8476 C.ar    1  LIG1       -0.0171
     44 C          -3.4628   -9.3715    0.7703 C.ar    1  LIG1        0.0063
     45 N          -4.3448   -8.3666    0.4653 N.ar    1  LIG1       -0.3583
     46 H          -5.3437   -8.4673    0.3862 H       1  LIG1        0.1654
     47 H          -3.7969  -10.3854    0.9100 H       1  LIG1        0.0810
     48 C          -1.2840   -6.4762    0.5537 C.1     1  LIG1       -0.0672
     49 C          -0.3916   -5.6658    0.5524 C.1     1  LIG1       -0.1138
     50 H           0.4157   -4.9699    0.5555 H       1  LIG1        0.1232
     51 C          -0.9112   -9.5515    1.1498 C.3     1  LIG1       -0.0371
     52 H          -0.4373   -9.1166    2.0307 H       1  LIG1        0.0278
     53 H          -0.2219   -9.4561    0.3098 H       1  LIG1        0.0278
     54 H          -1.0965  -10.6089    1.3355 H       1  LIG1        0.0278
@<TRIPOS>BOND
     1     7     1    1
     2     6     5    1
     3     1     5   ar
     4     1     2   ar
     5     5     4   ar
     6    36    35    1
     7    35    34    3
     8    39    37    1
     9    40    37    1
    10    34    29    1
    11     2     8    1
    12     2     3   ar
    13    20    19    1
    14    37    30    1
    15    37    38    1
    16     4    15    1
    17     4     3   ar
    18     8     9    3
    19    29    30   ar
    20    29    28   ar
    21    19    15   ar
    22    19    18   ar
    23    30    31   ar
    24     9    10    1
    25    15    16   ar
    26    28    18    1
    27    28    32   ar
    28    18    17   ar
    29     3    11    1
    30    31    32   ar
    31    31    41    1
    32    16    17   ar
    33    16    21    1
    34    32    33    1
    35    26    24    1
    36    53    51    1
    37    41    45   ar
    38    41    42   ar
    39    17    24    1
    40    46    45    1
    41    45    44   ar
    42    21    22    3
    43    49    48    3
    44    49    50    1
    45    48    42    1
    46    42    43   ar
    47    44    43   ar
    48    44    47    1
    49    22    23    1
    50    43    51    1
    51    24    25    1
    52    24    27    1
    53    51    54    1
    54    51    52    1
    55    11    13    1
    56    11    14    1
    57    11    12    1
