@<TRIPOS>MOLECULE
mol_data/opt/m06hf/geoms/mol2/13ei13ei13ei13ei.out
 54 57 0 0 0
SMALL
GASTEIGER

@<TRIPOS>ATOM
      1 C           0.2626    0.3820   -2.4724 C.ar    1  LIG1        0.0179
      2 C           0.6033    1.0629   -1.3227 C.ar    1  LIG1        0.0455
      3 C          -0.3970    0.7855   -0.3355 C.ar    1  LIG1       -0.0084
      4 C          -1.3054   -0.0539   -0.9353 C.ar    1  LIG1        0.0682
      5 N          -0.8870   -0.2939   -2.2261 N.ar    1  LIG1       -0.3581
      6 H          -1.4299   -0.7926   -2.9133 H       1  LIG1        0.1654
      7 H           0.7568    0.3458   -3.4271 H       1  LIG1        0.0819
      8 C           1.7586    1.8922   -1.1386 C.1     1  LIG1       -0.0679
      9 C           2.7204    2.5928   -0.9639 C.1     1  LIG1       -0.1139
     10 H           3.5688    3.2191   -0.8142 H       1  LIG1        0.1232
     11 C          -0.4182    1.3063    1.0761 C.3     1  LIG1       -0.0365
     12 H          -1.0956    0.7087    1.6856 H       1  LIG1        0.0279
     13 H          -0.7646    2.3405    1.0914 H       1  LIG1        0.0279
     14 H           0.5869    1.2675    1.4969 H       1  LIG1        0.0279
     15 C          -2.5288   -0.6595   -0.4088 C.ar    1  LIG1        0.0795
     16 C          -3.6190   -0.0845    0.2233 C.ar    1  LIG1        0.0549
     17 C          -4.5595   -1.1217    0.5156 C.ar    1  LIG1       -0.0077
     18 C          -4.0063   -2.2892    0.0420 C.ar    1  LIG1        0.0687
     19 N          -2.7813   -1.9941   -0.5091 N.ar    1  LIG1       -0.3506
     20 H          -2.1592   -2.6647   -0.9333 H       1  LIG1        0.1660
     21 C          -3.7785    1.3100    0.5090 C.1     1  LIG1       -0.0672
     22 C          -3.9249    2.4777    0.7566 C.1     1  LIG1       -0.1138
     23 H          -4.0507    3.5140    0.9672 H       1  LIG1        0.1232
     24 C          -5.8870   -0.9484    1.2021 C.3     1  LIG1       -0.0365
     25 H          -6.2598   -1.9134    1.5446 H       1  LIG1        0.0279
     26 H          -6.6164   -0.5240    0.5108 H       1  LIG1        0.0279
     27 H          -5.7764   -0.2741    2.0518 H       1  LIG1        0.0279
     28 C          -4.5257   -3.6571    0.0664 C.ar    1  LIG1        0.0795
     29 C          -5.7340   -4.1637   -0.3828 C.ar    1  LIG1        0.0549
     30 C          -5.7428   -5.5726   -0.1360 C.ar    1  LIG1       -0.0077
     31 C          -4.5326   -5.8697    0.4477 C.ar    1  LIG1        0.0687
     32 N          -3.8115   -4.7045    0.5643 N.ar    1  LIG1       -0.3506
     33 H          -2.8873   -4.6358    0.9613 H       1  LIG1        0.1660
     34 C          -6.7800   -3.4043   -1.0001 C.1     1  LIG1       -0.0672
     35 C          -7.6687   -2.7819   -1.5183 C.1     1  LIG1       -0.1138
     36 H          -8.4518   -2.2289   -1.9817 H       1  LIG1        0.1232
     37 C          -6.8648   -6.5227   -0.4557 C.3     1  LIG1       -0.0365
     38 H          -6.7352   -7.4537    0.0953 H       1  LIG1        0.0279
     39 H          -6.8721   -6.7531   -1.5221 H       1  LIG1        0.0279
     40 H          -7.8185   -6.0661   -0.1896 H       1  LIG1        0.0279
     41 C          -3.9973   -7.1478    0.9188 C.ar    1  LIG1        0.0790
     42 C          -3.8825   -8.3652    0.2729 C.ar    1  LIG1        0.0542
     43 C          -3.2886   -9.2932    1.1894 C.ar    1  LIG1       -0.0171
     44 C          -3.0634   -8.5990    2.3491 C.ar    1  LIG1        0.0063
     45 N          -3.4879   -7.3081    2.1748 N.ar    1  LIG1       -0.3583
     46 H          -3.5416   -6.6068    2.8966 H       1  LIG1        0.1654
     47 H          -2.6380   -8.9271    3.2820 H       1  LIG1        0.0810
     48 C          -4.2591   -8.6371   -1.0822 C.1     1  LIG1       -0.0672
     49 C          -4.5687   -8.8869   -2.2173 C.1     1  LIG1       -0.1138
     50 H          -4.8426   -9.1047   -3.2233 H       1  LIG1        0.1232
     51 C          -2.9708  -10.7359    0.8954 C.3     1  LIG1       -0.0371
     52 H          -2.5494  -11.2180    1.7771 H       1  LIG1        0.0278
     53 H          -2.2532  -10.8057    0.0768 H       1  LIG1        0.0278
     54 H          -3.8755  -11.2681    0.5996 H       1  LIG1        0.0278
@<TRIPOS>BOND
     1     7     1    1
     2    50    49    1
     3     6     5    1
     4     1     5   ar
     5     1     2   ar
     6     5     4   ar
     7    49    48    3
     8    36    35    1
     9    39    37    1
    10    35    34    3
    11     2     8    1
    12     2     3   ar
    13     8     9    3
    14    48    42    1
    15    34    29    1
    16     9    10    1
    17     4    15    1
    18     4     3   ar
    19    20    19    1
    20    19    15   ar
    21    19    18   ar
    22    37    40    1
    23    37    30    1
    24    37    38    1
    25    15    16   ar
    26    29    30   ar
    27    29    28   ar
    28     3    11    1
    29    30    31   ar
    30    18    28    1
    31    18    17   ar
    32    28    32   ar
    33    53    51    1
    34    16    21    1
    35    16    17   ar
    36    42    41   ar
    37    42    43   ar
    38    31    32   ar
    39    31    41    1
    40    21    22    3
    41    26    24    1
    42    17    24    1
    43    32    33    1
    44    54    51    1
    45    22    23    1
    46    51    43    1
    47    51    52    1
    48    41    45   ar
    49    11    13    1
    50    11    14    1
    51    11    12    1
    52    43    44   ar
    53    24    25    1
    54    24    27    1
    55    45    44   ar
    56    45    46    1
    57    44    47    1
