@<TRIPOS>MOLECULE
mol_data/opt/m06hf/geoms/mol2/13ei13ei-13ei-13ei.out
 54 57 0 0 0
SMALL
GASTEIGER

@<TRIPOS>ATOM
      1 C           1.2907   -0.3978   -0.2013 C.ar    1  LIG1        0.0179
      2 C           0.9002    0.8359   -0.6843 C.ar    1  LIG1        0.0455
      3 C          -0.5280    0.8801   -0.6584 C.ar    1  LIG1       -0.0084
      4 C          -0.9416   -0.3396   -0.1570 C.ar    1  LIG1        0.0682
      5 N           0.1730   -1.0912    0.1105 N.ar    1  LIG1       -0.3581
      6 H           0.1327   -2.0268    0.4927 H       1  LIG1        0.1654
      7 H           2.2762   -0.8064   -0.0651 H       1  LIG1        0.0819
      8 C           1.7665    1.8874   -1.1300 C.1     1  LIG1       -0.0679
      9 C           2.4753    2.7828   -1.5075 C.1     1  LIG1       -0.1139
     10 H           3.1098    3.5702   -1.8411 H       1  LIG1        0.1232
     11 C          -1.3664    2.0512   -1.1054 C.3     1  LIG1       -0.0365
     12 H          -2.0382    2.3867   -0.3105 H       1  LIG1        0.0279
     13 H          -1.9548    1.8048   -1.9936 H       1  LIG1        0.0279
     14 H          -0.7057    2.8785   -1.3618 H       1  LIG1        0.0279
     15 C          -2.2754   -0.8695    0.0958 C.ar    1  LIG1        0.0795
     16 C          -2.6818   -2.0865    0.6311 C.ar    1  LIG1        0.0549
     17 C          -4.1120   -2.1077    0.6598 C.ar    1  LIG1       -0.0077
     18 C          -4.5213   -0.9056    0.1351 C.ar    1  LIG1        0.0687
     19 N          -3.4035   -0.1709   -0.1930 N.ar    1  LIG1       -0.3506
     20 H          -3.4273    0.7118   -0.6794 H       1  LIG1        0.1660
     21 C          -1.8238   -3.1338    1.0965 C.1     1  LIG1       -0.0672
     22 C          -1.1076   -4.0192    1.4907 C.1     1  LIG1       -0.1138
     23 H          -0.4947   -4.8145    1.8464 H       1  LIG1        0.1232
     24 C          -4.9702   -3.2218    1.1949 C.3     1  LIG1       -0.0365
     25 H          -4.5408   -3.6035    2.1216 H       1  LIG1        0.0279
     26 H          -5.0281   -4.0369    0.4721 H       1  LIG1        0.0279
     27 H          -5.9797   -2.8573    1.3823 H       1  LIG1        0.0279
     28 C          -5.8545   -0.3453   -0.0658 C.ar    1  LIG1        0.0795
     29 C          -7.0018   -0.8875   -0.6257 C.ar    1  LIG1        0.0549
     30 C          -8.0128    0.1214   -0.6148 C.ar    1  LIG1       -0.0077
     31 C          -7.4349    1.2435   -0.0521 C.ar    1  LIG1        0.0687
     32 N          -6.1406    0.9396    0.2707 N.ar    1  LIG1       -0.3506
     33 H          -5.5165    1.5758    0.7513 H       1  LIG1        0.1660
     34 C          -7.1311   -2.2038   -1.1744 C.1     1  LIG1       -0.0672
     35 C          -7.2611   -3.3034   -1.6442 C.1     1  LIG1       -0.1138
     36 H          -7.3655   -4.2763   -2.0642 H       1  LIG1        0.1232
     37 C          -9.4099   -0.0442   -1.1577 C.3     1  LIG1       -0.0365
     38 H          -9.4733   -0.9966   -1.6827 H       1  LIG1        0.0279
     39 H          -9.6533    0.7525   -1.8649 H       1  LIG1        0.0279
     40 H         -10.1520   -0.0571   -0.3539 H       1  LIG1        0.0279
     41 C          -7.9629    2.5760    0.2123 C.ar    1  LIG1        0.0790
     42 C          -7.3122    3.7313    0.6243 C.ar    1  LIG1        0.0542
     43 C          -8.2913    4.7709    0.7388 C.ar    1  LIG1       -0.0171
     44 C          -9.4898    4.2068    0.3939 C.ar    1  LIG1        0.0063
     45 N          -9.2793    2.8886    0.0804 N.ar    1  LIG1       -0.3583
     46 H          -9.9934    2.2296   -0.1819 H       1  LIG1        0.1654
     47 H         -10.4733    4.6425    0.3465 H       1  LIG1        0.0810
     48 C          -5.9136    3.8675    0.8998 C.1     1  LIG1       -0.0672
     49 C          -4.7405    3.9914    1.1483 C.1     1  LIG1       -0.1138
     50 H          -3.7090    4.1288    1.3777 H       1  LIG1        0.1232
     51 C          -8.0178    6.1913    1.1574 C.3     1  LIG1       -0.0371
     52 H          -8.9415    6.7691    1.1584 H       1  LIG1        0.0278
     53 H          -7.3106    6.6587    0.4707 H       1  LIG1        0.0278
     54 H          -7.5856    6.2144    2.1586 H       1  LIG1        0.0278
@<TRIPOS>BOND
     1    36    35    1
     2    13    11    1
     3    39    37    1
     4    10     9    1
     5    38    37    1
     6    35    34    3
     7     9     8    3
     8    14    11    1
     9    34    29    1
    10    37    30    1
    11    37    40    1
    12     8     2    1
    13    11     3    1
    14    11    12    1
    15     2     3   ar
    16     2     1   ar
    17    20    19    1
    18     3     4   ar
    19    29    30   ar
    20    29    28   ar
    21    30    31   ar
    22     1     7    1
    23     1     5   ar
    24    19    15   ar
    25    19    18   ar
    26    46    45    1
    27     4    15    1
    28     4     5   ar
    29    28    18    1
    30    28    32   ar
    31    31    41    1
    32    31    32   ar
    33    45    41   ar
    34    45    44   ar
    35    15    16   ar
    36     5     6    1
    37    18    17   ar
    38    41    42   ar
    39    32    33    1
    40    47    44    1
    41    44    43   ar
    42    53    51    1
    43    26    24    1
    44    42    43   ar
    45    42    48    1
    46    16    17   ar
    47    16    21    1
    48    17    24    1
    49    43    51    1
    50    48    49    3
    51    21    22    3
    52    49    50    1
    53    51    52    1
    54    51    54    1
    55    24    27    1
    56    24    25    1
    57    22    23    1
