@<TRIPOS>MOLECULE
mol_data/opt/m06hf/geoms/mol2/13el4ha-6ff-6ii.out
 54 57 0 0 0
SMALL
GASTEIGER

@<TRIPOS>ATOM
      1 C           1.2270    0.1260    1.2325 C.ar    1  LIG1        0.0213
      2 C           1.0088    1.2816    0.5125 C.ar    1  LIG1        0.0842
      3 C          -0.3550    1.2361    0.0908 C.ar    1  LIG1        0.1606
      4 C          -0.9183    0.0666    0.5480 C.ar    1  LIG1        0.0917
      5 N           0.0734   -0.5869    1.2416 N.ar    1  LIG1       -0.3565
      6 H          -0.0833   -1.4333    1.7665 H       1  LIG1        0.1655
      7 H           2.1150   -0.2132    1.7363 H       1  LIG1        0.0820
      8 C           1.9473    2.3241    0.2265 C.1     1  LIG1       -0.0645
      9 C           2.7257    3.2037   -0.0290 C.1     1  LIG1       -0.1137
     10 H           3.4132    3.9874   -0.2469 H       1  LIG1        0.1232
     11 O          -0.9927    2.1953   -0.6431 O.3     1  LIG1       -0.4918
     12 C          -0.7647    2.0870   -2.0510 C.3     1  LIG1        0.0789
     13 H          -1.3274    2.8933   -2.5146 H       1  LIG1        0.0660
     14 H           0.2997    2.2005   -2.2579 H       1  LIG1        0.0660
     15 H          -1.1195    1.1182   -2.4069 H       1  LIG1        0.0660
     16 C          -3.4399    0.2344    0.5265 C.ar    1  LIG1        0.0345
     17 C          -4.6745   -0.4298    0.4420 C.ar    1  LIG1       -0.0325
     18 C          -2.2590   -0.5316    0.3892 C.ar    1  LIG1        0.0226
     19 C          -4.7562   -1.8030    0.2392 C.ar    1  LIG1       -0.0109
     20 H          -5.5883    0.1464    0.5287 H       1  LIG1        0.0642
     21 C          -2.3583   -1.9051    0.1552 C.ar    1  LIG1       -0.0502
     22 C          -3.5839   -2.5548    0.0883 C.ar    1  LIG1       -0.0531
     23 H          -1.4462   -2.4746    0.0191 H       1  LIG1        0.0625
     24 N          -3.3949    1.5829    0.7878 N.pl3   1  LIG1       -0.3574
     25 H          -2.6146    2.1014    0.4001 H       1  LIG1        0.1423
     26 H          -4.2780    2.0678    0.7516 H       1  LIG1        0.1423
     27 H          -3.6340   -3.6272   -0.0531 H       1  LIG1        0.0624
     28 C          -6.4454   -3.3022   -0.9007 C.ar    1  LIG1        0.2210
     29 C          -6.0935   -2.4617    0.1790 C.ar    1  LIG1        0.0470
     30 C          -7.0405   -2.2726    1.1726 C.ar    1  LIG1       -0.0052
     31 C          -8.2776   -2.9068    1.0804 C.ar    1  LIG1        0.1436
     32 C          -8.5232   -3.7158   -0.0294 C.ar    1  LIG1        0.1178
     33 N          -7.6110   -3.9018   -0.9872 N.ar    1  LIG1       -0.2088
     34 H          -6.8224   -1.6618    2.0397 H       1  LIG1        0.0662
     35 O          -5.5932   -3.5342   -1.9251 O.3     1  LIG1       -0.4920
     36 H          -4.8277   -2.9497   -1.8512 H       1  LIG1        0.2937
     37 O          -9.1800   -2.7200    2.0830 O.3     1  LIG1       -0.5046
     38 H          -9.8956   -3.3633    1.9959 H       1  LIG1        0.2922
     39 C          -9.9075   -5.8077   -0.3576 C.ar    1  LIG1        0.0475
     40 C          -9.8377   -4.4127   -0.1710 C.ar    1  LIG1        0.0253
     41 C         -11.0238   -3.6856   -0.1242 C.ar    1  LIG1       -0.0464
     42 C         -12.2519   -4.3351   -0.2601 C.ar    1  LIG1       -0.0317
     43 C         -12.2044   -5.7131   -0.4372 C.ar    1  LIG1        0.0308
     44 N         -11.0777   -6.4256   -0.4835 N.ar    1  LIG1       -0.2592
     45 H         -10.9880   -2.6070   -0.0005 H       1  LIG1        0.0628
     46 H         -13.1245   -6.2773   -0.5502 H       1  LIG1        0.0832
     47 C          -8.6654   -6.6702   -0.4282 C.3     1  LIG1       -0.0217
     48 H          -7.9896   -6.4396    0.3970 H       1  LIG1        0.0293
     49 H          -8.1340   -6.4742   -1.3593 H       1  LIG1        0.0293
     50 H          -8.9779   -7.7105   -0.3808 H       1  LIG1        0.0293
     51 C         -13.5625   -3.5751   -0.2267 C.3     1  LIG1       -0.0383
     52 H         -14.3989   -4.2528   -0.3935 H       1  LIG1        0.0278
     53 H         -13.5748   -2.8092   -1.0033 H       1  LIG1        0.0278
     54 H         -13.6970   -3.0877    0.7403 H       1  LIG1        0.0278
@<TRIPOS>BOND
     1    13    12    1
     2    15    12    1
     3    14    12    1
     4    12    11    1
     5    35    36    1
     6    35    28    1
     7    49    47    1
     8    53    51    1
     9    33    28   ar
    10    33    32   ar
    11    28    29   ar
    12    11     3    1
    13    46    43    1
    14    44    43   ar
    15    44    39   ar
    16    43    42   ar
    17    47    50    1
    18    47    39    1
    19    47    48    1
    20    52    51    1
    21    39    40   ar
    22    42    51    1
    23    42    41   ar
    24    10     9    1
    25    51    54    1
    26    40    41   ar
    27    40    32    1
    28    41    45    1
    29    27    22    1
    30    32    31   ar
    31     9     8    3
    32    23    21    1
    33    22    21   ar
    34    22    19   ar
    35     3     2   ar
    36     3     4   ar
    37    21    18   ar
    38    29    19    1
    39    29    30   ar
    40     8     2    1
    41    19    17   ar
    42    18    16   ar
    43    18     4    1
    44    25    24    1
    45    17    16   ar
    46    17    20    1
    47     2     1   ar
    48    16    24    1
    49     4     5   ar
    50    26    24    1
    51    31    30   ar
    52    31    37    1
    53    30    34    1
    54     1     5   ar
    55     1     7    1
    56     5     6    1
    57    38    37    1
