@<TRIPOS>MOLECULE
mol_data/opt/m06hf/geoms/mol2/13el13el13el13el.out
 58 61 0 0 0
SMALL
GASTEIGER

@<TRIPOS>ATOM
      1 C          -1.9611    2.2226   -2.8583 C.ar    1  LIG1        0.0213
      2 C          -0.7930    2.4273   -2.1506 C.ar    1  LIG1        0.0842
      3 C          -0.7980    1.4818   -1.0733 C.ar    1  LIG1        0.1620
      4 C          -1.9596    0.7528   -1.1669 C.ar    1  LIG1        0.1077
      5 N          -2.6444    1.2126   -2.2707 N.ar    1  LIG1       -0.3554
      6 H          -3.5705    0.9089   -2.5269 H       1  LIG1        0.1655
      7 H          -2.3290    2.7334   -3.7308 H       1  LIG1        0.0820
      8 C           0.2326    3.3698   -2.4866 C.1     1  LIG1       -0.0645
      9 C           1.0898    4.1630   -2.7740 C.1     1  LIG1       -0.1137
     10 H           1.8537    4.8585   -3.0339 H       1  LIG1        0.1232
     11 O           0.1650    1.2588   -0.1503 O.3     1  LIG1       -0.4917
     12 C           0.5229    2.3989    0.6307 C.3     1  LIG1        0.0789
     13 H           1.1911    2.0287    1.4045 H       1  LIG1        0.0660
     14 H           1.0302    3.1385    0.0120 H       1  LIG1        0.0660
     15 H          -0.3715    2.8294    1.0837 H       1  LIG1        0.0660
     16 C          -2.4427   -0.3588   -0.3568 C.ar    1  LIG1        0.0862
     17 C          -2.5061   -0.5063    1.0219 C.ar    1  LIG1        0.0937
     18 C          -3.0701   -1.7928    1.2594 C.ar    1  LIG1        0.1627
     19 C          -3.3398   -2.3736    0.0416 C.ar    1  LIG1        0.1082
     20 N          -2.9464   -1.4891   -0.9246 N.ar    1  LIG1       -0.3478
     21 H          -2.9395   -1.7086   -1.9130 H       1  LIG1        0.1661
     22 C          -2.1160    0.4421    2.0187 C.1     1  LIG1       -0.0638
     23 C          -1.8217    1.2148    2.8929 C.1     1  LIG1       -0.1137
     24 H          -1.5477    1.8934    3.6675 H       1  LIG1        0.1232
     25 O          -3.3262   -2.3875    2.4630 O.3     1  LIG1       -0.4917
     26 C          -4.4057   -1.7742    3.1747 C.3     1  LIG1        0.0789
     27 H          -4.4923   -2.3083    4.1183 H       1  LIG1        0.0660
     28 H          -4.1799   -0.7239    3.3582 H       1  LIG1        0.0660
     29 H          -5.3265   -1.8655    2.5937 H       1  LIG1        0.0660
     30 C          -3.9055   -3.6793   -0.2360 C.ar    1  LIG1        0.0862
     31 C          -4.2600   -4.2823   -1.4337 C.ar    1  LIG1        0.0937
     32 C          -4.7321   -5.5913   -1.1044 C.ar    1  LIG1        0.1627
     33 C          -4.6568   -5.7336    0.2626 C.ar    1  LIG1        0.1081
     34 N          -4.1526   -4.5570    0.7677 N.ar    1  LIG1       -0.3478
     35 H          -3.8497   -4.3817    1.7186 H       1  LIG1        0.1661
     36 C          -4.1537   -3.7029   -2.7365 C.1     1  LIG1       -0.0638
     37 C          -4.0613   -3.2091   -3.8317 C.1     1  LIG1       -0.1137
     38 H          -3.9826   -2.8114   -4.8170 H       1  LIG1        0.1232
     39 O          -5.1951   -6.5152   -1.9809 O.3     1  LIG1       -0.4917
     40 C          -6.5506   -6.3011   -2.3679 C.3     1  LIG1        0.0789
     41 H          -6.8023   -7.1067   -3.0529 H       1  LIG1        0.0660
     42 H          -7.1975   -6.3383   -1.4888 H       1  LIG1        0.0660
     43 H          -6.6532   -5.3357   -2.8677 H       1  LIG1        0.0660
     44 C          -5.0465   -6.8474    1.1194 C.ar    1  LIG1        0.0858
     45 C          -4.8570   -8.2103    0.9703 C.ar    1  LIG1        0.0930
     46 C          -5.4328   -8.8283    2.1284 C.ar    1  LIG1        0.1533
     47 C          -5.9442   -7.8391    2.9254 C.ar    1  LIG1        0.0457
     48 N          -5.6929   -6.6435    2.3034 N.ar    1  LIG1       -0.3554
     49 H          -6.0186   -5.7436    2.6179 H       1  LIG1        0.1655
     50 H          -6.4430   -7.9057    3.8752 H       1  LIG1        0.0845
     51 C          -4.1540   -8.8666   -0.0879 C.1     1  LIG1       -0.0638
     52 C          -3.5671   -9.4301   -0.9725 C.1     1  LIG1       -0.1137
     53 H          -3.0379   -9.9133   -1.7602 H       1  LIG1        0.1232
     54 O          -5.4416  -10.1571    2.4164 O.3     1  LIG1       -0.4924
     55 C          -6.2410  -10.9307    1.5240 C.3     1  LIG1        0.0789
     56 H          -6.1511  -11.9630    1.8529 H       1  LIG1        0.0660
     57 H          -7.2826  -10.6061    1.5826 H       1  LIG1        0.0660
     58 H          -5.8753  -10.8294    0.5015 H       1  LIG1        0.0660
@<TRIPOS>BOND
     1    38    37    1
     2    37    36    3
     3     7     1    1
     4    41    40    1
     5    10     9    1
     6    43    40    1
     7     1     5   ar
     8     1     2   ar
     9     9     8    3
    10    36    31    1
    11     6     5    1
    12     8     2    1
    13    40    39    1
    14    40    42    1
    15     5     4   ar
    16     2     3   ar
    17    39    32    1
    18    21    20    1
    19    53    52    1
    20    31    32   ar
    21    31    30   ar
    22     4     3   ar
    23     4    16    1
    24    32    33   ar
    25     3    11    1
    26    52    51    3
    27    20    16   ar
    28    20    19   ar
    29    16    17   ar
    30    30    19    1
    31    30    34   ar
    32    11    12    1
    33    51    45    1
    34    14    12    1
    35    19    18   ar
    36    33    34   ar
    37    33    44    1
    38    58    55    1
    39    12    15    1
    40    12    13    1
    41    34    35    1
    42    45    44   ar
    43    45    46   ar
    44    17    18   ar
    45    17    22    1
    46    44    48   ar
    47    18    25    1
    48    55    57    1
    49    55    56    1
    50    55    54    1
    51    22    23    3
    52    46    54    1
    53    46    47   ar
    54    48    49    1
    55    48    47   ar
    56    25    26    1
    57    29    26    1
    58    23    24    1
    59    47    50    1
    60    26    28    1
    61    26    27    1
