@<TRIPOS>MOLECULE
mol_data/opt/m06hf/geoms/mol2/13el13id6eh4df-.out
 53 56 0 0 0
SMALL
GASTEIGER

@<TRIPOS>ATOM
      1 C           0.5996    0.4290    2.2001 C.ar    1  LIG1        0.0213
      2 C           0.6297    1.3747    1.1965 C.ar    1  LIG1        0.0842
      3 C          -0.5464    1.1670    0.4067 C.ar    1  LIG1        0.1620
      4 C          -1.2363    0.1091    0.9489 C.ar    1  LIG1        0.1066
      5 N          -0.5194   -0.3220    2.0425 N.ar    1  LIG1       -0.3554
      6 H          -0.8484   -1.0172    2.6943 H       1  LIG1        0.1655
      7 H           1.2926    0.2627    3.0059 H       1  LIG1        0.0820
      8 C           1.6364    2.3699    0.9785 C.1     1  LIG1       -0.0645
      9 C           2.4806    3.2019    0.7772 C.1     1  LIG1       -0.1137
     10 H           3.2246    3.9447    0.6058 H       1  LIG1        0.1232
     11 O          -0.9260    1.8747   -0.6880 O.3     1  LIG1       -0.4917
     12 C          -0.1285    1.6090   -1.8428 C.3     1  LIG1        0.0789
     13 H          -0.5171    2.2455   -2.6335 H       1  LIG1        0.0660
     14 H           0.9156    1.8528   -1.6420 H       1  LIG1        0.0660
     15 H          -0.2241    0.5579   -2.1222 H       1  LIG1        0.0660
     16 C          -2.4839   -0.5135    0.5172 C.ar    1  LIG1        0.0712
     17 C          -3.6624    0.0646    0.0982 C.ar    1  LIG1       -0.0057
     18 C          -4.5339   -1.0211   -0.2037 C.ar    1  LIG1        0.0806
     19 C          -3.8678   -2.2177    0.0447 C.ar    1  LIG1        0.0675
     20 N          -2.6300   -1.8759    0.4785 N.ar    1  LIG1       -0.3516
     21 H          -1.8899   -2.5484    0.6341 H       1  LIG1        0.1660
     22 C          -3.9737    1.5329   -0.0174 C.3     1  LIG1       -0.0364
     23 H          -5.0097    1.7160    0.2676 H       1  LIG1        0.0279
     24 H          -3.8215    1.8730   -1.0421 H       1  LIG1        0.0279
     25 H          -3.3065    2.1011    0.6295 H       1  LIG1        0.0279
     26 N          -6.9550   -0.7394   -1.0583 N.1     1  LIG1       -0.1908
     27 C          -5.8753   -0.8732   -0.6870 C.1     1  LIG1        0.1016
     28 C          -3.4623   -4.7047   -0.2740 C.ar    1  LIG1        0.1231
     29 C          -4.3321   -3.6128   -0.0741 C.ar    1  LIG1        0.0352
     30 C          -5.6916   -3.8845    0.0112 C.ar    1  LIG1       -0.0271
     31 C          -6.1715   -5.1938   -0.1090 C.ar    1  LIG1        0.0516
     32 C          -5.2016   -6.2153   -0.2432 C.ar    1  LIG1        0.0943
     33 N          -3.9091   -5.9553   -0.3470 N.ar    1  LIG1       -0.2359
     34 H          -6.3982   -3.0779    0.1574 H       1  LIG1        0.0644
     35 C          -2.0263   -4.5529   -0.4197 C.1     1  LIG1       -0.0491
     36 C          -0.8338   -4.4482   -0.5392 C.1     1  LIG1       -0.1124
     37 H           0.2215   -4.3791   -0.6717 H       1  LIG1        0.1232
     38 N          -7.5104   -5.4468   -0.1417 N.pl3   1  LIG1       -0.3563
     39 H          -8.1422   -4.7284    0.1727 H       1  LIG1        0.1424
     40 H          -7.8385   -6.3953   -0.0613 H       1  LIG1        0.1424
     41 C          -6.3118   -8.3137    0.6619 C.ar    1  LIG1        0.0612
     42 C          -6.6248   -9.6732    0.5366 C.ar    1  LIG1       -0.0403
     43 C          -5.5809   -7.6593   -0.3386 C.ar    1  LIG1        0.0230
     44 C          -6.2094  -10.3846   -0.5733 C.ar    1  LIG1       -0.0189
     45 H          -7.1845  -10.1602    1.3234 H       1  LIG1        0.0632
     46 C          -5.1520   -8.3857   -1.4450 C.ar    1  LIG1       -0.0097
     47 C          -5.4632   -9.7380   -1.5633 C.ar    1  LIG1        0.1176
     48 H          -4.5638   -7.8804   -2.2019 H       1  LIG1        0.0661
     49 H          -6.4352  -11.4346   -0.6948 H       1  LIG1        0.0654
     50 N          -7.0692   -7.0664    2.8093 N.1     1  LIG1       -0.1908
     51 C          -6.7194   -7.6114    1.8611 C.1     1  LIG1        0.0998
     52 O          -5.0754  -10.4803   -2.6246 O.3     1  LIG1       -0.5067
     53 H          -4.5459   -9.9590   -3.2377 H       1  LIG1        0.2921
@<TRIPOS>BOND
     1    53    52    1
     2    13    12    1
     3    52    47    1
     4    48    46    1
     5    15    12    1
     6    12    14    1
     7    12    11    1
     8    47    46   ar
     9    47    44   ar
    10    46    43   ar
    11    26    27    3
    12    24    22    1
    13    49    44    1
    14    11     3    1
    15    27    18    1
    16    37    36    1
    17    44    42   ar
    18    36    35    3
    19    35    28    1
    20    33    28   ar
    21    33    32   ar
    22    43    32    1
    23    43    41   ar
    24    28    29   ar
    25    32    31   ar
    26    18    19   ar
    27    18    17   ar
    28    38    31    1
    29    38    40    1
    30    38    39    1
    31    31    30   ar
    32    29    30   ar
    33    29    19    1
    34    22    17    1
    35    22    23    1
    36    22    25    1
    37    30    34    1
    38    19    20   ar
    39    17    16   ar
    40     3     4   ar
    41     3     2   ar
    42    20    16   ar
    43    20    21    1
    44    16     4    1
    45    42    41   ar
    46    42    45    1
    47    10     9    1
    48    41    51    1
    49     9     8    3
    50     4     5   ar
    51     8     2    1
    52     2     1   ar
    53    51    50    3
    54     5     1   ar
    55     5     6    1
    56     1     7    1
