@<TRIPOS>MOLECULE
mol_data/opt/m06hf/geoms/mol2/13el13el13el13el-.out
 58 61 0 0 0
SMALL
GASTEIGER

@<TRIPOS>ATOM
      1 C           0.6296    0.6761   -2.4398 C.ar    1  LIG1        0.0213
      2 C           0.8850    1.1961   -1.1862 C.ar    1  LIG1        0.0842
      3 C          -0.2374    0.8495   -0.3652 C.ar    1  LIG1        0.1620
      4 C          -1.1220    0.1450   -1.1456 C.ar    1  LIG1        0.1077
      5 N          -0.5649    0.0403   -2.4014 N.ar    1  LIG1       -0.3554
      6 H          -1.0381   -0.3613   -3.1952 H       1  LIG1        0.1655
      7 H           1.2253    0.7253   -3.3343 H       1  LIG1        0.0820
      8 C           2.0681    1.8981   -0.7881 C.1     1  LIG1       -0.0645
      9 C           3.0599    2.4891   -0.4528 C.1     1  LIG1       -0.1137
     10 H           3.9421    3.0050   -0.1534 H       1  LIG1        0.1232
     11 O          -0.4077    1.1019    0.9542 O.3     1  LIG1       -0.4917
     12 C          -0.4509    2.4918    1.2847 C.3     1  LIG1        0.0789
     13 H          -0.6849    2.5377    2.3457 H       1  LIG1        0.0660
     14 H           0.5160    2.9567    1.0897 H       1  LIG1        0.0660
     15 H          -1.2352    2.9799    0.7055 H       1  LIG1        0.0660
     16 C          -2.4038   -0.4642   -0.7959 C.ar    1  LIG1        0.0862
     17 C          -3.5603    0.1022   -0.2861 C.ar    1  LIG1        0.0937
     18 C          -4.5097   -0.9553   -0.1455 C.ar    1  LIG1        0.1627
     19 C          -3.9079   -2.1207   -0.5635 C.ar    1  LIG1        0.1082
     20 N          -2.6331   -1.7966   -0.9577 N.ar    1  LIG1       -0.3478
     21 H          -1.9531   -2.4517   -1.3126 H       1  LIG1        0.1661
     22 C          -3.7808    1.4803    0.0271 C.1     1  LIG1       -0.0638
     23 C          -4.0007    2.6302    0.3014 C.1     1  LIG1       -0.1137
     24 H          -4.2016    3.6495    0.5354 H       1  LIG1        0.1232
     25 O          -5.7742   -0.8454    0.3303 O.3     1  LIG1       -0.4917
     26 C          -5.8325   -0.7691    1.7544 C.3     1  LIG1        0.0789
     27 H          -6.8846   -0.6760    2.0109 H       1  LIG1        0.0660
     28 H          -5.4161   -1.6794    2.1912 H       1  LIG1        0.0660
     29 H          -5.2794    0.1029    2.1080 H       1  LIG1        0.0660
     30 C          -4.4076   -3.4905   -0.5734 C.ar    1  LIG1        0.0862
     31 C          -5.6282   -3.9990   -0.9962 C.ar    1  LIG1        0.0937
     32 C          -5.5668   -5.4067   -0.7811 C.ar    1  LIG1        0.1627
     33 C          -4.3343   -5.7047   -0.2471 C.ar    1  LIG1        0.1081
     34 N          -3.6441   -4.5301   -0.1367 N.ar    1  LIG1       -0.3478
     35 H          -2.7401   -4.4609    0.3151 H       1  LIG1        0.1661
     36 C          -6.7069   -3.2656   -1.5818 C.1     1  LIG1       -0.0638
     37 C          -7.6195   -2.6592   -2.0760 C.1     1  LIG1       -0.1137
     38 H          -8.4161   -2.1058   -2.5154 H       1  LIG1        0.1232
     39 O          -6.5288   -6.3403   -1.0500 O.3     1  LIG1       -0.4917
     40 C          -7.6825   -6.2090   -0.2120 C.3     1  LIG1        0.0789
     41 H          -8.3755   -6.9874   -0.5221 H       1  LIG1        0.0660
     42 H          -7.3933   -6.3463    0.8317 H       1  LIG1        0.0660
     43 H          -8.1329   -5.2263   -0.3534 H       1  LIG1        0.0660
     44 C          -3.7957   -6.9945    0.1427 C.ar    1  LIG1        0.0858
     45 C          -2.6026   -7.3246    0.7688 C.ar    1  LIG1        0.0930
     46 C          -2.6010   -8.7470    0.9037 C.ar    1  LIG1        0.1533
     47 C          -3.7734   -9.2233    0.3644 C.ar    1  LIG1        0.0457
     48 N          -4.4817   -8.1358   -0.0904 N.ar    1  LIG1       -0.3554
     49 H          -5.3728   -8.1351   -0.5685 H       1  LIG1        0.1655
     50 H          -4.1538  -10.2230    0.2649 H       1  LIG1        0.0845
     51 C          -1.5928   -6.4034    1.1869 C.1     1  LIG1       -0.0638
     52 C          -0.7592   -5.6029    1.5278 C.1     1  LIG1       -0.1137
     53 H          -0.0079   -4.9207    1.8533 H       1  LIG1        0.1232
     54 O          -1.5795   -9.4218    1.4758 O.3     1  LIG1       -0.4924
     55 C          -1.7439  -10.8251    1.5146 C.3     1  LIG1        0.0789
     56 H          -0.8535  -11.2277    1.9891 H       1  LIG1        0.0660
     57 H          -2.6296  -11.0872    2.1002 H       1  LIG1        0.0660
     58 H          -1.8400  -11.2240    0.5005 H       1  LIG1        0.0660
@<TRIPOS>BOND
     1     7     1    1
     2     6     5    1
     3    38    37    1
     4     1     5   ar
     5     1     2   ar
     6     5     4   ar
     7    37    36    3
     8    36    31    1
     9    21    20    1
    10     2     8    1
    11     2     3   ar
    12     4    16    1
    13     4     3   ar
    14    39    32    1
    15    39    40    1
    16    31    32   ar
    17    31    30   ar
    18    20    16   ar
    19    20    19   ar
    20    16    17   ar
    21     8     9    3
    22    32    33   ar
    23    30    19    1
    24    30    34   ar
    25    49    48    1
    26    19    18   ar
    27    41    40    1
    28     9    10    1
    29     3    11    1
    30    43    40    1
    31    17    18   ar
    32    17    22    1
    33    33    34   ar
    34    33    44    1
    35    40    42    1
    36    18    25    1
    37    34    35    1
    38    48    44   ar
    39    48    47   ar
    40    22    23    3
    41    44    45   ar
    42    50    47    1
    43    23    24    1
    44    25    26    1
    45    47    46   ar
    46    58    55    1
    47    15    12    1
    48    45    46   ar
    49    45    51    1
    50    46    54    1
    51    11    12    1
    52    14    12    1
    53    51    52    3
    54    12    13    1
    55    54    55    1
    56    55    56    1
    57    55    57    1
    58    52    53    1
    59    26    27    1
    60    26    29    1
    61    26    28    1
