@<TRIPOS>MOLECULE
mol_data/opt/m06hf/geoms/mol2/13el13el-13el-13el.out
 58 61 0 0 0
SMALL
GASTEIGER

@<TRIPOS>ATOM
      1 C           1.1617   -0.1668    0.2005 C.ar    1  LIG1        0.0213
      2 C           0.7186    1.1166   -0.0648 C.ar    1  LIG1        0.0842
      3 C          -0.6984    1.0267   -0.1954 C.ar    1  LIG1        0.1620
      4 C          -1.0573   -0.2903   -0.0151 C.ar    1  LIG1        0.1077
      5 N           0.0895   -0.9939    0.2305 N.ar    1  LIG1       -0.3554
      6 H           0.0956   -1.9895    0.4087 H       1  LIG1        0.1655
      7 H           2.1632   -0.5200    0.3703 H       1  LIG1        0.0820
      8 C           1.5156    2.3006   -0.1775 C.1     1  LIG1       -0.0645
      9 C           2.1754    3.3000   -0.2847 C.1     1  LIG1       -0.1137
     10 H           2.7647    4.1830   -0.3725 H       1  LIG1        0.1232
     11 O          -1.5863    2.0398   -0.4487 O.3     1  LIG1       -0.4917
     12 C          -1.4924    2.5589   -1.7847 C.3     1  LIG1        0.0789
     13 H          -2.2647    3.3204   -1.8680 H       1  LIG1        0.0660
     14 H          -0.5061    2.9943   -1.9419 H       1  LIG1        0.0660
     15 H          -1.6692    1.7525   -2.4991 H       1  LIG1        0.0660
     16 C          -2.3843   -0.8759   -0.0395 C.ar    1  LIG1        0.0862
     17 C          -2.8308   -2.1802    0.1167 C.ar    1  LIG1        0.0937
     18 C          -4.2543   -2.1445   -0.0088 C.ar    1  LIG1        0.1627
     19 C          -4.6225   -0.8317   -0.2260 C.ar    1  LIG1        0.1082
     20 N          -3.4651   -0.0887   -0.2419 N.ar    1  LIG1       -0.3478
     21 H          -3.3740    0.9023   -0.4318 H       1  LIG1        0.1661
     22 C          -2.0100   -3.3229    0.3711 C.1     1  LIG1       -0.0638
     23 C          -1.2980   -4.2685    0.5932 C.1     1  LIG1       -0.1137
     24 H          -0.6977   -5.1278    0.7838 H       1  LIG1        0.1232
     25 O          -5.0626   -3.2265    0.0947 O.3     1  LIG1       -0.4917
     26 C          -5.7754   -3.2987    1.3286 C.3     1  LIG1        0.0789
     27 H          -6.3574   -4.2160    1.2883 H       1  LIG1        0.0660
     28 H          -5.0702   -3.3304    2.1616 H       1  LIG1        0.0660
     29 H          -6.4430   -2.4413    1.4300 H       1  LIG1        0.0660
     30 C          -5.9007   -0.1455   -0.3477 C.ar    1  LIG1        0.0862
     31 C          -7.1702   -0.5375   -0.7627 C.ar    1  LIG1        0.0937
     32 C          -7.9861    0.6369   -0.7065 C.ar    1  LIG1        0.1627
     33 C          -7.2016    1.6807   -0.2770 C.ar    1  LIG1        0.1081
     34 N          -5.9493    1.1809   -0.0631 N.ar    1  LIG1       -0.3478
     35 H          -5.2069    1.7349    0.3446 H       1  LIG1        0.1661
     36 C          -7.5629   -1.8312   -1.2261 C.1     1  LIG1       -0.0638
     37 C          -7.9031   -2.9179   -1.6127 C.1     1  LIG1       -0.1137
     38 H          -8.1779   -3.8811   -1.9742 H       1  LIG1        0.1232
     39 O          -9.3027    0.7710   -1.0424 O.3     1  LIG1       -0.4917
     40 C         -10.1825   -0.0335   -0.2508 C.3     1  LIG1        0.0789
     41 H         -11.1858    0.1600   -0.6224 H       1  LIG1        0.0660
     42 H          -9.9344   -1.0877   -0.3706 H       1  LIG1        0.0660
     43 H         -10.1003    0.2572    0.7988 H       1  LIG1        0.0660
     44 C          -7.4964    3.0906   -0.1106 C.ar    1  LIG1        0.0858
     45 C          -6.6482    4.1396    0.2209 C.ar    1  LIG1        0.0930
     46 C          -7.4578    5.3220    0.2139 C.ar    1  LIG1        0.1533
     47 C          -8.7367    4.9512   -0.1120 C.ar    1  LIG1        0.0457
     48 N          -8.7368    3.5937   -0.3097 N.ar    1  LIG1       -0.3554
     49 H          -9.5026    3.0147   -0.6261 H       1  LIG1        0.1655
     50 H          -9.6172    5.5559   -0.2305 H       1  LIG1        0.0845
     51 C          -5.2375    4.0202    0.4393 C.1     1  LIG1       -0.0638
     52 C          -4.0528    3.8609    0.6098 C.1     1  LIG1       -0.1137
     53 H          -3.0019    3.7058    0.7366 H       1  LIG1        0.1232
     54 O          -7.0385    6.5920    0.4609 O.3     1  LIG1       -0.4924
     55 C          -6.6130    6.8007    1.8054 C.3     1  LIG1        0.0789
     56 H          -6.3418    7.8511    1.8797 H       1  LIG1        0.0660
     57 H          -7.4299    6.5723    2.4937 H       1  LIG1        0.0660
     58 H          -5.7497    6.1742    2.0348 H       1  LIG1        0.0660
@<TRIPOS>BOND
     1    15    12    1
     2    38    37    1
     3    14    12    1
     4    13    12    1
     5    12    11    1
     6    37    36    3
     7    36    31    1
     8    39    32    1
     9    39    40    1
    10    31    32   ar
    11    31    30   ar
    12    32    33   ar
    13    49    48    1
    14    41    40    1
    15    11     3    1
    16    21    20    1
    17    10     9    1
    18    42    40    1
    19    30    19    1
    20    30    34   ar
    21    48    47   ar
    22    48    44   ar
    23     9     8    3
    24    33    44    1
    25    33    34   ar
    26    40    43    1
    27    20    19   ar
    28    20    16   ar
    29    50    47    1
    30    19    18   ar
    31     3     2   ar
    32     3     4   ar
    33     8     2    1
    34    47    46   ar
    35    44    45   ar
    36     2     1   ar
    37    34    35    1
    38    16     4    1
    39    16    17   ar
    40     4     5   ar
    41    18    25    1
    42    18    17   ar
    43    25    26    1
    44    17    22    1
    45     1     5   ar
    46     1     7    1
    47    46    45   ar
    48    46    54    1
    49    45    51    1
    50     5     6    1
    51    22    23    3
    52    51    52    3
    53    54    55    1
    54    23    24    1
    55    52    53    1
    56    27    26    1
    57    26    29    1
    58    26    28    1
    59    55    56    1
    60    55    58    1
    61    55    57    1
