@<TRIPOS>MOLECULE
mol_data/opt/m06hf/geoms/mol2/13el13el13el-13el.out
 58 61 0 0 0
SMALL
GASTEIGER

@<TRIPOS>ATOM
      1 C           1.2891   -0.1651   -1.0305 C.ar    1  LIG1        0.0213
      2 C           1.0620    0.9103   -0.1948 C.ar    1  LIG1        0.0842
      3 C          -0.3252    0.8625    0.1643 C.ar    1  LIG1        0.1620
      4 C          -0.8790   -0.2270   -0.4646 C.ar    1  LIG1        0.1077
      5 N           0.1271   -0.8446   -1.1753 N.ar    1  LIG1       -0.3554
      6 H          -0.0218   -1.6197   -1.8019 H       1  LIG1        0.1655
      7 H           2.1983   -0.4719   -1.5171 H       1  LIG1        0.0820
      8 C           2.0499    1.8426    0.2601 C.1     1  LIG1       -0.0645
      9 C           2.8810    2.6222    0.6440 C.1     1  LIG1       -0.1137
     10 H           3.6179    3.3072    0.9934 H       1  LIG1        0.1232
     11 O          -0.9949    1.6767    1.0124 O.3     1  LIG1       -0.4917
     12 C          -0.9741    3.0575    0.6494 C.3     1  LIG1        0.0789
     13 H          -1.6749    3.5508    1.3189 H       1  LIG1        0.0660
     14 H           0.0278    3.4669    0.7784 H       1  LIG1        0.0660
     15 H          -1.3022    3.1696   -0.3846 H       1  LIG1        0.0660
     16 C          -2.2348   -0.7603   -0.4082 C.ar    1  LIG1        0.0862
     17 C          -3.4592   -0.1208   -0.5411 C.ar    1  LIG1        0.0937
     18 C          -4.4543   -1.1318   -0.4097 C.ar    1  LIG1        0.1627
     19 C          -3.8166   -2.3339   -0.2023 C.ar    1  LIG1        0.1082
     20 N          -2.4714   -2.0878   -0.2133 N.ar    1  LIG1       -0.3478
     21 H          -1.7731   -2.7817    0.0212 H       1  LIG1        0.1661
     22 C          -3.6962    1.2650   -0.8005 C.1     1  LIG1       -0.0638
     23 C          -3.9418    2.4214   -1.0230 C.1     1  LIG1       -0.1137
     24 H          -4.1578    3.4442   -1.2289 H       1  LIG1        0.1232
     25 O          -5.8108   -0.9838   -0.4761 O.3     1  LIG1       -0.4917
     26 C          -6.3636   -0.3845    0.7034 C.3     1  LIG1        0.0789
     27 H          -7.4401   -0.3570    0.5540 H       1  LIG1        0.0660
     28 H          -6.1187   -0.9965    1.5737 H       1  LIG1        0.0660
     29 H          -5.9656    0.6227    0.8257 H       1  LIG1        0.0660
     30 C          -4.4138   -3.6379    0.0076 C.ar    1  LIG1        0.0862
     31 C          -3.8530   -4.8643    0.3506 C.ar    1  LIG1        0.0937
     32 C          -4.9422   -5.7814    0.4437 C.ar    1  LIG1        0.1627
     33 C          -6.0992   -5.0950    0.1519 C.ar    1  LIG1        0.1081
     34 N          -5.7526   -3.7980   -0.1019 N.ar    1  LIG1       -0.3478
     35 H          -6.3872   -3.0558   -0.3871 H       1  LIG1        0.1661
     36 C          -2.4658   -5.1172    0.5844 C.1     1  LIG1       -0.0638
     37 C          -1.2934   -5.3220    0.7738 C.1     1  LIG1       -0.1137
     38 H          -0.2659   -5.5255    0.9699 H       1  LIG1        0.1232
     39 O          -4.8965   -7.1092    0.7645 O.3     1  LIG1       -0.4917
     40 C          -4.2927   -7.9108   -0.2563 C.3     1  LIG1        0.0789
     41 H          -4.3202   -8.9362    0.1042 H       1  LIG1        0.0660
     42 H          -4.8622   -7.8143   -1.1828 H       1  LIG1        0.0660
     43 H          -3.2610   -7.5965   -0.4154 H       1  LIG1        0.0660
     44 C          -7.4687   -5.5739    0.1277 C.ar    1  LIG1        0.0858
     45 C          -8.6357   -4.9375   -0.2678 C.ar    1  LIG1        0.0930
     46 C          -9.6940   -5.8824   -0.0659 C.ar    1  LIG1        0.1533
     47 C          -9.1388   -7.0289    0.4411 C.ar    1  LIG1        0.0457
     48 N          -7.7871   -6.8243    0.5419 N.ar    1  LIG1       -0.3554
     49 H          -7.0891   -7.4617    0.9013 H       1  LIG1        0.1655
     50 H          -9.6072   -7.9564    0.7149 H       1  LIG1        0.0845
     51 C          -8.7038   -3.6141   -0.8064 C.1     1  LIG1       -0.0638
     52 C          -8.7129   -2.4969   -1.2592 C.1     1  LIG1       -0.1137
     53 H          -8.7113   -1.5238   -1.6940 H       1  LIG1        0.1232
     54 O         -11.0125   -5.6947   -0.3434 O.3     1  LIG1       -0.4924
     55 C         -11.6267   -4.6921    0.4627 C.3     1  LIG1        0.0789
     56 H         -12.6677   -4.6466    0.1515 H       1  LIG1        0.0660
     57 H         -11.5593   -4.9700    1.5168 H       1  LIG1        0.0660
     58 H         -11.1468   -3.7257    0.3020 H       1  LIG1        0.0660
@<TRIPOS>BOND
     1     6     5    1
     2    53    52    1
     3     7     1    1
     4    52    51    3
     5    24    23    1
     6    42    40    1
     7     5     1   ar
     8     5     4   ar
     9     1     2   ar
    10    23    22    3
    11    51    45    1
    12    22    17    1
    13    17    18   ar
    14    17    16   ar
    15    25    18    1
    16    25    26    1
    17     4    16    1
    18     4     3   ar
    19    43    40    1
    20    18    19   ar
    21    16    20   ar
    22    35    34    1
    23    15    12    1
    24    54    46    1
    25    54    55    1
    26    45    46   ar
    27    45    44   ar
    28    40    41    1
    29    40    39    1
    30    20    19   ar
    31    20    21    1
    32    19    30    1
    33     2     3   ar
    34     2     8    1
    35    34    30   ar
    36    34    33   ar
    37    46    47   ar
    38    30    31   ar
    39    44    33    1
    40    44    48   ar
    41    56    55    1
    42    33    32   ar
    43     3    11    1
    44     8     9    3
    45    58    55    1
    46    31    32   ar
    47    31    36    1
    48    47    48   ar
    49    47    50    1
    50    32    39    1
    51    55    57    1
    52    48    49    1
    53    27    26    1
    54    36    37    3
    55     9    10    1
    56    12    14    1
    57    12    11    1
    58    12    13    1
    59    26    29    1
    60    26    28    1
    61    37    38    1
