@<TRIPOS>MOLECULE
mol_data/opt/m06hf/geoms/mol2/13el13el-13el-13el-.out
 58 61 0 0 0
SMALL
GASTEIGER

@<TRIPOS>ATOM
      1 C           0.8057    0.4856   -1.1700 C.ar    1  LIG1        0.0213
      2 C           0.1301    1.6816   -1.3349 C.ar    1  LIG1        0.0842
      3 C          -1.2426    1.4002   -1.0679 C.ar    1  LIG1        0.1620
      4 C          -1.3487    0.0622   -0.7627 C.ar    1  LIG1        0.1077
      5 N          -0.0902   -0.4697   -0.8250 N.ar    1  LIG1       -0.3554
      6 H           0.1038   -1.4432   -0.6309 H       1  LIG1        0.1655
      7 H           1.8553    0.2758   -1.2742 H       1  LIG1        0.0820
      8 C           0.6910    2.9499   -1.6905 C.1     1  LIG1       -0.0645
      9 C           1.1461    4.0196   -1.9974 C.1     1  LIG1       -0.1137
     10 H           1.5556    4.9664   -2.2629 H       1  LIG1        0.1232
     11 O          -2.3009    2.2708   -1.0936 O.3     1  LIG1       -0.4917
     12 C          -2.6229    2.7349   -2.4135 C.3     1  LIG1        0.0789
     13 H          -3.4946    3.3767   -2.3045 H       1  LIG1        0.0660
     14 H          -1.7829    3.2968   -2.8208 H       1  LIG1        0.0660
     15 H          -2.8529    1.8799   -3.0519 H       1  LIG1        0.0660
     16 C          -2.5357   -0.6915   -0.4051 C.ar    1  LIG1        0.0862
     17 C          -2.7327   -2.0322   -0.1055 C.ar    1  LIG1        0.0937
     18 C          -4.1257   -2.1908    0.1710 C.ar    1  LIG1        0.1627
     19 C          -4.7215   -0.9526    0.0375 C.ar    1  LIG1        0.1082
     20 N          -3.7306   -0.0654   -0.3138 N.ar    1  LIG1       -0.3478
     21 H          -3.8383    0.9167   -0.5401 H       1  LIG1        0.1661
     22 C          -1.7197   -3.0406   -0.0659 C.1     1  LIG1       -0.0638
     23 C          -0.8472   -3.8704   -0.0309 C.1     1  LIG1       -0.1137
     24 H          -0.1045   -4.6332    0.0069 H       1  LIG1        0.1232
     25 O          -4.7118   -3.3620    0.5163 O.3     1  LIG1       -0.4917
     26 C          -5.1055   -3.4302    1.8867 C.3     1  LIG1        0.0789
     27 H          -5.5531   -4.4114    2.0239 H       1  LIG1        0.0660
     28 H          -4.2291   -3.3172    2.5283 H       1  LIG1        0.0660
     29 H          -5.8404   -2.6548    2.1095 H       1  LIG1        0.0660
     30 C          -6.0703   -0.4520    0.2590 C.ar    1  LIG1        0.0862
     31 C          -7.3352   -1.0256    0.1678 C.ar    1  LIG1        0.0937
     32 C          -8.2674    0.0230    0.4457 C.ar    1  LIG1        0.1627
     33 C          -7.5540    1.1757    0.6750 C.ar    1  LIG1        0.1081
     34 N          -6.2308    0.8588    0.5757 N.ar    1  LIG1       -0.3478
     35 H          -5.4950    1.5198    0.7927 H       1  LIG1        0.1661
     36 C          -7.6425   -2.3796   -0.1726 C.1     1  LIG1       -0.0638
     37 C          -7.9055   -3.5159   -0.4659 C.1     1  LIG1       -0.1137
     38 H          -8.1174   -4.5259   -0.7286 H       1  LIG1        0.1232
     39 O          -9.6312   -0.0425    0.4736 O.3     1  LIG1       -0.4917
     40 C         -10.2101   -0.3009   -0.8103 C.3     1  LIG1        0.0789
     41 H         -11.2861   -0.3366   -0.6584 H       1  LIG1        0.0660
     42 H          -9.9465    0.5053   -1.4983 H       1  LIG1        0.0660
     43 H          -9.8519   -1.2561   -1.1939 H       1  LIG1        0.0660
     44 C          -7.9979    2.5274    0.9512 C.ar    1  LIG1        0.0858
     45 C          -7.2649    3.7063    0.9865 C.ar    1  LIG1        0.0930
     46 C          -8.1965    4.7440    1.2978 C.ar    1  LIG1        0.1533
     47 C          -9.4392    4.1696    1.4350 C.ar    1  LIG1        0.0457
     48 N          -9.2889    2.8187    1.2177 N.ar    1  LIG1       -0.3554
     49 H         -10.0049    2.1061    1.2503 H       1  LIG1        0.1655
     50 H         -10.3964    4.5994    1.6659 H       1  LIG1        0.0845
     51 C          -5.8577    3.8104    0.7445 C.1     1  LIG1       -0.0638
     52 C          -4.6690    3.8204    0.5365 C.1     1  LIG1       -0.1137
     53 H          -3.6164    3.8210    0.3460 H       1  LIG1        0.1232
     54 O          -7.8284    6.0387    1.4153 O.3     1  LIG1       -0.4924
     55 C          -8.8717    6.9245    1.7691 C.3     1  LIG1        0.0789
     56 H          -8.4256    7.9126    1.8398 H       1  LIG1        0.0660
     57 H          -9.6500    6.9208    1.0007 H       1  LIG1        0.0660
     58 H          -9.3011    6.6387    2.7333 H       1  LIG1        0.0660
@<TRIPOS>BOND
     1    15    12    1
     2    14    12    1
     3    12    13    1
     4    12    11    1
     5    10     9    1
     6     9     8    3
     7     8     2    1
     8    42    40    1
     9     2     1   ar
    10     2     3   ar
    11     7     1    1
    12    43    40    1
    13     1     5   ar
    14    11     3    1
    15     3     4   ar
    16     5     4   ar
    17     5     6    1
    18    40    41    1
    19    40    39    1
    20     4    16    1
    21    38    37    1
    22    21    20    1
    23    37    36    3
    24    16    20   ar
    25    16    17   ar
    26    20    19   ar
    27    36    31    1
    28    17    22    1
    29    17    18   ar
    30    22    23    3
    31    23    24    1
    32    19    18   ar
    33    19    30    1
    34    31    30   ar
    35    31    32   ar
    36    18    25    1
    37    30    34   ar
    38    53    52    1
    39    32    39    1
    40    32    33   ar
    41    25    26    1
    42    52    51    3
    43    34    33   ar
    44    34    35    1
    45    33    44    1
    46    51    45    1
    47    44    45   ar
    48    44    48   ar
    49    45    46   ar
    50    57    55    1
    51    48    49    1
    52    48    47   ar
    53    46    54    1
    54    46    47   ar
    55    54    55    1
    56    47    50    1
    57    55    56    1
    58    55    58    1
    59    26    27    1
    60    26    29    1
    61    26    28    1
