@<TRIPOS>MOLECULE
mol_data/opt/m06hf/geoms/mol2/13el4dh13fa4al.out
 52 55 0 0 0
SMALL
GASTEIGER

@<TRIPOS>ATOM
      1 C           1.2400   -0.1219    0.9705 C.ar    1  LIG1        0.0213
      2 C           1.0096    1.0485    0.2730 C.ar    1  LIG1        0.0842
      3 C          -0.3696    1.0222   -0.1195 C.ar    1  LIG1        0.1606
      4 C          -0.9129   -0.1523    0.3502 C.ar    1  LIG1        0.0913
      5 N           0.0939   -0.8389    0.9914 N.ar    1  LIG1       -0.3565
      6 H          -0.0521   -1.6945    1.5034 H       1  LIG1        0.1655
      7 H           2.1427   -0.4656    1.4435 H       1  LIG1        0.0820
      8 C           2.0040    2.0382   -0.0194 C.1     1  LIG1       -0.0645
      9 C           2.8536    2.8553   -0.2579 C.1     1  LIG1       -0.1137
     10 H           3.6067    3.5768   -0.4739 H       1  LIG1        0.1232
     11 O          -1.0522    1.9064   -0.8805 O.3     1  LIG1       -0.4918
     12 C          -0.9051    3.2808   -0.5127 C.3     1  LIG1        0.0789
     13 H          -1.6911    3.8127   -1.0420 H       1  LIG1        0.0660
     14 H          -1.0455    3.3950    0.5622 H       1  LIG1        0.0660
     15 H           0.0762    3.6448   -0.8141 H       1  LIG1        0.0660
     16 C          -3.4218    0.0169    0.3747 C.ar    1  LIG1        0.0617
     17 C          -4.6756   -0.5705    0.2160 C.ar    1  LIG1       -0.0327
     18 C          -2.2530   -0.7288    0.1689 C.ar    1  LIG1        0.0210
     19 C          -4.8024   -1.9083   -0.1527 C.ar    1  LIG1        0.0238
     20 H          -5.5686    0.0112    0.4003 H       1  LIG1        0.0638
     21 C          -2.3829   -2.0585   -0.2291 C.ar    1  LIG1       -0.0299
     22 C          -3.6316   -2.6529   -0.4061 C.ar    1  LIG1        0.0346
     23 H          -1.4883   -2.6262   -0.4592 H       1  LIG1        0.0643
     24 N          -3.3715    2.4597    1.2472 N.1     1  LIG1       -0.1908
     25 C          -3.3609    1.3856    0.8407 C.1     1  LIG1        0.0998
     26 N          -3.7317   -3.9935   -0.8211 N.pl3   1  LIG1       -0.3574
     27 H          -4.4377   -4.1226   -1.5408 H       1  LIG1        0.1423
     28 H          -2.8456   -4.3837   -1.1164 H       1  LIG1        0.1423
     29 C          -6.1371   -2.5147   -0.2460 C.ar    1  LIG1        0.0907
     30 C          -7.3696   -1.9310   -0.4732 C.ar    1  LIG1        0.1427
     31 C          -8.3657   -2.9319   -0.3744 C.ar    1  LIG1        0.0058
     32 C          -7.7105   -4.1156   -0.0816 C.ar    1  LIG1        0.0506
     33 N          -6.3814   -3.8496   -0.0151 N.ar    1  LIG1       -0.3512
     34 H          -5.6632   -4.4974    0.2817 H       1  LIG1        0.1660
     35 O          -7.5310   -0.6044   -0.7474 O.3     1  LIG1       -0.5046
     36 H          -8.4614   -0.4122   -0.8974 H       1  LIG1        0.2922
     37 H          -9.4238   -2.8184   -0.5469 H       1  LIG1        0.0675
     38 C          -9.5106   -5.6833    0.6412 C.ar    1  LIG1       -0.0524
     39 C          -9.9929   -6.9738    0.7872 C.ar    1  LIG1       -0.0577
     40 C          -8.2352   -5.4819    0.0966 C.ar    1  LIG1        0.0019
     41 C          -9.2280   -8.0811    0.4138 C.ar    1  LIG1       -0.0199
     42 H         -10.9766   -7.1344    1.2090 H       1  LIG1        0.0619
     43 C          -7.4676   -6.5770   -0.2842 C.ar    1  LIG1       -0.0108
     44 C          -7.9571   -7.8754   -0.1197 C.ar    1  LIG1        0.1207
     45 H          -6.4941   -6.4580   -0.7432 H       1  LIG1        0.0661
     46 H          -9.6267   -9.0769    0.5442 H       1  LIG1        0.0654
     47 H         -10.0966   -4.8331    0.9624 H       1  LIG1        0.0624
     48 O          -7.1272   -8.8710   -0.5230 O.3     1  LIG1       -0.4951
     49 C          -7.6038  -10.2010   -0.4554 C.3     1  LIG1        0.0788
     50 H          -6.8088  -10.8224   -0.8579 H       1  LIG1        0.0660
     51 H          -7.8083  -10.4881    0.5792 H       1  LIG1        0.0660
     52 H          -8.5071  -10.3186   -1.0594 H       1  LIG1        0.0660
@<TRIPOS>BOND
     1    27    26    1
     2    28    26    1
     3    52    49    1
     4    13    12    1
     5    36    35    1
     6    11    12    1
     7    11     3    1
     8    50    49    1
     9    26    22    1
    10    15    12    1
    11    35    30    1
    12    45    43    1
    13    37    31    1
    14    48    49    1
    15    48    44    1
    16    12    14    1
    17    10     9    1
    18    30    31   ar
    19    30    29   ar
    20    23    21    1
    21    49    51    1
    22    22    21   ar
    23    22    19   ar
    24    31    32   ar
    25    43    44   ar
    26    43    40   ar
    27     9     8    3
    28    29    19    1
    29    29    33   ar
    30    21    18   ar
    31    19    17   ar
    32    44    41   ar
    33     3     2   ar
    34     3     4   ar
    35    32    33   ar
    36    32    40    1
    37     8     2    1
    38    33    34    1
    39    40    38   ar
    40    18     4    1
    41    18    16   ar
    42    17    16   ar
    43    17    20    1
    44     2     1   ar
    45     4     5   ar
    46    16    25    1
    47    41    46    1
    48    41    39   ar
    49    38    39   ar
    50    38    47    1
    51    39    42    1
    52    25    24    3
    53     1     5   ar
    54     1     7    1
    55     5     6    1
