@<TRIPOS>MOLECULE
mol_data/opt/m06hf/geoms/mol2/13el6ll6fi-12id.out
 57 60 0 0 0
SMALL
GASTEIGER

@<TRIPOS>ATOM
      1 C           1.0635   -0.0341    0.1274 C.ar    1  LIG1        0.0179
      2 C           0.5649    0.9883    0.9071 C.ar    1  LIG1        0.0455
      3 C          -0.8637    0.8820    0.9098 C.ar    1  LIG1       -0.0084
      4 C          -1.1683   -0.2050    0.1244 C.ar    1  LIG1        0.0682
      5 N           0.0099   -0.7513   -0.3348 N.ar    1  LIG1       -0.3581
      6 H           0.0622   -1.5044   -1.0022 H       1  LIG1        0.1654
      7 H           2.0808   -0.2820   -0.1208 H       1  LIG1        0.0819
      8 C           1.3366    1.9707    1.6109 C.1     1  LIG1       -0.0679
      9 C           1.9659    2.7995    2.2134 C.1     1  LIG1       -0.1139
     10 H           2.5251    3.5327    2.7458 H       1  LIG1        0.1232
     11 C          -1.8169    1.7756    1.6562 C.3     1  LIG1       -0.0365
     12 H          -2.7963    1.3033    1.7279 H       1  LIG1        0.0279
     13 H          -1.9315    2.7267    1.1345 H       1  LIG1        0.0279
     14 H          -1.4283    1.9702    2.6562 H       1  LIG1        0.0279
     15 C          -2.4598   -0.7956   -0.2236 C.ar    1  LIG1        0.0795
     16 C          -3.6199   -0.2123   -0.7074 C.ar    1  LIG1        0.0549
     17 C          -4.5911   -1.2448   -0.9008 C.ar    1  LIG1       -0.0060
     18 C          -3.9774   -2.4200   -0.5205 C.ar    1  LIG1        0.0905
     19 N          -2.6963   -2.1313   -0.1227 N.ar    1  LIG1       -0.3493
     20 H          -2.0653   -2.8114    0.2747 H       1  LIG1        0.1661
     21 C          -3.8017    1.1740   -1.0164 C.1     1  LIG1       -0.0672
     22 C          -3.9781    2.3334   -1.2827 C.1     1  LIG1       -0.1138
     23 H          -4.1267    3.3604   -1.5213 H       1  LIG1        0.1232
     24 C          -5.9699   -1.0351   -1.4713 C.3     1  LIG1       -0.0364
     25 H          -6.4854   -1.9861   -1.5945 H       1  LIG1        0.0279
     26 H          -5.8906   -0.5329   -2.4364 H       1  LIG1        0.0279
     27 H          -6.5542   -0.3931   -0.8081 H       1  LIG1        0.0279
     28 C          -4.4349   -3.8017   -0.4524 C.ar    1  LIG1        0.1953
     29 C          -5.6508   -4.4028   -0.3469 C.ar    1  LIG1        0.1885
     30 C          -5.4136   -5.8181   -0.2355 C.ar    1  LIG1        0.1140
     31 C          -4.0619   -5.9760   -0.2541 C.ar    1  LIG1        0.1603
     32 O          -3.4693   -4.7495   -0.4028 O.2     1  LIG1       -0.4476
     33 O          -6.8964   -3.8515   -0.3371 O.3     1  LIG1       -0.4896
     34 C          -7.2273   -3.2417    0.9153 C.3     1  LIG1        0.0791
     35 H          -8.2282   -2.8323    0.7991 H       1  LIG1        0.0660
     36 H          -7.2098   -3.9938    1.7061 H       1  LIG1        0.0660
     37 H          -6.5162   -2.4446    1.1379 H       1  LIG1        0.0660
     38 N          -6.4366   -6.7650   -0.1252 N.pl3   1  LIG1       -0.3522
     39 H          -7.3181   -6.3737   -0.4392 H       1  LIG1        0.1425
     40 H          -6.2277   -7.6278   -0.6152 H       1  LIG1        0.1425
     41 C          -3.3369   -8.1527    0.7461 C.ar    1  LIG1       -0.0397
     42 C          -2.5050   -9.2725    0.6666 C.ar    1  LIG1       -0.0579
     43 C          -3.1920   -7.1649   -0.2395 C.ar    1  LIG1        0.0224
     44 C          -1.5451   -9.3960   -0.3299 C.ar    1  LIG1       -0.0586
     45 H          -2.6015  -10.0518    1.4130 H       1  LIG1        0.0620
     46 C          -2.2127   -7.2870   -1.2322 C.ar    1  LIG1       -0.0478
     47 C          -1.3752   -8.3950   -1.2900 C.ar    1  LIG1       -0.0498
     48 H          -2.1247   -6.4995   -1.9718 H       1  LIG1        0.0627
     49 H          -0.9129  -10.2762   -0.3597 H       1  LIG1        0.0620
     50 C          -4.3076   -7.9900    1.9021 C.3     1  LIG1       -0.0390
     51 H          -4.2066   -8.8292    2.5898 H       1  LIG1        0.0278
     52 H          -5.3421   -7.9250    1.5599 H       1  LIG1        0.0278
     53 H          -4.0820   -7.0662    2.4388 H       1  LIG1        0.0278
     54 C          -0.3005   -8.5188   -2.3549 C.3     1  LIG1       -0.0397
     55 H          -0.4643   -7.7958   -3.1533 H       1  LIG1        0.0278
     56 H          -0.3046   -9.5204   -2.7860 H       1  LIG1        0.0278
     57 H           0.6842   -8.3379   -1.9197 H       1  LIG1        0.0278
@<TRIPOS>BOND
     1    55    54    1
     2    56    54    1
     3    26    24    1
     4    54    57    1
     5    54    47    1
     6    48    46    1
     7    25    24    1
     8    23    22    1
     9    24    17    1
    10    24    27    1
    11    47    46   ar
    12    47    44   ar
    13    22    21    3
    14    46    43   ar
    15    21    16    1
    16     6     5    1
    17    17    16   ar
    18    17    18   ar
    19    16    15   ar
    20    40    38    1
    21    18    28    1
    22    18    19   ar
    23    28    32   ar
    24    28    29   ar
    25    39    38    1
    26    32    31   ar
    27    49    44    1
    28    29    33    1
    29    29    30   ar
    30    33    34    1
    31     5     4   ar
    32     5     1   ar
    33    44    42   ar
    34    31    43    1
    35    31    30   ar
    36    43    41   ar
    37    30    38    1
    38    15    19   ar
    39    15     4    1
    40    19    20    1
    41     7     1    1
    42     4     3   ar
    43     1     2   ar
    44    42    41   ar
    45    42    45    1
    46    41    50    1
    47    35    34    1
    48     2     3   ar
    49     2     8    1
    50     3    11    1
    51    34    37    1
    52    34    36    1
    53    13    11    1
    54    52    50    1
    55     8     9    3
    56    11    12    1
    57    11    14    1
    58    50    53    1
    59    50    51    1
    60     9    10    1
