@<TRIPOS>MOLECULE
mol_data/opt/m06hf/geoms/mol2/13el13el-13el.out
 44 46 0 0 0
SMALL
GASTEIGER

@<TRIPOS>ATOM
      1 C           1.2498   -0.4178    0.2951 C.ar    1  LIG1        0.0213
      2 C           0.8851    0.9133    0.3872 C.ar    1  LIG1        0.0842
      3 C          -0.5380    0.9419    0.2980 C.ar    1  LIG1        0.1620
      4 C          -0.9783   -0.3529    0.1488 C.ar    1  LIG1        0.1077
      5 N           0.1256   -1.1621    0.1564 N.ar    1  LIG1       -0.3554
      6 H           0.0764   -2.1668    0.0554 H       1  LIG1        0.1655
      7 H           2.2286   -0.8624    0.3238 H       1  LIG1        0.0820
      8 C           1.7500    2.0441    0.5410 C.1     1  LIG1       -0.0645
      9 C           2.4591    3.0079    0.6596 C.1     1  LIG1       -0.1137
     10 H           3.0859    3.8613    0.7763 H       1  LIG1        0.1232
     11 O          -1.3593    2.0339    0.3349 O.3     1  LIG1       -0.4917
     12 C          -1.3275    2.7952   -0.8786 C.3     1  LIG1        0.0789
     13 H          -2.0490    3.5990   -0.7534 H       1  LIG1        0.0660
     14 H          -0.3267    3.1983   -1.0348 H       1  LIG1        0.0660
     15 H          -1.6149    2.1578   -1.7175 H       1  LIG1        0.0660
     16 C          -2.3433   -0.8209   -0.0013 C.ar    1  LIG1        0.0862
     17 C          -2.8630   -2.0816   -0.2775 C.ar    1  LIG1        0.0937
     18 C          -4.2792   -1.9187   -0.3336 C.ar    1  LIG1        0.1627
     19 C          -4.5634   -0.5950   -0.0849 C.ar    1  LIG1        0.1081
     20 N          -3.3736    0.0492    0.1063 N.ar    1  LIG1       -0.3478
     21 H          -3.2605    1.0313    0.3478 H       1  LIG1        0.1661
     22 C          -2.1092   -3.2800   -0.4740 C.1     1  LIG1       -0.0638
     23 C          -1.4658   -4.2872   -0.6283 C.1     1  LIG1       -0.1137
     24 H          -0.9235   -5.1906   -0.7857 H       1  LIG1        0.1232
     25 O          -5.2212   -2.8765   -0.5857 O.3     1  LIG1       -0.4917
     26 C          -5.4142   -3.7693    0.5167 C.3     1  LIG1        0.0789
     27 H          -6.1698   -4.4851    0.2017 H       1  LIG1        0.0660
     28 H          -4.4809   -4.2846    0.7452 H       1  LIG1        0.0660
     29 H          -5.7568   -3.2078    1.3883 H       1  LIG1        0.0660
     30 C          -5.8489    0.0766   -0.0427 C.ar    1  LIG1        0.0858
     31 C          -6.1709    1.3761    0.3196 C.ar    1  LIG1        0.0930
     32 C          -7.5906    1.4941    0.1630 C.ar    1  LIG1        0.1533
     33 C          -8.0627    0.2884   -0.2870 C.ar    1  LIG1        0.0457
     34 N          -6.9915   -0.5608   -0.3959 N.ar    1  LIG1       -0.3554
     35 H          -6.9908   -1.5159   -0.7287 H       1  LIG1        0.1655
     36 H          -9.0684   -0.0139   -0.5156 H       1  LIG1        0.0845
     37 C          -5.2332    2.3475    0.7916 C.1     1  LIG1       -0.0638
     38 C          -4.4066    3.1318    1.1849 C.1     1  LIG1       -0.1137
     39 H          -3.6765    3.8077    1.5675 H       1  LIG1        0.1232
     40 O          -8.3514    2.5887    0.4348 O.3     1  LIG1       -0.4924
     41 C          -8.0536    3.7138   -0.3883 C.3     1  LIG1        0.0789
     42 H          -8.7416    4.5005   -0.0873 H       1  LIG1        0.0660
     43 H          -7.0241    4.0395   -0.2335 H       1  LIG1        0.0660
     44 H          -8.2087    3.4577   -1.4387 H       1  LIG1        0.0660
@<TRIPOS>BOND
     1    15    12    1
     2    44    41    1
     3    14    12    1
     4    12    13    1
     5    12    11    1
     6    24    23    1
     7    35    34    1
     8    23    22    3
     9    25    18    1
    10    25    26    1
    11    36    33    1
    12    22    17    1
    13    34    33   ar
    14    34    30   ar
    15    41    43    1
    16    41    42    1
    17    41    40    1
    18    18    17   ar
    19    18    19   ar
    20    33    32   ar
    21    17    16   ar
    22    19    30    1
    23    19    20   ar
    24    30    31   ar
    25    16    20   ar
    26    16     4    1
    27     6     5    1
    28    20    21    1
    29     4     5   ar
    30     4     3   ar
    31     5     1   ar
    32    32    31   ar
    33    32    40    1
    34    27    26    1
    35     1     7    1
    36     1     2   ar
    37     3    11    1
    38     3     2   ar
    39    31    37    1
    40     2     8    1
    41    26    28    1
    42    26    29    1
    43     8     9    3
    44     9    10    1
    45    37    38    3
    46    38    39    1
