@<TRIPOS>MOLECULE
mol_data/opt/m06hf/geoms/mol2/13el13el13el-13el-.out
 58 61 0 0 0
SMALL
GASTEIGER

@<TRIPOS>ATOM
      1 C           0.7757    0.4638   -1.5703 C.ar    1  LIG1        0.0213
      2 C           0.8218    1.0818   -0.3364 C.ar    1  LIG1        0.0842
      3 C          -0.3904    0.7294    0.3424 C.ar    1  LIG1        0.1620
      4 C          -1.1180   -0.0783   -0.4993 C.ar    1  LIG1        0.1077
      5 N          -0.3804   -0.2363   -1.6525 N.ar    1  LIG1       -0.3554
      6 H          -0.7195   -0.7060   -2.4772 H       1  LIG1        0.1655
      7 H           1.4902    0.4886   -2.3740 H       1  LIG1        0.0820
      8 C           1.9066    1.8678    0.1708 C.1     1  LIG1       -0.0645
      9 C           2.8178    2.5247    0.6000 C.1     1  LIG1       -0.1137
     10 H           3.6290    3.0969    0.9858 H       1  LIG1        0.1232
     11 O          -0.7645    1.0606    1.6003 O.3     1  LIG1       -0.4917
     12 C          -0.8711    2.4662    1.8293 C.3     1  LIG1        0.0789
     13 H          -1.3161    2.5737    2.8156 H       1  LIG1        0.0660
     14 H           0.1161    2.9281    1.8056 H       1  LIG1        0.0660
     15 H          -1.5204    2.9124    1.0753 H       1  LIG1        0.0660
     16 C          -2.3948   -0.7524   -0.2962 C.ar    1  LIG1        0.0862
     17 C          -3.5954   -0.2786    0.2143 C.ar    1  LIG1        0.0937
     18 C          -4.5086   -1.3718    0.1677 C.ar    1  LIG1        0.1627
     19 C          -3.8484   -2.4572   -0.3608 C.ar    1  LIG1        0.1082
     20 N          -2.5707   -2.0579   -0.6421 N.ar    1  LIG1       -0.3478
     21 H          -1.8396   -2.6919   -0.9391 H       1  LIG1        0.1661
     22 C          -3.8960    1.0441    0.6651 C.1     1  LIG1       -0.0638
     23 C          -4.2002    2.1414    1.0517 C.1     1  LIG1       -0.1137
     24 H          -4.4717    3.1149    1.3874 H       1  LIG1        0.1232
     25 O          -5.8128   -1.3855    0.5702 O.3     1  LIG1       -0.4917
     26 C          -5.9470   -1.4165    1.9972 C.3     1  LIG1        0.0789
     27 H          -7.0139   -1.4477    2.2041 H       1  LIG1        0.0660
     28 H          -5.4620   -2.3122    2.3899 H       1  LIG1        0.0660
     29 H          -5.4979   -0.5218    2.4286 H       1  LIG1        0.0660
     30 C          -4.3557   -3.7979   -0.5774 C.ar    1  LIG1        0.0862
     31 C          -3.7034   -4.9811   -0.9111 C.ar    1  LIG1        0.0937
     32 C          -4.7121   -5.9882   -0.9501 C.ar    1  LIG1        0.1627
     33 C          -5.9158   -5.3935   -0.6448 C.ar    1  LIG1        0.1081
     34 N          -5.6736   -4.0657   -0.4296 N.ar    1  LIG1       -0.3478
     35 H          -6.3762   -3.3650   -0.2023 H       1  LIG1        0.1661
     36 C          -2.3039   -5.1268   -1.1635 C.1     1  LIG1       -0.0638
     37 C          -1.1219   -5.2394   -1.3700 C.1     1  LIG1       -0.1137
     38 H          -0.0799   -5.3653   -1.5544 H       1  LIG1        0.1232
     39 O          -4.5574   -7.3197   -1.2196 O.3     1  LIG1       -0.4917
     40 C          -3.8623   -8.0212   -0.1831 C.3     1  LIG1        0.0789
     41 H          -3.8117   -9.0607   -0.4985 H       1  LIG1        0.0660
     42 H          -2.8572   -7.6153   -0.0663 H       1  LIG1        0.0660
     43 H          -4.4151   -7.9304    0.7546 H       1  LIG1        0.0660
     44 C          -7.2345   -5.9912   -0.5487 C.ar    1  LIG1        0.0858
     45 C          -8.4557   -5.4200   -0.2240 C.ar    1  LIG1        0.0930
     46 C          -9.4166   -6.4761   -0.2718 C.ar    1  LIG1        0.1533
     47 C          -8.7576   -7.6323   -0.6193 C.ar    1  LIG1        0.0457
     48 N          -7.4297   -7.3094   -0.7800 N.ar    1  LIG1       -0.3554
     49 H          -6.6811   -7.9158   -1.0869 H       1  LIG1        0.1655
     50 H          -9.1146   -8.6350   -0.7655 H       1  LIG1        0.0845
     51 C          -8.6791   -4.0360    0.0519 C.1     1  LIG1       -0.0638
     52 C          -8.8234   -2.8572    0.2534 C.1     1  LIG1       -0.1137
     53 H          -8.9699   -1.8119    0.3998 H       1  LIG1        0.1232
     54 O         -10.7269   -6.2768   -0.0077 O.3     1  LIG1       -0.4924
     55 C         -11.5345   -7.4341   -0.0837 C.3     1  LIG1        0.0789
     56 H         -12.5472   -7.1182    0.1502 H       1  LIG1        0.0660
     57 H         -11.4995   -7.8571   -1.0918 H       1  LIG1        0.0660
     58 H         -11.1986   -8.1800    0.6423 H       1  LIG1        0.0660
@<TRIPOS>BOND
     1     6     5    1
     2     7     1    1
     3     5     1   ar
     4     5     4   ar
     5     1     2   ar
     6    38    37    1
     7    37    36    3
     8    39    32    1
     9    39    40    1
    10    36    31    1
    11    57    55    1
    12    49    48    1
    13    32    31   ar
    14    32    33   ar
    15    21    20    1
    16    31    30   ar
    17    48    47   ar
    18    48    44   ar
    19    50    47    1
    20    33    44    1
    21    33    34   ar
    22    20    19   ar
    23    20    16   ar
    24    47    46   ar
    25    30    34   ar
    26    30    19    1
    27    44    45   ar
    28     4    16    1
    29     4     3   ar
    30    41    40    1
    31    34    35    1
    32    19    18   ar
    33     2     8    1
    34     2     3   ar
    35    16    17   ar
    36    46    45   ar
    37    46    54    1
    38    45    51    1
    39    40    42    1
    40    40    43    1
    41    55    54    1
    42    55    56    1
    43    55    58    1
    44    51    52    3
    45    18    17   ar
    46    18    25    1
    47     8     9    3
    48    17    22    1
    49    52    53    1
    50     3    11    1
    51    25    26    1
    52     9    10    1
    53    22    23    3
    54    23    24    1
    55    15    12    1
    56    11    12    1
    57    14    12    1
    58    12    13    1
    59    26    27    1
    60    26    28    1
    61    26    29    1
