@<TRIPOS>MOLECULE
mol_data/opt/m06hf/geoms/mol2/13el13el-.out
 30 31 0 0 0
SMALL
GASTEIGER

@<TRIPOS>ATOM
      1 C           1.2325   -0.3444   -0.0004 C.ar    1  LIG1        0.0213
      2 C           0.8687    0.9945   -0.0001 C.ar    1  LIG1        0.0842
      3 C          -0.5631    1.0111    0.0004 C.ar    1  LIG1        0.1620
      4 C          -0.9954   -0.2969    0.0004 C.ar    1  LIG1        0.1077
      5 N           0.1163   -1.0980   -0.0001 N.ar    1  LIG1       -0.3554
      6 H           0.0626   -2.1088   -0.0003 H       1  LIG1        0.1655
      7 H           2.2190   -0.7722   -0.0009 H       1  LIG1        0.0820
      8 C           1.8159    2.0713   -0.0002 C.1     1  LIG1       -0.0645
      9 C           2.6360    2.9511   -0.0004 C.1     1  LIG1       -0.1137
     10 H           3.3614    3.7312   -0.0005 H       1  LIG1        0.1232
     11 O          -1.4519    2.0438    0.0009 O.3     1  LIG1       -0.4917
     12 C          -0.9147    3.3605    0.0009 C.3     1  LIG1        0.0789
     13 H          -1.7719    4.0291    0.0013 H       1  LIG1        0.0660
     14 H          -0.3082    3.5208    0.8923 H       1  LIG1        0.0660
     15 H          -0.3089    3.5210   -0.8910 H       1  LIG1        0.0660
     16 C          -2.3510   -0.8156    0.0008 C.ar    1  LIG1        0.0857
     17 C          -2.8152   -2.1242    0.0007 C.ar    1  LIG1        0.0930
     18 C          -4.2413   -2.0457    0.0012 C.ar    1  LIG1        0.1533
     19 C          -4.5915   -0.7166    0.0016 C.ar    1  LIG1        0.0457
     20 N          -3.4218    0.0086    0.0013 N.ar    1  LIG1       -0.3554
     21 H          -3.3229    1.0146    0.0014 H       1  LIG1        0.1655
     22 H          -5.5518   -0.2356    0.0020 H       1  LIG1        0.0845
     23 C          -2.0167   -3.3086    0.0002 C.1     1  LIG1       -0.0638
     24 C          -1.3280   -4.2975   -0.0002 C.1     1  LIG1       -0.1137
     25 H          -0.7559   -5.1962   -0.0005 H       1  LIG1        0.1232
     26 O          -5.0245   -3.1476    0.0013 O.3     1  LIG1       -0.4924
     27 C          -6.4144   -2.8933    0.0019 C.3     1  LIG1        0.0789
     28 H          -6.9046   -3.8630    0.0019 H       1  LIG1        0.0660
     29 H          -6.6976   -2.3315    0.8970 H       1  LIG1        0.0660
     30 H          -6.6982   -2.3311   -0.8929 H       1  LIG1        0.0660
@<TRIPOS>BOND
     1    30    27    1
     2    15    12    1
     3     7     1    1
     4    10     9    1
     5    25    24    1
     6     1     5   ar
     7     1     2   ar
     8     9     8    3
     9     6     5    1
    10     8     2    1
    11    24    23    3
    12     5     4   ar
    13     2     3   ar
    14    23    17    1
    15     4     3   ar
    16     4    16    1
    17     3    11    1
    18    17    16   ar
    19    17    18   ar
    20    16    20   ar
    21    12    11    1
    22    12    13    1
    23    12    14    1
    24    18    26    1
    25    18    19   ar
    26    20    21    1
    27    20    19   ar
    28    26    27    1
    29    19    22    1
    30    27    28    1
    31    27    29    1
