@<TRIPOS>MOLECULE
mol_data/opt/m06hf/geoms/mol2/13el13el.out
 30 31 0 0 0
SMALL
GASTEIGER

@<TRIPOS>ATOM
      1 C           0.5122    1.1250   -1.6236 C.ar    1  LIG1        0.0213
      2 C           0.9589    1.2618   -0.3218 C.ar    1  LIG1        0.0842
      3 C          -0.1122    0.8210    0.5125 C.ar    1  LIG1        0.1620
      4 C          -1.1550    0.4448   -0.3012 C.ar    1  LIG1        0.1077
      5 N          -0.7489    0.6325   -1.5947 N.ar    1  LIG1       -0.3554
      6 H          -1.3355    0.4250   -2.3920 H       1  LIG1        0.1655
      7 H           1.0202    1.3454   -2.5455 H       1  LIG1        0.0820
      8 C           2.2416    1.7331    0.1047 C.1     1  LIG1       -0.0645
      9 C           3.3127    2.1333    0.4766 C.1     1  LIG1       -0.1137
     10 H           4.2662    2.4771    0.8039 H       1  LIG1        0.1232
     11 O          -0.1437    0.7549    1.8779 O.3     1  LIG1       -0.4917
     12 C          -0.1293    2.0422    2.5043 C.3     1  LIG1        0.0789
     13 H          -0.1307    1.8603    3.5764 H       1  LIG1        0.0660
     14 H           0.7711    2.5846    2.2164 H       1  LIG1        0.0660
     15 H          -1.0184    2.6032    2.2086 H       1  LIG1        0.0660
     16 C          -2.4574   -0.0778    0.0739 C.ar    1  LIG1        0.0857
     17 C          -3.5709   -0.3893   -0.6916 C.ar    1  LIG1        0.0930
     18 C          -4.5626   -0.8744    0.2223 C.ar    1  LIG1        0.1533
     19 C          -4.0251   -0.8332    1.4823 C.ar    1  LIG1        0.0457
     20 N          -2.7465   -0.3527    1.3689 N.ar    1  LIG1       -0.3554
     21 H          -2.0578   -0.2354    2.1012 H       1  LIG1        0.1655
     22 H          -4.4550   -1.1243    2.4232 H       1  LIG1        0.0845
     23 C          -3.6725   -0.2730   -2.1131 C.1     1  LIG1       -0.0638
     24 C          -3.7505   -0.1694   -3.3115 C.1     1  LIG1       -0.1137
     25 H          -3.8488   -0.0948   -4.3697 H       1  LIG1        0.1232
     26 O          -5.8098   -1.3134   -0.0983 O.3     1  LIG1       -0.4924
     27 C          -6.6769   -0.2792   -0.5567 C.3     1  LIG1        0.0789
     28 H          -7.6308   -0.7545   -0.7725 H       1  LIG1        0.0660
     29 H          -6.7981    0.4774    0.2218 H       1  LIG1        0.0660
     30 H          -6.2762    0.1815   -1.4611 H       1  LIG1        0.0660
@<TRIPOS>BOND
     1    25    24    1
     2    24    23    3
     3     7     1    1
     4     6     5    1
     5    23    17    1
     6     1     5   ar
     7     1     2   ar
     8     5     4   ar
     9    30    27    1
    10    28    27    1
    11    17    16   ar
    12    17    18   ar
    13    27    26    1
    14    27    29    1
    15     2     8    1
    16     2     3   ar
    17     4    16    1
    18     4     3   ar
    19    26    18    1
    20    16    20   ar
    21     8     9    3
    22    18    19   ar
    23     9    10    1
    24     3    11    1
    25    20    19   ar
    26    20    21    1
    27    19    22    1
    28    11    12    1
    29    15    12    1
    30    14    12    1
    31    12    13    1
