@<TRIPOS>MOLECULE
mol_data/opt/m06hf/geoms/mol2/13el13el13el.out
 44 46 0 0 0
SMALL
GASTEIGER

@<TRIPOS>ATOM
      1 C           1.1099   -0.1197   -1.3883 C.ar    1  LIG1        0.0213
      2 C           1.0424    0.9116   -0.4729 C.ar    1  LIG1        0.0842
      3 C          -0.2879    0.8971    0.0615 C.ar    1  LIG1        0.1620
      4 C          -0.9678   -0.1313   -0.5453 C.ar    1  LIG1        0.1077
      5 N          -0.0916   -0.7442   -1.4148 N.ar    1  LIG1       -0.3554
      6 H          -0.3601   -1.4641   -2.0673 H       1  LIG1        0.1655
      7 H           1.9332   -0.4317   -2.0064 H       1  LIG1        0.0820
      8 C           2.1217    1.7761   -0.0995 C.1     1  LIG1       -0.0645
      9 C           3.0304    2.4978    0.2152 C.1     1  LIG1       -0.1137
     10 H           3.8394    3.1283    0.5017 H       1  LIG1        0.1232
     11 O          -0.8035    1.6934    1.0269 O.3     1  LIG1       -0.4917
     12 C          -0.8010    3.0849    0.7020 C.3     1  LIG1        0.0789
     13 H          -1.3540    3.5776    1.4982 H       1  LIG1        0.0660
     14 H           0.2219    3.4604    0.6619 H       1  LIG1        0.0660
     15 H          -1.3032    3.2381   -0.2536 H       1  LIG1        0.0660
     16 C          -2.3280   -0.6162   -0.3348 C.ar    1  LIG1        0.0862
     17 C          -3.5391    0.0555   -0.3479 C.ar    1  LIG1        0.0937
     18 C          -4.5537   -0.9207   -0.1014 C.ar    1  LIG1        0.1627
     19 C          -3.9377   -2.1403    0.0575 C.ar    1  LIG1        0.1081
     20 N          -2.5873   -1.9308   -0.0942 N.ar    1  LIG1       -0.3478
     21 H          -1.8831   -2.6499   -0.0292 H       1  LIG1        0.1661
     22 C          -3.7502    1.4479   -0.5966 C.1     1  LIG1       -0.0638
     23 C          -3.9734    2.6116   -0.8031 C.1     1  LIG1       -0.1137
     24 H          -4.1782    3.6387   -0.9968 H       1  LIG1        0.1232
     25 O          -5.8892   -0.7027   -0.0301 O.3     1  LIG1       -0.4917
     26 C          -6.2854    0.0152    1.1373 C.3     1  LIG1        0.0789
     27 H          -7.3678    0.1034    1.0852 H       1  LIG1        0.0660
     28 H          -5.9958   -0.5422    2.0310 H       1  LIG1        0.0660
     29 H          -5.8267    1.0050    1.1486 H       1  LIG1        0.0660
     30 C          -4.5058   -3.4554    0.3388 C.ar    1  LIG1        0.0858
     31 C          -5.5309   -4.1341   -0.2940 C.ar    1  LIG1        0.0930
     32 C          -5.6623   -5.3914    0.3798 C.ar    1  LIG1        0.1533
     33 C          -4.7289   -5.4321    1.3819 C.ar    1  LIG1        0.0457
     34 N          -4.0273   -4.2552    1.3356 N.ar    1  LIG1       -0.3554
     35 H          -3.3402   -3.9600    2.0106 H       1  LIG1        0.1655
     36 H          -4.5168   -6.2070    2.0966 H       1  LIG1        0.0845
     37 C          -6.2648   -3.6809   -1.4349 C.1     1  LIG1       -0.0638
     38 C          -6.8860   -3.3033   -2.3918 C.1     1  LIG1       -0.1137
     39 H          -7.4276   -2.9584   -3.2411 H       1  LIG1        0.1232
     40 O          -6.5300   -6.3921    0.0706 O.3     1  LIG1       -0.4924
     41 C          -7.8976   -6.0461    0.2805 C.3     1  LIG1        0.0789
     42 H          -8.4786   -6.9213    0.0003 H       1  LIG1        0.0660
     43 H          -8.0621   -5.8046    1.3331 H       1  LIG1        0.0660
     44 H          -8.1753   -5.1958   -0.3437 H       1  LIG1        0.0660
@<TRIPOS>BOND
     1    39    38    1
     2    38    37    3
     3     6     5    1
     4     7     1    1
     5    37    31    1
     6     5     1   ar
     7     5     4   ar
     8     1     2   ar
     9    24    23    1
    10    23    22    3
    11    22    17    1
    12     4    16    1
    13     4     3   ar
    14     2     8    1
    15     2     3   ar
    16    17    16   ar
    17    17    18   ar
    18    44    41    1
    19    16    20   ar
    20    31    30   ar
    21    31    32   ar
    22    15    12    1
    23    18    25    1
    24    18    19   ar
    25     8     9    3
    26    20    21    1
    27    20    19   ar
    28    25    26    1
    29    42    41    1
    30    19    30    1
    31     3    11    1
    32    40    41    1
    33    40    32    1
    34     9    10    1
    35    41    43    1
    36    30    34   ar
    37    32    33   ar
    38    14    12    1
    39    12    11    1
    40    12    13    1
    41    27    26    1
    42    26    29    1
    43    26    28    1
    44    34    33   ar
    45    34    35    1
    46    33    36    1
