@<TRIPOS>MOLECULE
mol_data/opt/m06hf/geoms/mol2/13el13el-13el13el-.out
 58 61 0 0 0
SMALL
GASTEIGER

@<TRIPOS>ATOM
      1 C           1.3688   -0.3125   -0.0134 C.ar    1  LIG1        0.0213
      2 C           0.9645    1.0063   -0.1184 C.ar    1  LIG1        0.0842
      3 C          -0.4609    0.9839   -0.1402 C.ar    1  LIG1        0.1620
      4 C          -0.8639   -0.3279   -0.0403 C.ar    1  LIG1        0.1077
      5 N           0.2654   -1.0977    0.0282 N.ar    1  LIG1       -0.3554
      6 H           0.2421   -2.1053    0.1078 H       1  LIG1        0.1655
      7 H           2.3635   -0.7194    0.0286 H       1  LIG1        0.0820
      8 C           1.8009    2.1659   -0.1929 C.1     1  LIG1       -0.0645
      9 C           2.4908    3.1490   -0.2483 C.1     1  LIG1       -0.1137
     10 H           3.1049    4.0170   -0.3089 H       1  LIG1        0.1232
     11 O          -1.3153    2.0471   -0.2336 O.3     1  LIG1       -0.4917
     12 C          -1.4104    2.7935    0.9854 C.3     1  LIG1        0.0789
     13 H          -2.1408    3.5788    0.8051 H       1  LIG1        0.0660
     14 H          -1.7506    2.1391    1.7903 H       1  LIG1        0.0660
     15 H          -0.4393    3.2234    1.2318 H       1  LIG1        0.0660
     16 C          -2.2174   -0.8483   -0.0088 C.ar    1  LIG1        0.0862
     17 C          -2.7074   -2.1328    0.2068 C.ar    1  LIG1        0.0937
     18 C          -4.1285   -2.0269    0.1460 C.ar    1  LIG1        0.1627
     19 C          -4.4422   -0.7105   -0.1100 C.ar    1  LIG1        0.1082
     20 N          -3.2683   -0.0166   -0.1936 N.ar    1  LIG1       -0.3478
     21 H          -3.1727    0.9721   -0.4114 H       1  LIG1        0.1661
     22 C          -1.9242   -3.3042    0.4478 C.1     1  LIG1       -0.0638
     23 C          -1.2541   -4.2873    0.6379 C.1     1  LIG1       -0.1137
     24 H          -0.6864   -5.1700    0.8222 H       1  LIG1        0.1232
     25 O          -5.0518   -3.0208    0.3005 O.3     1  LIG1       -0.4917
     26 C          -5.1721   -3.8583   -0.8562 C.3     1  LIG1        0.0789
     27 H          -5.9924   -4.5423   -0.6529 H       1  LIG1        0.0660
     28 H          -5.3999   -3.2456   -1.7303 H       1  LIG1        0.0660
     29 H          -4.2434   -4.4081   -1.0133 H       1  LIG1        0.0660
     30 C          -5.7492   -0.1078   -0.2714 C.ar    1  LIG1        0.0862
     31 C          -6.1114    1.1788   -0.6587 C.ar    1  LIG1        0.0937
     32 C          -7.5370    1.1989   -0.6634 C.ar    1  LIG1        0.1627
     33 C          -7.9794   -0.0471   -0.2786 C.ar    1  LIG1        0.1081
     34 N          -6.8766   -0.8229   -0.0530 N.ar    1  LIG1       -0.3478
     35 H          -6.8898   -1.7832    0.2816 H       1  LIG1        0.1661
     36 C          -5.1954    2.2218   -1.0007 C.1     1  LIG1       -0.0638
     37 C          -4.3839    3.0677   -1.2801 C.1     1  LIG1       -0.1137
     38 H          -3.6608    3.7986   -1.5618 H       1  LIG1        0.1232
     39 O          -8.3599    2.2423   -0.9843 O.3     1  LIG1       -0.4917
     40 C          -8.3592    3.2754    0.0059 C.3     1  LIG1        0.0789
     41 H          -9.0265    4.0520   -0.3602 H       1  LIG1        0.0660
     42 H          -8.7204    2.8741    0.9548 H       1  LIG1        0.0660
     43 H          -7.3517    3.6742    0.1267 H       1  LIG1        0.0660
     44 C          -9.3373   -0.5360   -0.1328 C.ar    1  LIG1        0.0858
     45 C          -9.8027   -1.7481    0.3555 C.ar    1  LIG1        0.0930
     46 C         -11.2273   -1.6957    0.2634 C.ar    1  LIG1        0.1533
     47 C         -11.5723   -0.4756   -0.2697 C.ar    1  LIG1        0.0457
     48 N         -10.4025    0.2118   -0.4997 N.ar    1  LIG1       -0.3554
     49 H         -10.2985    1.1243   -0.9210 H       1  LIG1        0.1655
     50 H         -12.5306   -0.0486   -0.5008 H       1  LIG1        0.0845
     51 C          -8.9858   -2.8072    0.8583 C.1     1  LIG1       -0.0638
     52 C          -8.2532   -3.6662    1.2789 C.1     1  LIG1       -0.1137
     53 H          -7.6152   -4.4193    1.6803 H       1  LIG1        0.1232
     54 O         -12.0183   -2.7160    0.6637 O.3     1  LIG1       -0.4924
     55 C         -13.4042   -2.4973    0.4949 C.3     1  LIG1        0.0789
     56 H         -13.9041   -3.3921    0.8551 H       1  LIG1        0.0660
     57 H         -13.7260   -1.6296    1.0782 H       1  LIG1        0.0660
     58 H         -13.6378   -2.3384   -0.5620 H       1  LIG1        0.0660
@<TRIPOS>BOND
     1    28    26    1
     2    38    37    1
     3    37    36    3
     4    29    26    1
     5    36    31    1
     6    39    32    1
     7    39    40    1
     8    49    48    1
     9    26    27    1
    10    26    25    1
    11    32    31   ar
    12    32    33   ar
    13    31    30   ar
    14    58    55    1
    15    50    47    1
    16    48    47   ar
    17    48    44   ar
    18    21    20    1
    19    41    40    1
    20    10     9    1
    21    33    44    1
    22    33    34   ar
    23    30    19    1
    24    30    34   ar
    25    47    46   ar
    26     9     8    3
    27    11     3    1
    28    11    12    1
    29    20    19   ar
    30    20    16   ar
    31     8     2    1
    32     3     2   ar
    33     3     4   ar
    34    44    45   ar
    35     2     1   ar
    36    19    18   ar
    37    34    35    1
    38     4    16    1
    39     4     5   ar
    40     1     5   ar
    41     1     7    1
    42    16    17   ar
    43    40    43    1
    44    40    42    1
    45     5     6    1
    46    18    17   ar
    47    18    25    1
    48    17    22    1
    49    46    45   ar
    50    46    54    1
    51    45    51    1
    52    22    23    3
    53    55    54    1
    54    55    56    1
    55    55    57    1
    56    23    24    1
    57    13    12    1
    58    51    52    3
    59    12    15    1
    60    12    14    1
    61    52    53    1
