@<TRIPOS>MOLECULE
mol_data/opt/m06hf/geoms/mol2/13fa13fa.out
 20 21 0 0 0
SMALL
GASTEIGER

@<TRIPOS>ATOM
      1 C           1.2018   -0.2698   -0.0007 C.ar    1  LIG1        0.0442
      2 C           0.7308    1.0167    0.0001 C.ar    1  LIG1        0.1347
      3 C          -0.6897    0.9743    0.0007 C.ar    1  LIG1        0.0067
      4 C          -1.0452   -0.3599    0.0002 C.ar    1  LIG1        0.0700
      5 N           0.1033   -1.0976   -0.0007 N.ar    1  LIG1       -0.3564
      6 H           0.1624   -2.1004   -0.0017 H       1  LIG1        0.1655
      7 H           2.2086   -0.6440   -0.0013 H       1  LIG1        0.0844
      8 O           1.5360    2.1215    0.0003 O.3     1  LIG1       -0.5053
      9 H           0.9876    2.9117    0.0008 H       1  LIG1        0.2922
     10 H          -1.3843    1.7981    0.0015 H       1  LIG1        0.0676
     11 C          -2.3828   -0.9419    0.0005 C.ar    1  LIG1        0.1050
     12 C          -3.5997   -0.2977    0.0001 C.ar    1  LIG1        0.1434
     13 C          -4.6304   -1.2762    0.0006 C.ar    1  LIG1       -0.0021
     14 C          -4.0042   -2.4998    0.0012 C.ar    1  LIG1        0.0058
     15 N          -2.6594   -2.2905    0.0012 N.ar    1  LIG1       -0.3566
     16 H          -1.9746   -3.0265    0.0018 H       1  LIG1        0.1655
     17 H          -4.4149   -3.4939    0.0017 H       1  LIG1        0.0808
     18 O          -3.7223    1.0636   -0.0005 O.3     1  LIG1       -0.5046
     19 H          -4.6531    1.3056   -0.0012 H       1  LIG1        0.2922
     20 H          -5.6940   -1.1014    0.0005 H       1  LIG1        0.0669
@<TRIPOS>BOND
     1     6     5    1
     2     7     1    1
     3    19    18    1
     4     1     5   ar
     5     1     2   ar
     6     5     4   ar
     7    18    12    1
     8     2     8    1
     9     2     3   ar
    10    12    11   ar
    11    12    13   ar
    12     4    11    1
    13     4     3   ar
    14     8     9    1
    15    11    15   ar
    16    20    13    1
    17    13    14   ar
    18     3    10    1
    19    14    15   ar
    20    14    17    1
    21    15    16    1
