@<TRIPOS>MOLECULE
mol_data/opt/m06hf/geoms/mol2/13fa13id6fl12dh.out
 47 50 0 0 0
SMALL
GASTEIGER

@<TRIPOS>ATOM
      1 C           1.2725    0.0949    0.4432 C.ar    1  LIG1        0.0442
      2 C           0.9601    1.0788   -0.4614 C.ar    1  LIG1        0.1347
      3 C          -0.4235    0.9736   -0.7708 C.ar    1  LIG1        0.0066
      4 C          -0.9131   -0.0817   -0.0289 C.ar    1  LIG1        0.0667
      5 N           0.1207   -0.6059    0.6903 N.ar    1  LIG1       -0.3564
      6 H           0.0156   -1.3207    1.3924 H       1  LIG1        0.1655
      7 H           2.2098   -0.1418    0.9118 H       1  LIG1        0.0844
      8 O           1.8693    1.9681   -0.9569 O.3     1  LIG1       -0.5053
      9 H           1.4290    2.5823   -1.5515 H       1  LIG1        0.2922
     10 H          -0.9901    1.5633   -1.4738 H       1  LIG1        0.0676
     11 C          -2.2626   -0.6432    0.0495 C.ar    1  LIG1        0.0676
     12 C          -3.4830   -0.0202    0.1978 C.ar    1  LIG1       -0.0058
     13 C          -4.4489   -1.0656    0.2281 C.ar    1  LIG1        0.0807
     14 C          -3.7922   -2.2890    0.1056 C.ar    1  LIG1        0.0700
     15 N          -2.4726   -1.9948   -0.0021 N.ar    1  LIG1       -0.3516
     16 H          -1.7676   -2.7013   -0.1718 H       1  LIG1        0.1660
     17 C          -3.7545    1.4549    0.3281 C.3     1  LIG1       -0.0364
     18 H          -4.4948    1.6315    1.1089 H       1  LIG1        0.0279
     19 H          -4.1425    1.8583   -0.6087 H       1  LIG1        0.0279
     20 H          -2.8310    1.9742    0.5820 H       1  LIG1        0.0279
     21 N          -6.9892   -0.6962    0.5121 N.1     1  LIG1       -0.1908
     22 C          -5.8577   -0.8579    0.3837 C.1     1  LIG1        0.1016
     23 C          -3.4828   -4.7905   -0.0622 C.ar    1  LIG1        0.2226
     24 C          -4.3136   -3.6631    0.0765 C.ar    1  LIG1        0.0644
     25 C          -5.6784   -3.9222    0.1865 C.ar    1  LIG1       -0.0035
     26 C          -6.1525   -5.2307    0.1531 C.ar    1  LIG1        0.1499
     27 C          -5.2293   -6.2673   -0.0167 C.ar    1  LIG1        0.1525
     28 N          -3.9222   -6.0231   -0.1094 N.ar    1  LIG1       -0.2056
     29 H          -6.3739   -3.1057    0.3117 H       1  LIG1        0.0663
     30 O          -2.1341   -4.6260   -0.1620 O.3     1  LIG1       -0.4919
     31 H          -1.7491   -5.5061   -0.2753 H       1  LIG1        0.2937
     32 O          -7.4436   -5.5735    0.2900 O.3     1  LIG1       -0.4928
     33 C          -8.4383   -4.5586    0.2140 C.3     1  LIG1        0.0789
     34 H          -9.3849   -5.0902    0.1944 H       1  LIG1        0.0660
     35 H          -8.3833   -3.9041    1.0863 H       1  LIG1        0.0660
     36 H          -8.3158   -3.9772   -0.7020 H       1  LIG1        0.0660
     37 C          -5.6450   -7.6788   -0.0765 C.ar    1  LIG1        0.1758
     38 C          -6.8100   -8.3369   -0.3861 C.ar    1  LIG1        0.1196
     39 C          -6.5285   -9.7493   -0.2839 C.ar    1  LIG1        0.0811
     40 C          -5.2232   -9.8241    0.0808 C.ar    1  LIG1        0.1145
     41 O          -4.6996   -8.5781    0.1973 O.2     1  LIG1       -0.4580
     42 H          -4.5674  -10.6483    0.2919 H       1  LIG1        0.1049
     43 N          -9.1370   -7.6159   -1.2221 N.1     1  LIG1       -0.1907
     44 C          -8.0842   -7.8575   -0.8297 C.1     1  LIG1        0.1049
     45 N          -7.4656  -10.7606   -0.4733 N.pl3   1  LIG1       -0.3545
     46 H          -8.2862  -10.4555   -0.9821 H       1  LIG1        0.1424
     47 H          -7.0852  -11.6166   -0.8519 H       1  LIG1        0.1424
@<TRIPOS>BOND
     1     9     8    1
     2    10     3    1
     3    43    44    3
     4    46    45    1
     5     8     2    1
     6    47    45    1
     7    44    38    1
     8     3     2   ar
     9     3     4   ar
    10    36    33    1
    11    19    17    1
    12    45    39    1
    13     2     1   ar
    14    38    39   ar
    15    38    37   ar
    16    39    40   ar
    17    31    30    1
    18    16    15    1
    19    30    23    1
    20    28    23   ar
    21    28    27   ar
    22    37    27    1
    23    37    41   ar
    24    23    24   ar
    25     4    11    1
    26     4     5   ar
    27    27    26   ar
    28    15    11   ar
    29    15    14   ar
    30    11    12   ar
    31    24    14    1
    32    24    25   ar
    33    40    41   ar
    34    40    42    1
    35    14    13   ar
    36    26    25   ar
    37    26    32    1
    38    25    29    1
    39    34    33    1
    40    12    13   ar
    41    12    17    1
    42    33    32    1
    43    33    35    1
    44    13    22    1
    45    17    20    1
    46    17    18    1
    47    22    21    3
    48     1     5   ar
    49     1     7    1
    50     5     6    1
