@<TRIPOS>MOLECULE
mol_data/opt/m06hf/geoms/mol2/13fa13fa-13fa-13fa-.out
 38 41 0 0 0
SMALL
GASTEIGER

@<TRIPOS>ATOM
      1 C           1.3641   -0.6784   -0.4877 C.ar    1  LIG1        0.0442
      2 C           1.0724    0.6089   -0.8689 C.ar    1  LIG1        0.1347
      3 C          -0.3228    0.8161   -0.7018 C.ar    1  LIG1        0.0067
      4 C          -0.8361   -0.3756   -0.2210 C.ar    1  LIG1        0.0701
      5 N           0.1886   -1.2580   -0.0965 N.ar    1  LIG1       -0.3564
      6 H           0.0572   -2.1946    0.2598 H       1  LIG1        0.1655
      7 H           2.3036   -1.1992   -0.4712 H       1  LIG1        0.0844
      8 O           2.0084    1.5024   -1.3101 O.3     1  LIG1       -0.5053
      9 H           1.5692    2.2858   -1.6535 H       1  LIG1        0.2922
     10 H          -0.8678    1.7278   -0.8890 H       1  LIG1        0.0676
     11 C          -2.1896   -0.7743    0.1419 C.ar    1  LIG1        0.1054
     12 C          -2.6157   -1.9029    0.8085 C.ar    1  LIG1        0.1441
     13 C          -4.0287   -1.8484    0.9320 C.ar    1  LIG1        0.0074
     14 C          -4.4275   -0.6734    0.3243 C.ar    1  LIG1        0.0705
     15 N          -3.3078   -0.0454   -0.1523 N.ar    1  LIG1       -0.3488
     16 H          -3.3239    0.7654   -0.7508 H       1  LIG1        0.1661
     17 O          -1.7602   -2.8970    1.2304 O.3     1  LIG1       -0.5046
     18 H          -1.8647   -3.0340    2.1787 H       1  LIG1        0.2922
     19 H          -4.6755   -2.5482    1.4363 H       1  LIG1        0.0676
     20 C          -5.7706   -0.1371    0.1221 C.ar    1  LIG1        0.1055
     21 C          -6.8731   -0.7709   -0.4094 C.ar    1  LIG1        0.1441
     22 C          -7.9538    0.1479   -0.4125 C.ar    1  LIG1        0.0074
     23 C          -7.4690    1.3318    0.1149 C.ar    1  LIG1        0.0705
     24 N          -6.1543    1.1488    0.4278 N.ar    1  LIG1       -0.3488
     25 H          -5.5523    1.8598    0.8120 H       1  LIG1        0.1661
     26 O          -6.9367   -2.0515   -0.8587 O.3     1  LIG1       -0.5046
     27 H          -6.0446   -2.4230   -0.8655 H       1  LIG1        0.2922
     28 H          -8.9679   -0.0426   -0.7203 H       1  LIG1        0.0676
     29 C          -8.1397    2.6192    0.2883 C.ar    1  LIG1        0.1050
     30 C          -8.7902    3.3764   -0.6591 C.ar    1  LIG1        0.1434
     31 C          -9.2544    4.5647   -0.0359 C.ar    1  LIG1       -0.0021
     32 C          -8.8669    4.4888    1.2821 C.ar    1  LIG1        0.0058
     33 N          -8.1898    3.3249    1.4713 N.ar    1  LIG1       -0.3566
     34 H          -7.8822    2.9625    2.3585 H       1  LIG1        0.1655
     35 H          -9.0312    5.1751    2.0943 H       1  LIG1        0.0808
     36 O          -8.9510    3.0726   -1.9747 O.3     1  LIG1       -0.5046
     37 H          -8.5227    2.2247   -2.1499 H       1  LIG1        0.2922
     38 H          -9.7967    5.3633   -0.5105 H       1  LIG1        0.0669
@<TRIPOS>BOND
     1    37    36    1
     2    36    30    1
     3     9     8    1
     4     8     2    1
     5    10     3    1
     6     2     3   ar
     7     2     1   ar
     8    27    26    1
     9    26    21    1
    10    16    15    1
    11    28    22    1
    12     3     4   ar
    13    30    31   ar
    14    30    29   ar
    15    38    31    1
    16     1     7    1
    17     1     5   ar
    18    22    21   ar
    19    22    23   ar
    20    21    20   ar
    21     4     5   ar
    22     4    11    1
    23    15    11   ar
    24    15    14   ar
    25     5     6    1
    26    31    32   ar
    27    23    29    1
    28    23    24   ar
    29    20    14    1
    30    20    24   ar
    31    11    12   ar
    32    29    33   ar
    33    14    13   ar
    34    24    25    1
    35    12    13   ar
    36    12    17    1
    37    13    19    1
    38    17    18    1
    39    32    33   ar
    40    32    35    1
    41    33    34    1
