@<TRIPOS>MOLECULE
mol_data/opt/m06hf/geoms/mol2/13fa13fa13fa-13fa-.out
 38 41 0 0 0
SMALL
GASTEIGER

@<TRIPOS>ATOM
      1 C           1.1699    0.1453    0.5873 C.ar    1  LIG1        0.0442
      2 C           0.8002    1.1029   -0.3222 C.ar    1  LIG1        0.1347
      3 C          -0.5711    0.8999   -0.6460 C.ar    1  LIG1        0.0067
      4 C          -0.9943   -0.1894    0.0928 C.ar    1  LIG1        0.0701
      5 N           0.0638   -0.6256    0.8350 N.ar    1  LIG1       -0.3564
      6 H           0.0007   -1.3521    1.5294 H       1  LIG1        0.1655
      7 H           2.1188   -0.0283    1.0609 H       1  LIG1        0.0844
      8 O           1.6390    2.0748   -0.7951 O.3     1  LIG1       -0.5053
      9 H           1.3675    2.3247   -1.6839 H       1  LIG1        0.2922
     10 H          -1.1681    1.4381   -1.3656 H       1  LIG1        0.0676
     11 C          -2.3243   -0.7851    0.1811 C.ar    1  LIG1        0.1054
     12 C          -3.5259   -0.1406    0.3864 C.ar    1  LIG1        0.1441
     13 C          -4.5542   -1.1129    0.4170 C.ar    1  LIG1        0.0074
     14 C          -3.9350   -2.3362    0.2266 C.ar    1  LIG1        0.0705
     15 N          -2.5981   -2.1288    0.0929 N.ar    1  LIG1       -0.3488
     16 H          -1.9438   -2.8704   -0.1190 H       1  LIG1        0.1661
     17 O          -3.7104    1.1967    0.5542 O.3     1  LIG1       -0.5046
     18 H          -2.8426    1.6160    0.6266 H       1  LIG1        0.2922
     19 H          -5.6012   -0.9207    0.5797 H       1  LIG1        0.0676
     20 C          -4.4732   -3.6859    0.1414 C.ar    1  LIG1        0.1055
     21 C          -3.8061   -4.8880    0.0534 C.ar    1  LIG1        0.1441
     22 C          -4.7638   -5.9338   -0.0061 C.ar    1  LIG1        0.0074
     23 C          -6.0055   -5.3269    0.0420 C.ar    1  LIG1        0.0705
     24 N          -5.8106   -3.9766    0.1235 N.ar    1  LIG1       -0.3488
     25 H          -6.5459   -3.2930    0.0340 H       1  LIG1        0.1661
     26 O          -2.4341   -4.9797    0.0053 O.3     1  LIG1       -0.5046
     27 H          -2.1379   -5.7201    0.5453 H       1  LIG1        0.2922
     28 H          -4.5832   -6.9965   -0.0320 H       1  LIG1        0.0676
     29 C          -7.3339   -5.9250   -0.0427 C.ar    1  LIG1        0.1050
     30 C          -7.7965   -6.8503   -0.9514 C.ar    1  LIG1        0.1434
     31 C          -9.1579   -7.1211   -0.6555 C.ar    1  LIG1       -0.0021
     32 C          -9.4810   -6.3432    0.4324 C.ar    1  LIG1        0.0058
     33 N          -8.3872   -5.6188    0.7912 N.ar    1  LIG1       -0.3566
     34 H          -8.3102   -5.0412    1.6123 H       1  LIG1        0.1655
     35 H         -10.4068   -6.2571    0.9740 H       1  LIG1        0.0808
     36 O          -7.0917   -7.4076   -1.9733 O.3     1  LIG1       -0.5046
     37 H          -6.2570   -6.9304   -2.0684 H       1  LIG1        0.2922
     38 H          -9.8040   -7.7961   -1.1885 H       1  LIG1        0.0669
@<TRIPOS>BOND
     1    37    36    1
     2    36    30    1
     3     9     8    1
     4    10     3    1
     5    38    31    1
     6    30    31   ar
     7    30    29   ar
     8     8     2    1
     9    31    32   ar
    10     3     2   ar
    11     3     4   ar
    12     2     1   ar
    13    16    15    1
    14    29    23    1
    15    29    33   ar
    16    28    22    1
    17    22    23   ar
    18    22    21   ar
    19    26    21    1
    20    26    27    1
    21    25    24    1
    22    23    24   ar
    23    21    20   ar
    24     4    11    1
    25     4     5   ar
    26    15    11   ar
    27    15    14   ar
    28    24    20   ar
    29    20    14    1
    30    11    12   ar
    31    14    13   ar
    32    12    13   ar
    33    12    17    1
    34    13    19    1
    35    32    33   ar
    36    32    35    1
    37    17    18    1
    38     1     5   ar
    39     1     7    1
    40    33    34    1
    41     5     6    1
