@<TRIPOS>MOLECULE
mol_data/opt/m06hf/geoms/mol2/13fa13fa-13fa.out
 29 31 0 0 0
SMALL
GASTEIGER

@<TRIPOS>ATOM
      1 C           1.2543   -0.2128    0.0186 C.ar    1  LIG1        0.0442
      2 C           0.8557    1.1002    0.0199 C.ar    1  LIG1        0.1347
      3 C          -0.5648    1.1355    0.0147 C.ar    1  LIG1        0.0067
      4 C          -0.9854   -0.1829    0.0102 C.ar    1  LIG1        0.0701
      5 N           0.1175   -0.9767    0.0126 N.ar    1  LIG1       -0.3564
      6 H           0.0605   -1.9854    0.0101 H       1  LIG1        0.1655
      7 H           2.2406   -0.6374    0.0213 H       1  LIG1        0.0844
      8 O           1.7232    2.1592    0.0255 O.3     1  LIG1       -0.5053
      9 H           1.2238    2.9807    0.0258 H       1  LIG1        0.2922
     10 H          -1.1905    2.0141    0.0143 H       1  LIG1        0.0676
     11 C          -2.3134   -0.7795    0.0039 C.ar    1  LIG1        0.1054
     12 C          -2.6674   -2.1111    0.0003 C.ar    1  LIG1        0.1441
     13 C          -4.0800   -2.2079   -0.0055 C.ar    1  LIG1        0.0074
     14 C          -4.5521   -0.9058   -0.0052 C.ar    1  LIG1        0.0705
     15 N          -3.4816   -0.0671    0.0004 N.ar    1  LIG1       -0.3488
     16 H          -3.5758    0.9398    0.0013 H       1  LIG1        0.1661
     17 O          -1.7345   -3.1198    0.0021 O.3     1  LIG1       -0.5046
     18 H          -2.1697   -3.9770    0.0030 H       1  LIG1        0.2922
     19 H          -4.6663   -3.1132   -0.0095 H       1  LIG1        0.0676
     20 C          -5.9015   -0.3607   -0.0097 C.ar    1  LIG1        0.1050
     21 C          -6.3054    0.9549   -0.0098 C.ar    1  LIG1        0.1434
     22 C          -7.7241    0.9939   -0.0153 C.ar    1  LIG1       -0.0021
     23 C          -8.1431   -0.3173   -0.0184 C.ar    1  LIG1        0.0058
     24 N          -7.0441   -1.1182   -0.0150 N.ar    1  LIG1       -0.3566
     25 H          -7.0584   -2.1245   -0.0160 H       1  LIG1        0.1655
     26 H          -9.1361   -0.7305   -0.0228 H       1  LIG1        0.0808
     27 O          -5.4114    1.9972   -0.0051 O.3     1  LIG1       -0.5046
     28 H          -5.8800    2.8368   -0.0058 H       1  LIG1        0.2922
     29 H          -8.3531    1.8689   -0.0169 H       1  LIG1        0.0669
@<TRIPOS>BOND
     1    26    23    1
     2    23    22   ar
     3    23    24   ar
     4    29    22    1
     5    25    24    1
     6    22    21   ar
     7    24    20   ar
     8    21    20   ar
     9    21    27    1
    10    20    14    1
    11    19    13    1
    12    28    27    1
    13    13    14   ar
    14    13    12   ar
    15    14    15   ar
    16    12    17    1
    17    12    11   ar
    18    15    16    1
    19    15    11   ar
    20    17    18    1
    21    11     4    1
    22     6     5    1
    23     4     5   ar
    24     4     3   ar
    25     5     1   ar
    26    10     3    1
    27     3     2   ar
    28     1     2   ar
    29     1     7    1
    30     2     8    1
    31     8     9    1
