@<TRIPOS>MOLECULE
mol_data/opt/m06hf/geoms/mol2/13fa13fa-13fa13fa-.out
 38 41 0 0 0
SMALL
GASTEIGER

@<TRIPOS>ATOM
      1 C           1.3230   -0.2433    0.1936 C.ar    1  LIG1        0.0442
      2 C           0.9526    1.0713    0.0536 C.ar    1  LIG1        0.1347
      3 C          -0.4628    1.1266   -0.0567 C.ar    1  LIG1        0.0067
      4 C          -0.9086   -0.1801    0.0247 C.ar    1  LIG1        0.0701
      5 N           0.1738   -0.9873    0.1771 N.ar    1  LIG1       -0.3564
      6 H           0.0870   -1.9906    0.2591 H       1  LIG1        0.1655
      7 H           2.2988   -0.6784    0.3046 H       1  LIG1        0.0844
      8 O           1.8359    2.1175    0.0388 O.3     1  LIG1       -0.5053
      9 H           1.3669    2.9228   -0.1972 H       1  LIG1        0.2922
     10 H          -1.0697    2.0082   -0.1896 H       1  LIG1        0.0676
     11 C          -2.2460   -0.7549   -0.0197 C.ar    1  LIG1        0.1054
     12 C          -2.6214   -2.0797   -0.0913 C.ar    1  LIG1        0.1441
     13 C          -4.0367   -2.1520   -0.1041 C.ar    1  LIG1        0.0074
     14 C          -4.4852   -0.8456   -0.0398 C.ar    1  LIG1        0.0705
     15 N          -3.3981   -0.0239    0.0176 N.ar    1  LIG1       -0.3488
     16 H          -3.4732    0.9815    0.0979 H       1  LIG1        0.1661
     17 O          -1.7202   -3.1265   -0.1063 O.3     1  LIG1       -0.5046
     18 H          -1.8273   -3.6244   -0.9247 H       1  LIG1        0.2922
     19 H          -4.6363   -3.0461   -0.1470 H       1  LIG1        0.0676
     20 C          -5.8248   -0.2812   -0.0162 C.ar    1  LIG1        0.1055
     21 C          -6.2104    1.0421    0.0251 C.ar    1  LIG1        0.1441
     22 C          -7.6249    1.1032    0.0364 C.ar    1  LIG1        0.0074
     23 C          -8.0638   -0.2100   -0.0011 C.ar    1  LIG1        0.0705
     24 N          -6.9746   -1.0215   -0.0334 N.ar    1  LIG1       -0.3488
     25 H          -7.0525   -2.0300   -0.0466 H       1  LIG1        0.1661
     26 O          -5.3039    2.0739    0.0522 O.3     1  LIG1       -0.5046
     27 H          -5.7635    2.9177    0.0872 H       1  LIG1        0.2922
     28 H          -8.2344    1.9912    0.0816 H       1  LIG1        0.0676
     29 C          -9.3986   -0.7914   -0.0084 C.ar    1  LIG1        0.1050
     30 C          -9.7669   -2.1141    0.0935 C.ar    1  LIG1        0.1434
     31 C         -11.1832   -2.1958    0.0330 C.ar    1  LIG1       -0.0021
     32 C         -11.6345   -0.9041   -0.1045 C.ar    1  LIG1        0.0058
     33 N         -10.5555   -0.0721   -0.1352 N.ar    1  LIG1       -0.3566
     34 H         -10.5930    0.9250   -0.2684 H       1  LIG1        0.1655
     35 H         -12.6362   -0.5219   -0.1912 H       1  LIG1        0.0808
     36 O          -8.8527   -3.1416    0.1908 O.3     1  LIG1       -0.5046
     37 H          -9.0947   -3.7219    0.9207 H       1  LIG1        0.2922
     38 H         -11.7854   -3.0875    0.0750 H       1  LIG1        0.0669
@<TRIPOS>BOND
     1    18    17    1
     2    34    33    1
     3     9     8    1
     4    35    32    1
     5    10     3    1
     6    19    13    1
     7    33    32   ar
     8    33    29   ar
     9    17    12    1
    10    32    31   ar
    11    13    12   ar
    12    13    14   ar
    13    12    11   ar
    14     3     4   ar
    15     3     2   ar
    16    25    24    1
    17    14    20    1
    18    14    15   ar
    19    24    20   ar
    20    24    23   ar
    21    11    15   ar
    22    11     4    1
    23    20    21   ar
    24    29    23    1
    25    29    30   ar
    26    23    22   ar
    27    15    16    1
    28     4     5   ar
    29    21    22   ar
    30    21    26    1
    31    31    38    1
    32    31    30   ar
    33    22    28    1
    34     8     2    1
    35    26    27    1
    36     2     1   ar
    37    30    36    1
    38     5     1   ar
    39     5     6    1
    40    36    37    1
    41     1     7    1
