@<TRIPOS>MOLECULE
mol_data/opt/m06hf/geoms/mol2/13fa13fa-4fa13fa.out
 40 43 0 0 0
SMALL
GASTEIGER

@<TRIPOS>ATOM
      1 C           1.3876   -0.3478   -0.1498 C.ar    1  LIG1        0.0442
      2 C           1.0630    0.9273    0.2431 C.ar    1  LIG1        0.1347
      3 C          -0.3526    1.0180    0.3371 C.ar    1  LIG1        0.0067
      4 C          -0.8429   -0.2268   -0.0099 C.ar    1  LIG1        0.0701
      5 N           0.2140   -1.0311   -0.3062 N.ar    1  LIG1       -0.3564
      6 H           0.0946   -1.9936   -0.5903 H       1  LIG1        0.1655
      7 H           2.3491   -0.7924   -0.3300 H       1  LIG1        0.0844
      8 O           1.9792    1.9253    0.4634 O.3     1  LIG1       -0.5053
      9 H           1.7143    2.4250    1.2420 H       1  LIG1        0.2922
     10 H          -0.9266    1.8841    0.6242 H       1  LIG1        0.0676
     11 C          -2.1996   -0.7504   -0.0978 C.ar    1  LIG1        0.1054
     12 C          -2.6183   -2.0529   -0.2831 C.ar    1  LIG1        0.1440
     13 C          -4.0298   -2.0706   -0.3114 C.ar    1  LIG1        0.0060
     14 C          -4.4442   -0.7590   -0.1339 C.ar    1  LIG1        0.0540
     15 N          -3.3228    0.0127   -0.0163 N.ar    1  LIG1       -0.3500
     16 H          -3.3588    1.0185    0.0654 H       1  LIG1        0.1661
     17 O          -1.7509   -3.1151   -0.4504 O.3     1  LIG1       -0.5046
     18 H          -1.9034   -3.7613    0.2482 H       1  LIG1        0.2922
     19 H          -4.6520   -2.9356   -0.4680 H       1  LIG1        0.0675
     20 C          -6.0951    1.1597   -0.0667 C.ar    1  LIG1        0.1266
     21 C          -7.3976    1.6358   -0.0020 C.ar    1  LIG1       -0.0103
     22 C          -5.8111   -0.2145   -0.0646 C.ar    1  LIG1        0.0399
     23 C          -8.4748    0.7502    0.0522 C.ar    1  LIG1        0.0054
     24 H          -7.5887    2.7029    0.0005 H       1  LIG1        0.0661
     25 C          -6.9056   -1.0835   -0.0025 C.ar    1  LIG1       -0.0485
     26 C          -8.2124   -0.6237    0.0431 C.ar    1  LIG1       -0.0517
     27 H          -6.7213   -2.1492    0.0058 H       1  LIG1        0.0625
     28 O          -5.0444    2.0397   -0.1186 O.3     1  LIG1       -0.5061
     29 H          -5.3687    2.9450   -0.1670 H       1  LIG1        0.2922
     30 H          -9.0251   -1.3388    0.0433 H       1  LIG1        0.0624
     31 C          -9.8445    1.2739    0.1210 C.ar    1  LIG1        0.0886
     32 C         -10.3665    2.4792   -0.2997 C.ar    1  LIG1        0.1420
     33 C         -11.7615    2.4870   -0.0327 C.ar    1  LIG1       -0.0022
     34 C         -12.0486    1.2760    0.5534 C.ar    1  LIG1        0.0057
     35 N         -10.8972    0.5601    0.6410 N.ar    1  LIG1       -0.3577
     36 H         -10.8009   -0.3301    1.1008 H       1  LIG1        0.1654
     37 H         -12.9804    0.8859    0.9234 H       1  LIG1        0.0808
     38 O          -9.6176    3.4823   -0.8597 O.3     1  LIG1       -0.5046
     39 H         -10.1189    3.9009   -1.5671 H       1  LIG1        0.2922
     40 H         -12.4568    3.2837   -0.2383 H       1  LIG1        0.0669
@<TRIPOS>BOND
     1    39    38    1
     2    38    32    1
     3     6     5    1
     4    19    13    1
     5    17    12    1
     6    17    18    1
     7     7     1    1
     8    13    12   ar
     9    13    14   ar
    10     5     1   ar
    11     5     4   ar
    12    32    33   ar
    13    32    31   ar
    14    12    11   ar
    15    40    33    1
    16    29    28    1
    17     1     2   ar
    18    14    22    1
    19    14    15   ar
    20    28    20    1
    21    11    15   ar
    22    11     4    1
    23    20    22   ar
    24    20    21   ar
    25    22    25   ar
    26    33    34   ar
    27    15    16    1
    28     4     3   ar
    29    25    27    1
    30    25    26   ar
    31    21    24    1
    32    21    23   ar
    33    26    30    1
    34    26    23   ar
    35    23    31    1
    36    31    35   ar
    37     2     3   ar
    38     2     8    1
    39     3    10    1
    40     8     9    1
    41    34    35   ar
    42    34    37    1
    43    35    36    1
