@<TRIPOS>MOLECULE
mol_data/opt/m06hf/geoms/mol2/13fa13fa13fa.out
 29 31 0 0 0
SMALL
GASTEIGER

@<TRIPOS>ATOM
      1 C           1.2209   -0.1171    0.0809 C.ar    1  LIG1        0.0442
      2 C           0.7463    1.0745   -0.4039 C.ar    1  LIG1        0.1347
      3 C          -0.6737    1.0032   -0.4568 C.ar    1  LIG1        0.0067
      4 C          -1.0209   -0.2459    0.0106 C.ar    1  LIG1        0.0701
      5 N           0.1282   -0.9149    0.3214 N.ar    1  LIG1       -0.3564
      6 H           0.1515   -1.7975    0.8044 H       1  LIG1        0.1655
      7 H           2.2285   -0.4409    0.2635 H       1  LIG1        0.0844
      8 O           1.5471    2.1170   -0.7802 O.3     1  LIG1       -0.5053
      9 H           0.9976    2.8788   -0.9860 H       1  LIG1        0.2922
     10 H          -1.3668    1.7541   -0.7985 H       1  LIG1        0.0676
     11 C          -2.3337   -0.8547    0.1849 C.ar    1  LIG1        0.1054
     12 C          -3.5293   -0.2996    0.5727 C.ar    1  LIG1        0.1441
     13 C          -4.5135   -1.3265    0.6049 C.ar    1  LIG1        0.0074
     14 C          -3.8823   -2.4887    0.2236 C.ar    1  LIG1        0.0705
     15 N          -2.5649   -2.2021   -0.0158 N.ar    1  LIG1       -0.3488
     16 H          -1.9561   -2.7878   -0.5666 H       1  LIG1        0.1661
     17 O          -3.6816    1.0225    0.8710 O.3     1  LIG1       -0.5046
     18 H          -4.5369    1.1595    1.2892 H       1  LIG1        0.2922
     19 H          -5.5519   -1.2452    0.8816 H       1  LIG1        0.0676
     20 C          -4.4198   -3.8316    0.0517 C.ar    1  LIG1        0.1050
     21 C          -5.6701   -4.2401   -0.3510 C.ar    1  LIG1        0.1434
     22 C          -5.6877   -5.6621   -0.3769 C.ar    1  LIG1       -0.0021
     23 C          -4.4364   -6.0760    0.0160 C.ar    1  LIG1        0.0058
     24 N          -3.6823   -4.9729    0.2718 N.ar    1  LIG1       -0.3566
     25 H          -2.7667   -4.9776    0.6901 H       1  LIG1        0.1655
     26 H          -4.0390   -7.0678    0.1413 H       1  LIG1        0.0808
     27 O          -6.6846   -3.3736   -0.6428 O.3     1  LIG1       -0.5046
     28 H          -7.3192   -3.8031   -1.2246 H       1  LIG1        0.2922
     29 H          -6.5150   -6.2956   -0.6507 H       1  LIG1        0.0669
@<TRIPOS>BOND
     1    28    27    1
     2     9     8    1
     3    10     3    1
     4     8     2    1
     5    29    22    1
     6    27    21    1
     7    16    15    1
     8     3     2   ar
     9     3     4   ar
    10     2     1   ar
    11    22    21   ar
    12    22    23   ar
    13    21    20   ar
    14    15    11   ar
    15    15    14   ar
    16     4    11    1
    17     4     5   ar
    18    23    26    1
    19    23    24   ar
    20    20    14    1
    21    20    24   ar
    22     1     7    1
    23     1     5   ar
    24    11    12   ar
    25    14    13   ar
    26    24    25    1
    27     5     6    1
    28    12    13   ar
    29    12    17    1
    30    13    19    1
    31    17    18    1
