@<TRIPOS>MOLECULE
mol_data/opt/m06hf/geoms/mol2/13fa13fa-.out
 20 21 0 0 0
SMALL
GASTEIGER

@<TRIPOS>ATOM
      1 C           1.1726   -0.2253    0.2491 C.ar    1  LIG1        0.0442
      2 C           0.7958    1.0695   -0.0094 C.ar    1  LIG1        0.1347
      3 C          -0.6182    1.1022   -0.1478 C.ar    1  LIG1        0.0067
      4 C          -1.0560   -0.1965    0.0413 C.ar    1  LIG1        0.0700
      5 N           0.0301   -0.9780    0.2739 N.ar    1  LIG1       -0.3564
      6 H          -0.0458   -1.9737    0.4286 H       1  LIG1        0.1655
      7 H           2.1490   -0.6435    0.4100 H       1  LIG1        0.0844
      8 O           1.6763    2.1100   -0.1304 O.3     1  LIG1       -0.5053
      9 H           1.1920    2.9408   -0.1255 H       1  LIG1        0.2922
     10 H          -1.2252    1.9617   -0.3843 H       1  LIG1        0.0676
     11 C          -2.3865   -0.7926    0.0234 C.ar    1  LIG1        0.1050
     12 C          -2.7418   -2.1221   -0.0207 C.ar    1  LIG1        0.1434
     13 C          -4.1591   -2.2126   -0.0081 C.ar    1  LIG1       -0.0021
     14 C          -4.6244   -0.9203    0.0432 C.ar    1  LIG1        0.0058
     15 N          -3.5508   -0.0782    0.0675 N.ar    1  LIG1       -0.3566
     16 H          -3.5971    0.9233    0.1547 H       1  LIG1        0.1655
     17 H          -5.6305   -0.5407    0.0742 H       1  LIG1        0.0808
     18 O          -1.8257   -3.1565   -0.0296 O.3     1  LIG1       -0.5046
     19 H          -1.8644   -3.6072   -0.8810 H       1  LIG1        0.2922
     20 H          -4.7497   -3.1124   -0.0247 H       1  LIG1        0.0669
@<TRIPOS>BOND
     1    19    18    1
     2    10     3    1
     3     3     2   ar
     4     3     4   ar
     5     8     9    1
     6     8     2    1
     7    18    12    1
     8    20    13    1
     9    12    13   ar
    10    12    11   ar
    11     2     1   ar
    12    13    14   ar
    13    11     4    1
    14    11    15   ar
    15     4     5   ar
    16    14    15   ar
    17    14    17    1
    18    15    16    1
    19     1     5   ar
    20     1     7    1
    21     5     6    1
