@<TRIPOS>MOLECULE
mol_data/opt/m06hf/geoms/mol2/13fa13fa4lf13hi-.out
 48 51 0 0 0
SMALL
GASTEIGER

@<TRIPOS>ATOM
      1 C           1.4361    0.0705   -0.1595 C.ar    1  LIG1        0.0442
      2 C           0.9290    1.2563   -0.6261 C.ar    1  LIG1        0.1347
      3 C          -0.4904    1.1972   -0.5486 C.ar    1  LIG1        0.0067
      4 C          -0.8029   -0.0375   -0.0234 C.ar    1  LIG1        0.0701
      5 N           0.3647   -0.7117    0.1960 N.ar    1  LIG1       -0.3564
      6 H           0.4251   -1.5816    0.6988 H       1  LIG1        0.1655
      7 H           2.4544   -0.2566   -0.0594 H       1  LIG1        0.0844
      8 O           1.7012    2.2811   -1.0970 O.3     1  LIG1       -0.5053
      9 H           1.1472    3.0528   -1.2455 H       1  LIG1        0.2922
     10 H          -1.2061    1.9466   -0.8441 H       1  LIG1        0.0676
     11 C          -2.0974   -0.6337    0.2838 C.ar    1  LIG1        0.1054
     12 C          -3.2446   -0.0698    0.7941 C.ar    1  LIG1        0.1440
     13 C          -4.2308   -1.0849    0.9059 C.ar    1  LIG1        0.0060
     14 C          -3.6497   -2.2574    0.4623 C.ar    1  LIG1        0.0541
     15 N          -2.3622   -1.9710    0.0955 N.ar    1  LIG1       -0.3500
     16 H          -1.7905   -2.5727   -0.4770 H       1  LIG1        0.1661
     17 O          -3.3609    1.2549    1.1054 O.3     1  LIG1       -0.5046
     18 H          -4.0109    1.3624    1.8071 H       1  LIG1        0.2922
     19 H          -5.2367   -0.9958    1.2807 H       1  LIG1        0.0675
     20 C          -5.5565   -3.8647    0.2151 C.ar    1  LIG1        0.1300
     21 C          -6.0461   -5.1565    0.1024 C.ar    1  LIG1       -0.0066
     22 C          -4.1858   -3.6239    0.3643 C.ar    1  LIG1        0.0435
     23 C          -5.2041   -6.2742    0.1394 C.ar    1  LIG1        0.0450
     24 H          -7.1112   -5.3124   -0.0148 H       1  LIG1        0.0662
     25 C          -3.3399   -4.7338    0.4219 C.ar    1  LIG1       -0.0069
     26 C          -3.8309   -6.0269    0.3039 C.ar    1  LIG1        0.1268
     27 H          -2.2791   -4.5901    0.6020 H       1  LIG1        0.0662
     28 O          -6.4433   -2.8144    0.1883 O.3     1  LIG1       -0.4944
     29 C          -6.6701   -2.3016   -1.1241 C.3     1  LIG1        0.0788
     30 H          -7.3823   -1.4867   -1.0157 H       1  LIG1        0.0660
     31 H          -5.7369   -1.9270   -1.5493 H       1  LIG1        0.0660
     32 H          -7.0874   -3.0842   -1.7615 H       1  LIG1        0.0660
     33 O          -2.9673   -7.0962    0.3658 O.3     1  LIG1       -0.5061
     34 H          -2.0638   -6.7912    0.4927 H       1  LIG1        0.2922
     35 C          -5.7727   -7.6305    0.0167 C.ar    1  LIG1        0.0713
     36 C          -7.0850   -8.0514   -0.1580 C.ar    1  LIG1        0.0532
     37 C          -7.0876   -9.4745   -0.2156 C.ar    1  LIG1       -0.0119
     38 C          -5.7789   -9.8712   -0.0743 C.ar    1  LIG1        0.0069
     39 N          -5.0060   -8.7629    0.0644 N.ar    1  LIG1       -0.3588
     40 H          -4.0059   -8.7366    0.1897 H       1  LIG1        0.1654
     41 H          -5.3485  -10.8585   -0.0617 H       1  LIG1        0.0810
     42 N          -8.2320   -7.2017   -0.2600 N.pl3   1  LIG1       -0.3561
     43 H          -8.7420   -7.3936   -1.1179 H       1  LIG1        0.1424
     44 H          -8.8657   -7.3631    0.5189 H       1  LIG1        0.1424
     45 C          -8.3029  -10.3475   -0.3985 C.3     1  LIG1       -0.0365
     46 H          -8.0188  -11.3995   -0.3783 H       1  LIG1        0.0279
     47 H          -8.7909  -10.1443   -1.3544 H       1  LIG1        0.0279
     48 H          -9.0313  -10.1742    0.3968 H       1  LIG1        0.0279
@<TRIPOS>BOND
     1    32    29    1
     2    31    29    1
     3    47    45    1
     4     9     8    1
     5    29    30    1
     6    29    28    1
     7    43    42    1
     8     8     2    1
     9    10     3    1
    10     2     3   ar
    11     2     1   ar
    12     3     4   ar
    13    16    15    1
    14    45    46    1
    15    45    37    1
    16    45    48    1
    17    42    36    1
    18    42    44    1
    19    37    36   ar
    20    37    38   ar
    21     1     7    1
    22     1     5   ar
    23    36    35   ar
    24    38    41    1
    25    38    39   ar
    26     4     5   ar
    27     4    11    1
    28    24    21    1
    29    35    39   ar
    30    35    23    1
    31    39    40    1
    32    15    11   ar
    33    15    14   ar
    34    21    23   ar
    35    21    20   ar
    36    23    26   ar
    37    28    20    1
    38     5     6    1
    39    20    22   ar
    40    11    12   ar
    41    26    33    1
    42    26    25   ar
    43    22    25   ar
    44    22    14    1
    45    33    34    1
    46    25    27    1
    47    14    13   ar
    48    12    13   ar
    49    12    17    1
    50    13    19    1
    51    17    18    1
