@<TRIPOS>MOLECULE
mol_data/opt/m06hf/geoms/mol2/13fa12ih-12id-13ih-.out
 47 50 0 0 0
SMALL
GASTEIGER

@<TRIPOS>ATOM
      1 C           0.8207    0.3173    1.6245 C.ar    1  LIG1        0.0442
      2 C           0.5882    1.4578    0.8927 C.ar    1  LIG1        0.1348
      3 C          -0.6242    1.2857    0.1755 C.ar    1  LIG1        0.0082
      4 C          -1.0971    0.0289    0.5099 C.ar    1  LIG1        0.0860
      5 N          -0.2147   -0.5383    1.3743 N.ar    1  LIG1       -0.3552
      6 H          -0.3318   -1.4633    1.7576 H       1  LIG1        0.1655
      7 H           1.6332    0.0710    2.2832 H       1  LIG1        0.0844
      8 O           1.4313    2.5327    0.8747 O.3     1  LIG1       -0.5053
      9 H           0.9851    3.2853    0.4757 H       1  LIG1        0.2922
     10 H          -1.0711    1.9720   -0.5248 H       1  LIG1        0.0676
     11 C          -2.2867   -0.7014    0.0975 C.ar    1  LIG1        0.1567
     12 C          -3.4713   -0.3119   -0.4486 C.ar    1  LIG1        0.0182
     13 C          -4.2234   -1.5304   -0.6229 C.ar    1  LIG1        0.0777
     14 C          -3.4491   -2.5403   -0.1370 C.ar    1  LIG1        0.1917
     15 O          -2.2593   -2.0361    0.3030 O.2     1  LIG1       -0.4481
     16 C          -3.9475    1.0804   -0.7655 C.3     1  LIG1       -0.0343
     17 H          -5.0243    1.1407   -0.6015 H       1  LIG1        0.0279
     18 H          -3.7330    1.3538   -1.8010 H       1  LIG1        0.0279
     19 H          -3.4564    1.7959   -0.1058 H       1  LIG1        0.0279
     20 N          -5.5207   -1.6073   -1.1359 N.pl3   1  LIG1       -0.3547
     21 H          -5.6738   -0.9689   -1.9075 H       1  LIG1        0.1424
     22 H          -5.7818   -2.5518   -1.3974 H       1  LIG1        0.1424
     23 C          -3.7098   -3.9620   -0.0199 C.ar    1  LIG1        0.1767
     24 C          -4.8162   -4.6425    0.3782 C.ar    1  LIG1        0.0165
     25 C          -4.4839   -6.0361    0.1860 C.ar    1  LIG1        0.1025
     26 C          -3.1939   -6.0869   -0.2696 C.ar    1  LIG1        0.1697
     27 O          -2.7304   -4.8317   -0.4069 O.2     1  LIG1       -0.4486
     28 C          -6.1031   -4.1021    0.9417 C.3     1  LIG1       -0.0348
     29 H          -6.3006   -4.5701    1.9066 H       1  LIG1        0.0279
     30 H          -6.9383   -4.3319    0.2773 H       1  LIG1        0.0279
     31 H          -6.0323   -3.0221    1.0675 H       1  LIG1        0.0279
     32 N          -6.1402   -7.9849    0.5203 N.1     1  LIG1       -0.1907
     33 C          -5.3832   -7.1337    0.3723 C.1     1  LIG1        0.1033
     34 C          -2.2899   -7.1576   -0.6398 C.ar    1  LIG1        0.0882
     35 C          -2.1930   -8.4720   -0.2185 C.ar    1  LIG1       -0.0015
     36 C          -1.0991   -9.0329   -0.9366 C.ar    1  LIG1        0.0457
     37 C          -0.5694   -8.0479   -1.7438 C.ar    1  LIG1        0.0233
     38 N          -1.2927   -6.9126   -1.5440 N.ar    1  LIG1       -0.3564
     39 H          -1.1310   -6.0150   -1.9719 H       1  LIG1        0.1655
     40 H           0.2641   -8.0759   -2.4246 H       1  LIG1        0.0826
     41 C          -2.9754   -9.1965    0.8455 C.3     1  LIG1       -0.0359
     42 H          -2.3281   -9.9647    1.2710 H       1  LIG1        0.0279
     43 H          -3.8725   -9.6675    0.4407 H       1  LIG1        0.0279
     44 H          -3.2822   -8.5081    1.6337 H       1  LIG1        0.0279
     45 N          -0.6408  -10.3596   -0.7476 N.pl3   1  LIG1       -0.3566
     46 H          -1.3049  -11.0420   -1.0989 H       1  LIG1        0.1424
     47 H           0.2597  -10.5181   -1.1831 H       1  LIG1        0.1424
@<TRIPOS>BOND
     1    40    37    1
     2    39    38    1
     3    21    20    1
     4    18    16    1
     5    37    38   ar
     6    37    36   ar
     7    38    34   ar
     8    22    20    1
     9    47    45    1
    10    20    13    1
    11    46    45    1
    12    36    45    1
    13    36    35   ar
    14    16    17    1
    15    16    12    1
    16    16    19    1
    17    34    26    1
    18    34    35   ar
    19    13    12   ar
    20    13    14   ar
    21    10     3    1
    22    12    11   ar
    23    27    26   ar
    24    27    23   ar
    25    26    25   ar
    26    35    41    1
    27    14    23    1
    28    14    15   ar
    29    23    24   ar
    30    11    15   ar
    31    11     4    1
    32     3     4   ar
    33     3     2   ar
    34    25    33    1
    35    25    24   ar
    36    30    28    1
    37    33    32    3
    38    24    28    1
    39    43    41    1
    40     9     8    1
    41     4     5   ar
    42    41    42    1
    43    41    44    1
    44     8     2    1
    45     2     1   ar
    46    28    31    1
    47    28    29    1
    48     5     1   ar
    49     5     6    1
    50     1     7    1
