@<TRIPOS>MOLECULE
mol_data/opt/m06hf/geoms/mol2/13fa6af-13di4ff-.out
 45 48 0 0 0
SMALL
GASTEIGER

@<TRIPOS>ATOM
      1 C           1.2583   -0.2554    0.3604 C.ar    1  LIG1        0.0441
      2 C           1.0072    0.6927   -0.6008 C.ar    1  LIG1        0.1347
      3 C          -0.3804    0.6592   -0.9025 C.ar    1  LIG1        0.0052
      4 C          -0.9348   -0.3218   -0.1042 C.ar    1  LIG1        0.0516
      5 N           0.0671   -0.8714    0.6388 N.ar    1  LIG1       -0.3575
      6 H          -0.0767   -1.5413    1.3769 H       1  LIG1        0.1654
      7 H           2.1782   -0.5199    0.8488 H       1  LIG1        0.0844
      8 O           1.9707    1.4839   -1.1582 O.3     1  LIG1       -0.5053
      9 H           1.5549    2.2014   -1.6451 H       1  LIG1        0.2922
     10 H          -0.9040    1.2419   -1.6436 H       1  LIG1        0.0675
     11 C          -2.6273   -2.1444    0.1923 C.ar    1  LIG1        0.0377
     12 C          -2.3252   -0.7915   -0.0111 C.ar    1  LIG1        0.0200
     13 C          -3.3948    0.0844   -0.1427 C.ar    1  LIG1       -0.0074
     14 C          -4.7055   -0.3819   -0.0667 C.ar    1  LIG1        0.1448
     15 C          -4.9028   -1.7510    0.1817 C.ar    1  LIG1        0.1296
     16 N          -3.8663   -2.5915    0.2926 N.ar    1  LIG1       -0.2491
     17 H          -3.2414    1.1435   -0.3026 H       1  LIG1        0.0662
     18 H          -1.8374   -2.8845    0.2475 H       1  LIG1        0.0836
     19 O          -5.6813    0.5197   -0.3151 O.3     1  LIG1       -0.5045
     20 H          -6.4622    0.4363    0.2486 H       1  LIG1        0.2922
     21 C          -6.2146   -2.4328    0.2521 C.ar    1  LIG1        0.0868
     22 C          -7.5273   -2.0707    0.5376 C.ar    1  LIG1        0.0821
     23 C          -8.3575   -3.2267    0.4384 C.ar    1  LIG1       -0.0070
     24 C          -7.5134   -4.2619    0.0994 C.ar    1  LIG1        0.0548
     25 N          -6.2433   -3.7593    0.0037 N.ar    1  LIG1       -0.3515
     26 H          -5.4006   -4.2674   -0.2324 H       1  LIG1        0.1660
     27 N          -8.2884    0.2612    1.3355 N.1     1  LIG1       -0.1908
     28 C          -7.9666   -0.7842    0.9759 C.1     1  LIG1        0.1016
     29 C          -9.8398   -3.2813    0.6954 C.3     1  LIG1       -0.0365
     30 H         -10.1217   -4.2789    1.0311 H       1  LIG1        0.0279
     31 H         -10.3878   -3.0591   -0.2200 H       1  LIG1        0.0279
     32 H         -10.1103   -2.5554    1.4627 H       1  LIG1        0.0279
     33 C          -8.8121   -6.1320   -0.9314 C.ar    1  LIG1        0.1262
     34 C          -9.0249   -7.4978   -1.1177 C.ar    1  LIG1       -0.0161
     35 C          -7.7728   -5.7010   -0.1034 C.ar    1  LIG1        0.0434
     36 C          -8.2047   -8.4332   -0.5045 C.ar    1  LIG1       -0.0167
     37 H          -9.8343   -7.8303   -1.7576 H       1  LIG1        0.0655
     38 C          -6.9532   -6.6504    0.5157 C.ar    1  LIG1       -0.0076
     39 C          -7.1613   -8.0095    0.3156 C.ar    1  LIG1        0.1177
     40 H          -6.1649   -6.3105    1.1793 H       1  LIG1        0.0662
     41 H          -8.3583   -9.4941   -0.6453 H       1  LIG1        0.0655
     42 O          -9.5823   -5.1862   -1.5409 O.3     1  LIG1       -0.5061
     43 H         -10.1996   -5.6002   -2.1529 H       1  LIG1        0.2922
     44 O          -6.3898   -8.9722    0.8970 O.3     1  LIG1       -0.5067
     45 H          -5.7027   -8.5761    1.4425 H       1  LIG1        0.2921
@<TRIPOS>BOND
     1    43    42    1
     2    37    34    1
     3     9     8    1
     4    10     3    1
     5    42    33    1
     6     8     2    1
     7    34    33   ar
     8    34    36   ar
     9    33    35   ar
    10     3     2   ar
    11     3     4   ar
    12    41    36    1
    13     2     1   ar
    14    36    39   ar
    15    19    14    1
    16    19    20    1
    17    17    13    1
    18    26    25    1
    19    31    29    1
    20    13    14   ar
    21    13    12   ar
    22     4    12    1
    23     4     5   ar
    24    35    24    1
    25    35    38   ar
    26    14    15   ar
    27    12    11   ar
    28    25    24   ar
    29    25    21   ar
    30    24    23   ar
    31    15    21    1
    32    15    16   ar
    33    11    18    1
    34    11    16   ar
    35    21    22   ar
    36    39    38   ar
    37    39    44    1
    38     1     5   ar
    39     1     7    1
    40    23    22   ar
    41    23    29    1
    42    38    40    1
    43    22    28    1
    44     5     6    1
    45    29    30    1
    46    29    32    1
    47    44    45    1
    48    28    27    3
