@<TRIPOS>MOLECULE
mol_data/opt/m06hf/geoms/mol2/13fa13fa13fa13fa-.out
 38 41 0 0 0
SMALL
GASTEIGER

@<TRIPOS>ATOM
      1 C           1.1184    0.1566    0.3160 C.ar    1  LIG1        0.0442
      2 C           0.5387    1.3582    0.6343 C.ar    1  LIG1        0.1347
      3 C          -0.8718    1.2196    0.5142 C.ar    1  LIG1        0.0067
      4 C          -1.1053   -0.0791    0.1178 C.ar    1  LIG1        0.0701
      5 N           0.1002   -0.7110    0.0069 N.ar    1  LIG1       -0.3564
      6 H           0.2232   -1.6326   -0.3782 H       1  LIG1        0.1655
      7 H           2.1543   -0.1279    0.2896 H       1  LIG1        0.0844
      8 O           1.2431    2.4697    1.0038 O.3     1  LIG1       -0.5053
      9 H           0.6281    3.1581    1.2730 H       1  LIG1        0.2922
     10 H          -1.6323    1.9609    0.6976 H       1  LIG1        0.0676
     11 C          -2.3607   -0.7675   -0.1609 C.ar    1  LIG1        0.1054
     12 C          -3.5174   -0.3083   -0.7462 C.ar    1  LIG1        0.1441
     13 C          -4.4435   -1.3874   -0.8135 C.ar    1  LIG1        0.0074
     14 C          -3.8155   -2.4832   -0.2527 C.ar    1  LIG1        0.0705
     15 N          -2.5642   -2.0966    0.1367 N.ar    1  LIG1       -0.3488
     16 H          -1.9806   -2.6353    0.7586 H       1  LIG1        0.1661
     17 O          -3.6966    0.9814   -1.1604 O.3     1  LIG1       -0.5046
     18 H          -4.2006    0.9918   -1.9807 H       1  LIG1        0.2922
     19 H          -5.4214   -1.3886   -1.2686 H       1  LIG1        0.0676
     20 C          -4.3316   -3.8218    0.0033 C.ar    1  LIG1        0.1055
     21 C          -5.5574   -4.1772    0.5264 C.ar    1  LIG1        0.1441
     22 C          -5.5986   -5.5873    0.6464 C.ar    1  LIG1        0.0074
     23 C          -4.3754   -6.0502    0.1927 C.ar    1  LIG1        0.0705
     24 N          -3.6214   -4.9830   -0.1817 N.ar    1  LIG1       -0.3488
     25 H          -2.7162   -5.0831   -0.6214 H       1  LIG1        0.1661
     26 O          -6.5602   -3.3321    0.8902 O.3     1  LIG1       -0.5046
     27 H          -6.2114   -2.4307    0.9022 H       1  LIG1        0.2922
     28 H          -6.4274   -6.1656    1.0170 H       1  LIG1        0.0676
     29 C          -3.8280   -7.3937    0.0607 C.ar    1  LIG1        0.1050
     30 C          -2.6567   -7.7983   -0.5391 C.ar    1  LIG1        0.1434
     31 C          -2.5435   -9.2078   -0.4077 C.ar    1  LIG1       -0.0021
     32 C          -3.6656   -9.6183    0.2736 C.ar    1  LIG1        0.0058
     33 N          -4.4227   -8.5213    0.5562 N.ar    1  LIG1       -0.3566
     34 H          -5.2895   -8.5270    1.0682 H       1  LIG1        0.1655
     35 H          -3.9711  -10.6018    0.5841 H       1  LIG1        0.0808
     36 O          -1.7647   -6.9194   -1.1207 O.3     1  LIG1       -0.5046
     37 H          -1.5440   -7.2285   -2.0060 H       1  LIG1        0.2922
     38 H          -1.7393   -9.8310   -0.7601 H       1  LIG1        0.0669
@<TRIPOS>BOND
     1    37    36    1
     2    18    17    1
     3    19    13    1
     4    17    12    1
     5    36    30    1
     6    13    12   ar
     7    13    14   ar
     8    38    31    1
     9    12    11   ar
    10    25    24    1
    11    30    31   ar
    12    30    29   ar
    13    31    32   ar
    14     6     5    1
    15    14    20    1
    16    14    15   ar
    17    24    20   ar
    18    24    23   ar
    19    11     4    1
    20    11    15   ar
    21    20    21   ar
    22     5     4   ar
    23     5     1   ar
    24    29    23    1
    25    29    33   ar
    26     4     3   ar
    27    15    16    1
    28    23    22   ar
    29    32    33   ar
    30    32    35    1
    31     7     1    1
    32     1     2   ar
    33     3     2   ar
    34     3    10    1
    35    21    22   ar
    36    21    26    1
    37    33    34    1
    38     2     8    1
    39    22    28    1
    40    26    27    1
    41     8     9    1
