@<TRIPOS>MOLECULE
mol_data/opt/m06hf/geoms/mol2/13fa12fa6hi-12ae-13hi-4fh12hl-4fe-.out
 94 101 0 0 0
SMALL
GASTEIGER

@<TRIPOS>ATOM
      1 C           2.4708   -1.2667    2.0042 C.ar    1  LIG1        0.0442
      2 C           2.5314   -0.0786    1.3153 C.ar    1  LIG1        0.1348
      3 C           1.4074   -0.0070    0.4487 C.ar    1  LIG1        0.0083
      4 C           0.6862   -1.1694    0.6557 C.ar    1  LIG1        0.0893
      5 N           1.3414   -1.9184    1.5847 N.ar    1  LIG1       -0.3551
      6 H           1.0181   -2.8133    1.9171 H       1  LIG1        0.1655
      7 H           3.1512   -1.6882    2.7206 H       1  LIG1        0.0844
      8 O           3.5407    0.8311    1.4536 O.3     1  LIG1       -0.5053
      9 H           3.2733    1.6655    1.0573 H       1  LIG1        0.2922
     10 H           1.1362    0.7838   -0.2313 H       1  LIG1        0.0676
     11 C          -0.5712   -1.6065    0.0797 C.ar    1  LIG1        0.1930
     12 C          -1.5248   -0.9705   -0.6491 C.ar    1  LIG1        0.1647
     13 C          -2.5537   -1.9340   -0.9243 C.ar    1  LIG1        0.0266
     14 C          -2.1533   -3.0903   -0.3272 C.ar    1  LIG1        0.1427
     15 O          -0.9503   -2.8997    0.2732 O.2     1  LIG1       -0.4495
     16 O          -1.4454    0.3278   -1.0425 O.3     1  LIG1       -0.5032
     17 H          -2.3028    0.6338   -1.3533 H       1  LIG1        0.2923
     18 H          -3.4475   -1.7953   -1.5108 H       1  LIG1        0.0692
     19 C          -2.0168   -5.6129   -0.3030 C.ar    1  LIG1        0.1277
     20 C          -2.7754   -4.4143   -0.2310 C.ar    1  LIG1        0.0571
     21 C          -4.1521   -4.5405   -0.1089 C.ar    1  LIG1       -0.0427
     22 C          -4.7846   -5.7812   -0.0676 C.ar    1  LIG1       -0.0207
     23 C          -3.9369   -6.8933   -0.1444 C.ar    1  LIG1        0.1110
     24 N          -2.6103   -6.8008   -0.2565 N.ar    1  LIG1       -0.2284
     25 H          -4.7479   -3.6377   -0.0283 H       1  LIG1        0.0629
     26 N          -0.6675   -5.6151   -0.4371 N.pl3   1  LIG1       -0.3426
     27 H          -0.2040   -6.5051   -0.5236 H       1  LIG1        0.1437
     28 H          -0.1341   -4.7639   -0.4313 H       1  LIG1        0.1437
     29 C          -6.2870   -5.8918    0.0705 C.3     1  LIG1       -0.0376
     30 H          -6.5543   -6.4036    0.9976 H       1  LIG1        0.0278
     31 H          -6.7132   -6.4438   -0.7701 H       1  LIG1        0.0278
     32 H          -6.7287   -4.8959    0.0884 H       1  LIG1        0.0278
     33 C          -4.4289   -8.2872   -0.1006 C.ar    1  LIG1        0.1554
     34 C          -5.6166   -8.9443    0.0295 C.ar    1  LIG1        0.0018
     35 C          -5.3133  -10.3556    0.0056 C.ar    1  LIG1        0.0725
     36 C          -3.9493  -10.4460   -0.1449 C.ar    1  LIG1        0.1689
     37 O          -3.4423   -9.2061   -0.2091 O.2     1  LIG1       -0.4505
     38 H          -6.6013   -8.5296    0.1409 H       1  LIG1        0.0668
     39 C          -6.2491  -11.4284    0.1376 C.1     1  LIG1       -0.0658
     40 C          -7.0519  -12.3173    0.2565 C.1     1  LIG1       -0.1138
     41 H          -7.7638  -13.1004    0.3792 H       1  LIG1        0.1232
     42 C          -2.9168  -11.4537   -0.2544 C.ar    1  LIG1        0.1049
     43 C          -2.8423  -12.8341   -0.3943 C.ar    1  LIG1        0.0568
     44 C          -1.4637  -13.1790   -0.5149 C.ar    1  LIG1       -0.0037
     45 C          -0.7474  -11.9925   -0.4484 C.ar    1  LIG1        0.0553
     46 N          -1.6311  -10.9783   -0.2896 N.ar    1  LIG1       -0.3499
     47 H          -1.3912  -10.0111   -0.1245 H       1  LIG1        0.1661
     48 N          -3.8846  -13.7676   -0.3948 N.pl3   1  LIG1       -0.3560
     49 H          -4.8069  -13.3498   -0.3887 H       1  LIG1        0.1424
     50 H          -3.7941  -14.4524   -1.1354 H       1  LIG1        0.1424
     51 C          -0.9546  -14.5801   -0.7281 C.3     1  LIG1       -0.0359
     52 H           0.1235  -14.6118   -0.5854 H       1  LIG1        0.0279
     53 H          -1.1934  -14.9357   -1.7343 H       1  LIG1        0.0279
     54 H          -1.4255  -15.2508   -0.0062 H       1  LIG1        0.0279
     55 C           1.7158  -12.2150    0.1477 C.ar    1  LIG1        0.1267
     56 C           2.9788  -11.6447    0.1367 C.ar    1  LIG1       -0.0070
     57 C           0.6742  -11.5964   -0.5548 C.ar    1  LIG1        0.0418
     58 C           3.2457  -10.4539   -0.5552 C.ar    1  LIG1        0.0433
     59 H           3.7812  -12.0921    0.7158 H       1  LIG1        0.0662
     60 C           0.9579  -10.4336   -1.2680 C.ar    1  LIG1       -0.0277
     61 C           2.2165   -9.8295   -1.2830 C.ar    1  LIG1        0.0362
     62 H           0.1550   -9.9612   -1.8234 H       1  LIG1        0.0644
     63 O           1.4343  -13.3476    0.8574 O.3     1  LIG1       -0.5061
     64 H           2.1767  -13.5756    1.4269 H       1  LIG1        0.2922
     65 N           2.3634   -8.6145   -1.9634 N.pl3   1  LIG1       -0.3574
     66 H           3.3150   -8.3243   -2.1359 H       1  LIG1        0.1423
     67 H           1.7755   -8.5383   -2.7816 H       1  LIG1        0.1423
     68 C           4.5977   -9.8953   -0.4619 C.ar    1  LIG1        0.1618
     69 C           5.7994  -10.4278   -0.1020 C.ar    1  LIG1        0.1140
     70 C           6.7454   -9.3416   -0.1304 C.ar    1  LIG1        0.1871
     71 C           6.0648   -8.2234   -0.5225 C.ar    1  LIG1        0.1825
     72 O           4.7681   -8.5705   -0.7202 O.2     1  LIG1       -0.4489
     73 N           6.1282  -11.7433    0.2689 N.pl3   1  LIG1       -0.3522
     74 H           5.8659  -12.4162   -0.4452 H       1  LIG1        0.1425
     75 H           7.1274  -11.7998    0.4426 H       1  LIG1        0.1425
     76 O           8.0390   -9.5393    0.2262 O.3     1  LIG1       -0.4896
     77 C           8.4642   -8.7716    1.3517 C.3     1  LIG1        0.0791
     78 H           9.4886   -9.0754    1.5539 H       1  LIG1        0.0660
     79 H           8.4307   -7.7083    1.1175 H       1  LIG1        0.0660
     80 H           7.8267   -8.9901    2.2106 H       1  LIG1        0.0660
     81 C           7.6099   -6.3379   -1.1396 C.ar    1  LIG1        0.1277
     82 C           7.8185   -4.9807   -1.3812 C.ar    1  LIG1       -0.0183
     83 C           6.3458   -6.7986   -0.7513 C.ar    1  LIG1        0.0635
     84 C           6.7719   -4.0787   -1.2614 C.ar    1  LIG1       -0.0428
     85 H           8.8031   -4.6370   -1.6759 H       1  LIG1        0.0655
     86 C           5.2974   -5.8815   -0.6439 C.ar    1  LIG1       -0.0320
     87 C           5.4968   -4.5246   -0.8968 C.ar    1  LIG1        0.0256
     88 H           4.3133   -6.2394   -0.3705 H       1  LIG1        0.0638
     89 H           6.9313   -3.0266   -1.4532 H       1  LIG1        0.0631
     90 O           8.5999   -7.2562   -1.2721 O.3     1  LIG1       -0.5061
     91 H           9.4061   -6.8473   -1.6040 H       1  LIG1        0.2922
     92 C           4.4065   -3.5842   -0.7790 C.1     1  LIG1       -0.0696
     93 C           3.5180   -2.7794   -0.6792 C.1     1  LIG1       -0.1139
     94 H           2.7447   -2.0431   -0.5913 H       1  LIG1        0.1232
@<TRIPOS>BOND
     1    67    65    1
     2    66    65    1
     3    65    61    1
     4    62    60    1
     5    53    51    1
     6    85    82    1
     7    91    90    1
     8    18    13    1
     9    89    84    1
    10    82    84   ar
    11    82    81   ar
    12    17    16    1
    13    61    60   ar
    14    61    58   ar
    15    90    81    1
    16    60    57   ar
    17    84    87   ar
    18    81    83   ar
    19    50    48    1
    20    16    12    1
    21    13    12   ar
    22    13    14   ar
    23    87    92    1
    24    87    86   ar
    25    92    93    3
    26    31    29    1
    27    83    86   ar
    28    83    71    1
    29    51    52    1
    30    51    44    1
    31    51    54    1
    32    72    71   ar
    33    72    68   ar
    34    93    94    1
    35    12    11   ar
    36    86    88    1
    37    58    68    1
    38    58    56   ar
    39    57    45    1
    40    57    55   ar
    41    27    26    1
    42    71    70   ar
    43    44    45   ar
    44    44    43   ar
    45    68    69   ar
    46    45    46   ar
    47    74    73    1
    48    26    28    1
    49    26    19    1
    50    48    43    1
    51    48    49    1
    52    43    42   ar
    53    14    20    1
    54    14    15   ar
    55    19    24   ar
    56    19    20   ar
    57    46    42   ar
    58    46    47    1
    59    24    23   ar
    60    42    36    1
    61    10     3    1
    62    20    21   ar
    63    37    36   ar
    64    37    33   ar
    65    36    35   ar
    66    23    33    1
    67    23    22   ar
    68    70    69   ar
    69    70    76    1
    70    21    22   ar
    71    21    25    1
    72    69    73    1
    73    33    34   ar
    74    22    29    1
    75    35    34   ar
    76    35    39    1
    77    34    38    1
    78    29    32    1
    79    29    30    1
    80    11    15   ar
    81    11     4    1
    82    56    55   ar
    83    56    59    1
    84    39    40    3
    85    55    63    1
    86    76    77    1
    87    40    41    1
    88    73    75    1
    89     3     4   ar
    90     3     2   ar
    91     4     5   ar
    92    63    64    1
    93     9     8    1
    94    79    77    1
    95     2     8    1
    96     2     1   ar
    97    77    78    1
    98    77    80    1
    99     5     6    1
   100     5     1   ar
   101     1     7    1
