@<TRIPOS>MOLECULE
mol_data/opt/m06hf/geoms/mol2/13fa13fa13fa13fa.out
 38 41 0 0 0
SMALL
GASTEIGER

@<TRIPOS>ATOM
      1 C           1.2031    0.0440    0.3991 C.ar    1  LIG1        0.0442
      2 C           0.7641    1.2011   -0.1909 C.ar    1  LIG1        0.1347
      3 C          -0.6420    1.1004   -0.3830 C.ar    1  LIG1        0.0067
      4 C          -1.0178   -0.1306    0.1089 C.ar    1  LIG1        0.0701
      5 N           0.1032   -0.7619    0.5679 N.ar    1  LIG1       -0.3564
      6 H           0.0879   -1.6181    1.0965 H       1  LIG1        0.1655
      7 H           2.1920   -0.2489    0.6996 H       1  LIG1        0.0844
      8 O           1.5854    2.2381   -0.5365 O.3     1  LIG1       -0.5053
      9 H           1.0514    2.9720   -0.8538 H       1  LIG1        0.2922
     10 H          -1.3080    1.8203   -0.8293 H       1  LIG1        0.0676
     11 C          -2.3320   -0.7572    0.1804 C.ar    1  LIG1        0.1054
     12 C          -3.5651   -0.2206    0.4621 C.ar    1  LIG1        0.1441
     13 C          -4.5321   -1.2632    0.4185 C.ar    1  LIG1        0.0074
     14 C          -3.8514   -2.4176    0.0989 C.ar    1  LIG1        0.0705
     15 N          -2.5240   -2.1099   -0.0298 N.ar    1  LIG1       -0.3488
     16 H          -1.8583   -2.6880   -0.5184 H       1  LIG1        0.1661
     17 O          -3.7644    1.1003    0.7356 O.3     1  LIG1       -0.5046
     18 H          -4.6507    1.2240    1.0884 H       1  LIG1        0.2922
     19 H          -5.5916   -1.1990    0.6036 H       1  LIG1        0.0676
     20 C          -4.3492   -3.7683   -0.1070 C.ar    1  LIG1        0.1055
     21 C          -5.6017   -4.2012   -0.4741 C.ar    1  LIG1        0.1441
     22 C          -5.5786   -5.6200   -0.5682 C.ar    1  LIG1        0.0074
     23 C          -4.3008   -6.0147   -0.2427 C.ar    1  LIG1        0.0705
     24 N          -3.5595   -4.8932    0.0212 N.ar    1  LIG1       -0.3488
     25 H          -2.6966   -4.9108    0.5426 H       1  LIG1        0.1661
     26 O          -6.6440   -3.3546   -0.7104 O.3     1  LIG1       -0.5046
     27 H          -7.3825   -3.8481   -1.0799 H       1  LIG1        0.2922
     28 H          -6.3807   -6.2819   -0.8501 H       1  LIG1        0.0676
     29 C          -3.7217   -7.3490   -0.1547 C.ar    1  LIG1        0.1050
     30 C          -4.2679   -8.5313    0.2884 C.ar    1  LIG1        0.1434
     31 C          -3.2760   -9.5460    0.1863 C.ar    1  LIG1       -0.0021
     32 C          -2.1493   -8.9418   -0.3212 C.ar    1  LIG1        0.0058
     33 N          -2.4241   -7.6256   -0.5233 N.ar    1  LIG1       -0.3566
     34 H          -1.8239   -6.9695   -0.9953 H       1  LIG1        0.1655
     35 H          -1.1858   -9.3564   -0.5617 H       1  LIG1        0.0808
     36 O          -5.5579   -8.6492    0.7213 O.3     1  LIG1       -0.5046
     37 H          -5.6257   -9.3904    1.3310 H       1  LIG1        0.2922
     38 H          -3.3801  -10.5848    0.4518 H       1  LIG1        0.0669
@<TRIPOS>BOND
     1    27    26    1
     2    34    33    1
     3     9     8    1
     4    28    22    1
     5    10     3    1
     6    26    21    1
     7    22    21   ar
     8    22    23   ar
     9    35    32    1
    10     8     2    1
    11    33    32   ar
    12    33    29   ar
    13    16    15    1
    14    21    20   ar
    15     3     2   ar
    16     3     4   ar
    17    32    31   ar
    18    23    29    1
    19    23    24   ar
    20     2     1   ar
    21    29    30   ar
    22    20    24   ar
    23    20    14    1
    24    15    14   ar
    25    15    11   ar
    26    24    25    1
    27    14    13   ar
    28     4    11    1
    29     4     5   ar
    30    11    12   ar
    31    31    30   ar
    32    31    38    1
    33    30    36    1
    34     1     5   ar
    35     1     7    1
    36    13    12   ar
    37    13    19    1
    38    12    17    1
    39     5     6    1
    40    36    37    1
    41    17    18    1
