@<TRIPOS>MOLECULE
mol_data/opt/m06hf/geoms/mol2/13fa13fa13fa-13fa.out
 38 41 0 0 0
SMALL
GASTEIGER

@<TRIPOS>ATOM
      1 C           1.1237    0.1485    0.5076 C.ar    1  LIG1        0.0442
      2 C           0.7022    1.1961   -0.2709 C.ar    1  LIG1        0.1347
      3 C          -0.6812    1.0106   -0.5526 C.ar    1  LIG1        0.0067
      4 C          -1.0590   -0.1605    0.0780 C.ar    1  LIG1        0.0701
      5 N           0.0368   -0.6614    0.7160 N.ar    1  LIG1       -0.3564
      6 H           0.0098   -1.4619    1.3262 H       1  LIG1        0.1655
      7 H           2.0955   -0.0637    0.9142 H       1  LIG1        0.0844
      8 O           1.5099    2.2257   -0.6686 O.3     1  LIG1       -0.5053
      9 H           1.1512    2.6224   -1.4682 H       1  LIG1        0.2922
     10 H          -1.3163    1.6166   -1.1798 H       1  LIG1        0.0676
     11 C          -2.3743   -0.7873    0.1666 C.ar    1  LIG1        0.1054
     12 C          -3.5733   -0.1967    0.5044 C.ar    1  LIG1        0.1441
     13 C          -4.5773   -1.1951    0.5082 C.ar    1  LIG1        0.0074
     14 C          -3.9457   -2.3793    0.1685 C.ar    1  LIG1        0.0705
     15 N          -2.6242   -2.1249   -0.0257 N.ar    1  LIG1       -0.3488
     16 H          -1.9755   -2.8230   -0.3639 H       1  LIG1        0.1661
     17 O          -3.7701    1.1152    0.8113 O.3     1  LIG1       -0.5046
     18 H          -2.9054    1.5404    0.8864 H       1  LIG1        0.2922
     19 H          -5.6162   -1.0505    0.7504 H       1  LIG1        0.0676
     20 C          -4.4550   -3.7315   -0.0067 C.ar    1  LIG1        0.1055
     21 C          -3.7620   -4.8947   -0.2681 C.ar    1  LIG1        0.1441
     22 C          -4.6866   -5.9638   -0.3621 C.ar    1  LIG1        0.0074
     23 C          -5.9347   -5.4070   -0.1455 C.ar    1  LIG1        0.0705
     24 N          -5.7759   -4.0702    0.0583 N.ar    1  LIG1       -0.3488
     25 H          -6.5595   -3.4484    0.2114 H       1  LIG1        0.1661
     26 O          -2.3947   -4.9344   -0.4457 O.3     1  LIG1       -0.5046
     27 H          -2.0240   -5.6516    0.0795 H       1  LIG1        0.2922
     28 H          -4.4600   -6.9926   -0.5883 H       1  LIG1        0.0676
     29 C          -7.2693   -5.9886   -0.1161 C.ar    1  LIG1        0.1050
     30 C          -8.4898   -5.3560   -0.0391 C.ar    1  LIG1        0.1434
     31 C          -9.5115   -6.3422   -0.0366 C.ar    1  LIG1       -0.0021
     32 C          -8.8707   -7.5563   -0.1137 C.ar    1  LIG1        0.0058
     33 N          -7.5271   -7.3319   -0.1540 N.ar    1  LIG1       -0.3566
     34 H          -6.8179   -8.0462   -0.1767 H       1  LIG1        0.1655
     35 H          -9.2697   -8.5549   -0.1342 H       1  LIG1        0.0808
     36 O          -8.6200   -3.9877    0.0607 O.3     1  LIG1       -0.5046
     37 H          -9.2680   -3.6752   -0.5802 H       1  LIG1        0.2922
     38 H         -10.5739   -6.1772    0.0244 H       1  LIG1        0.0669
@<TRIPOS>BOND
     1     9     8    1
     2    10     3    1
     3     8     2    1
     4    28    22    1
     5    37    36    1
     6     3     2   ar
     7     3     4   ar
     8    26    21    1
     9    26    27    1
    10    16    15    1
    11    22    21   ar
    12    22    23   ar
    13     2     1   ar
    14    21    20   ar
    15    34    33    1
    16    33    29   ar
    17    33    32   ar
    18    23    29    1
    19    23    24   ar
    20    35    32    1
    21    29    30   ar
    22    32    31   ar
    23    30    31   ar
    24    30    36    1
    25    31    38    1
    26    15    11   ar
    27    15    14   ar
    28    20    24   ar
    29    20    14    1
    30    24    25    1
    31     4    11    1
    32     4     5   ar
    33    11    12   ar
    34    14    13   ar
    35    12    13   ar
    36    12    17    1
    37     1     5   ar
    38     1     7    1
    39    13    19    1
    40     5     6    1
    41    17    18    1
