@<TRIPOS>MOLECULE
mol_data/opt/m06hf/geoms/mol2/13fa4la-6fe-4aa-.out
 47 50 0 0 0
SMALL
GASTEIGER

@<TRIPOS>ATOM
      1 C           1.3320    0.0160    0.9885 C.ar    1  LIG1        0.0441
      2 C           1.2650    0.6654   -0.2202 C.ar    1  LIG1        0.1347
      3 C          -0.0306    0.4609   -0.7615 C.ar    1  LIG1        0.0053
      4 C          -0.7190   -0.3275    0.1427 C.ar    1  LIG1        0.0535
      5 N           0.1191   -0.5849    1.1890 N.ar    1  LIG1       -0.3575
      6 H          -0.1506   -1.0659    2.0311 H       1  LIG1        0.1654
      7 H           2.1359   -0.0456    1.6990 H       1  LIG1        0.0844
      8 O           2.2964    1.3849   -0.7527 O.3     1  LIG1       -0.5053
      9 H           2.0984    1.5977   -1.6697 H       1  LIG1        0.2922
     10 H          -0.4243    0.8202   -1.6980 H       1  LIG1        0.0675
     11 C          -3.1169   -0.2132   -0.5708 C.ar    1  LIG1        0.1297
     12 C          -4.4017   -0.7385   -0.6116 C.ar    1  LIG1       -0.0114
     13 C          -2.0815   -0.8852    0.0976 C.ar    1  LIG1        0.0401
     14 C          -4.6969   -1.9470    0.0229 C.ar    1  LIG1       -0.0093
     15 H          -5.1613   -0.1969   -1.1621 H       1  LIG1        0.0660
     16 C          -2.3836   -2.1048    0.7108 C.ar    1  LIG1       -0.0485
     17 C          -3.6723   -2.6268    0.6908 C.ar    1  LIG1       -0.0530
     18 H          -1.5929   -2.6676    1.1918 H       1  LIG1        0.0625
     19 O          -2.8764    0.9683   -1.2219 O.3     1  LIG1       -0.4944
     20 C          -2.8977    2.1090   -0.3590 C.3     1  LIG1        0.0788
     21 H          -2.6847    2.9691   -0.9887 H       1  LIG1        0.0660
     22 H          -3.8863    2.2093    0.0940 H       1  LIG1        0.0660
     23 H          -2.1329    2.0120    0.4129 H       1  LIG1        0.0660
     24 H          -3.8879   -3.5602    1.1976 H       1  LIG1        0.0624
     25 C          -6.3354   -3.8157   -0.4512 C.ar    1  LIG1        0.2208
     26 C          -6.0806   -2.4992   -0.0068 C.ar    1  LIG1        0.0448
     27 C          -7.1819   -1.7546    0.3723 C.ar    1  LIG1       -0.0315
     28 C          -8.4671   -2.3114    0.3521 C.ar    1  LIG1        0.0514
     29 C          -8.5935   -3.6523   -0.0469 C.ar    1  LIG1        0.0901
     30 N          -7.5343   -4.3558   -0.4555 N.ar    1  LIG1       -0.2113
     31 H          -7.0553   -0.7304    0.6996 H       1  LIG1        0.0638
     32 O          -5.3456   -4.6045   -0.9071 O.3     1  LIG1       -0.4920
     33 H          -4.5294   -4.0943   -0.9937 H       1  LIG1        0.2937
     34 C          -9.5828   -1.4668    0.6991 C.1     1  LIG1       -0.0675
     35 C         -10.4714   -0.7086    0.9850 C.1     1  LIG1       -0.1138
     36 H         -11.2709   -0.0482    1.2305 H       1  LIG1        0.1232
     37 C         -10.8824   -4.1860    0.8846 C.ar    1  LIG1       -0.0525
     38 C         -12.0658   -4.9170    0.8289 C.ar    1  LIG1       -0.0611
     39 C          -9.8941   -4.3857   -0.0805 C.ar    1  LIG1        0.0017
     40 C         -12.2702   -5.8432   -0.1897 C.ar    1  LIG1       -0.0617
     41 H         -12.8247   -4.7649    1.5849 H       1  LIG1        0.0618
     42 C         -10.0918   -5.3340   -1.0879 C.ar    1  LIG1       -0.0525
     43 C         -11.2798   -6.0520   -1.1476 C.ar    1  LIG1       -0.0611
     44 H          -9.3010   -5.4994   -1.8076 H       1  LIG1        0.0624
     45 H         -13.1932   -6.4071   -0.2328 H       1  LIG1        0.0618
     46 H         -10.7231   -3.4746    1.6833 H       1  LIG1        0.0624
     47 H         -11.4304   -6.7777   -1.9361 H       1  LIG1        0.0618
@<TRIPOS>BOND
     1    47    43    1
     2    44    42    1
     3    10     3    1
     4     9     8    1
     5    19    11    1
     6    19    20    1
     7    15    12    1
     8    43    42   ar
     9    43    40   ar
    10    42    39   ar
    11    33    32    1
    12    21    20    1
    13    32    25    1
    14     3     2   ar
    15     3     4   ar
    16     8     2    1
    17    12    11   ar
    18    12    14   ar
    19    11    13   ar
    20    30    25   ar
    21    30    29   ar
    22    25    26   ar
    23    20    22    1
    24    20    23    1
    25    45    40    1
    26     2     1   ar
    27    40    38   ar
    28    39    29    1
    29    39    37   ar
    30    29    28   ar
    31    26    14    1
    32    26    27   ar
    33    14    17   ar
    34    13     4    1
    35    13    16   ar
    36     4     5   ar
    37    28    27   ar
    38    28    34    1
    39    27    31    1
    40    17    16   ar
    41    17    24    1
    42    34    35    3
    43    16    18    1
    44    38    37   ar
    45    38    41    1
    46    37    46    1
    47    35    36    1
    48     1     5   ar
    49     1     7    1
    50     5     6    1
