@<TRIPOS>MOLECULE
mol_data/opt/m06hf/geoms/mol2/13fd13fd13fd13fd.out
 42 45 0 0 0
SMALL
GASTEIGER

@<TRIPOS>ATOM
      1 C           0.0218    1.8519   -0.0885 C.ar    1  LIG1        0.0455
      2 C           0.7636    0.7216    0.1258 C.ar    1  LIG1        0.1521
      3 C          -0.1292   -0.3899    0.0394 C.ar    1  LIG1        0.1198
      4 C          -1.3957    0.1218   -0.2301 C.ar    1  LIG1        0.0878
      5 N          -1.2813    1.4605   -0.2994 N.ar    1  LIG1       -0.3553
      6 H          -2.0714    2.0690   -0.4690 H       1  LIG1        0.1655
      7 H           0.3264    2.8820   -0.1005 H       1  LIG1        0.0845
      8 O           2.0914    0.6982    0.3916 O.3     1  LIG1       -0.5040
      9 H           2.4373   -0.1980    0.3204 H       1  LIG1        0.2923
     10 N           0.2634   -2.9180    0.3411 N.1     1  LIG1       -0.1907
     11 C           0.1410   -1.7790    0.2165 C.1     1  LIG1        0.1050
     12 C          -2.6575   -0.5706   -0.3960 C.ar    1  LIG1        0.1080
     13 C          -3.9241   -0.0627   -0.5440 C.ar    1  LIG1        0.1616
     14 C          -4.8206   -1.1663   -0.6107 C.ar    1  LIG1        0.1205
     15 C          -4.0551   -2.3238   -0.5128 C.ar    1  LIG1        0.0883
     16 N          -2.7673   -1.9430   -0.3900 N.ar    1  LIG1       -0.3478
     17 H          -1.9762   -2.5745   -0.3977 H       1  LIG1        0.1661
     18 O          -4.1917    1.2664   -0.5922 O.3     1  LIG1       -0.5034
     19 H          -5.1413    1.4332   -0.6198 H       1  LIG1        0.2923
     20 N          -7.3893   -1.1328   -0.7903 N.1     1  LIG1       -0.1907
     21 C          -6.2418   -1.1322   -0.7056 C.1     1  LIG1        0.1050
     22 C          -4.4323   -3.7243   -0.5050 C.ar    1  LIG1        0.1081
     23 C          -5.4436   -4.4066   -1.1481 C.ar    1  LIG1        0.1616
     24 C          -5.2449   -5.7906   -0.8689 C.ar    1  LIG1        0.1205
     25 C          -4.1304   -5.9081   -0.0551 C.ar    1  LIG1        0.0882
     26 N          -3.6513   -4.6575    0.1540 N.ar    1  LIG1       -0.3478
     27 H          -2.9832   -4.4305    0.8781 H       1  LIG1        0.1661
     28 O          -6.3891   -3.9459   -1.9911 O.3     1  LIG1       -0.5034
     29 H          -6.8738   -3.1924   -1.6262 H       1  LIG1        0.2923
     30 N          -6.5623   -7.8536   -1.6688 N.1     1  LIG1       -0.1907
     31 C          -5.9992   -6.9049   -1.3454 C.1     1  LIG1        0.1050
     32 C          -3.5249   -7.0894    0.5345 C.ar    1  LIG1        0.1076
     33 C          -4.1111   -8.2230    1.0608 C.ar    1  LIG1        0.1609
     34 C          -3.0555   -9.0336    1.5713 C.ar    1  LIG1        0.1110
     35 C          -1.8692   -8.3704    1.3332 C.ar    1  LIG1        0.0233
     36 N          -2.1611   -7.2068    0.7131 N.ar    1  LIG1       -0.3554
     37 H          -1.4771   -6.5708    0.3312 H       1  LIG1        0.1655
     38 H          -0.8586   -8.6672    1.5530 H       1  LIG1        0.0821
     39 O          -5.4233   -8.5125    1.1893 O.3     1  LIG1       -0.5034
     40 H          -5.8733   -8.5278    0.3312 H       1  LIG1        0.2923
     41 N          -3.2999  -11.3192    2.7427 N.1     1  LIG1       -0.1907
     42 C          -3.1987  -10.3020    2.2218 C.1     1  LIG1        0.1043
@<TRIPOS>BOND
     1    28    29    1
     2    28    23    1
     3    30    31    3
     4    31    24    1
     5    23    24   ar
     6    23    22   ar
     7    24    25   ar
     8    20    21    3
     9    21    14    1
    10    19    18    1
    11    14    13   ar
    12    14    15   ar
    13    18    13    1
    14    13    12   ar
    15    15    22    1
    16    15    16   ar
    17    22    26   ar
    18     6     5    1
    19    17    16    1
    20    12    16   ar
    21    12     4    1
    22     5     4   ar
    23     5     1   ar
    24     4     3   ar
    25     7     1    1
    26     1     2   ar
    27    25    26   ar
    28    25    32    1
    29     3     2   ar
    30     3    11    1
    31     2     8    1
    32    26    27    1
    33    11    10    3
    34     9     8    1
    35    37    36    1
    36    40    39    1
    37    32    36   ar
    38    32    33   ar
    39    36    35   ar
    40    33    39    1
    41    33    34   ar
    42    35    38    1
    43    35    34   ar
    44    34    42    1
    45    42    41    3
