@<TRIPOS>MOLECULE
mol_data/opt/m06hf/geoms/mol2/13fd13hf-6fe-6hd-.out
 47 50 0 0 0
SMALL
GASTEIGER

@<TRIPOS>ATOM
      1 C           1.2973    0.0276    0.0378 C.ar    1  LIG1        0.0455
      2 C           0.8213    1.2419    0.4480 C.ar    1  LIG1        0.1521
      3 C          -0.6057    1.1677    0.4233 C.ar    1  LIG1        0.1197
      4 C          -0.9519   -0.1023   -0.0192 C.ar    1  LIG1        0.0861
      5 N           0.2056   -0.7679   -0.2359 N.ar    1  LIG1       -0.3554
      6 H           0.2460   -1.6913   -0.6383 H       1  LIG1        0.1655
      7 H           2.3085   -0.3154   -0.0775 H       1  LIG1        0.0845
      8 O           1.5809    2.2984    0.8218 O.3     1  LIG1       -0.5040
      9 H           1.0220    3.0492    1.0521 H       1  LIG1        0.2923
     10 N          -2.2389    3.0327    1.1231 N.1     1  LIG1       -0.1907
     11 C          -1.5107    2.1943    0.8216 C.1     1  LIG1        0.1050
     12 C          -2.2539   -0.7101   -0.2366 C.ar    1  LIG1        0.0893
     13 C          -3.4237   -0.1766   -0.7160 C.ar    1  LIG1        0.0944
     14 C          -4.3683   -1.2651   -0.7556 C.ar    1  LIG1        0.1637
     15 C          -3.7620   -2.3974   -0.3026 C.ar    1  LIG1        0.0960
     16 N          -2.4249   -2.0873   -0.0293 N.ar    1  LIG1       -0.3484
     17 H          -2.0071   -2.5010    0.7996 H       1  LIG1        0.1661
     18 N          -3.7088    1.0785   -1.2158 N.pl3   1  LIG1       -0.3534
     19 H          -3.3348    1.8654   -0.7016 H       1  LIG1        0.1425
     20 H          -4.6866    1.1918   -1.4478 H       1  LIG1        0.1425
     21 O          -5.6254   -1.0833   -1.2323 O.3     1  LIG1       -0.5031
     22 H          -6.0005   -1.9199   -1.5335 H       1  LIG1        0.2923
     23 C          -3.5617   -4.8784   -0.5987 C.ar    1  LIG1        0.2224
     24 C          -4.3029   -3.7554   -0.1687 C.ar    1  LIG1        0.0645
     25 C          -5.5541   -4.0079    0.3708 C.ar    1  LIG1       -0.0299
     26 C          -6.0542   -5.3133    0.4476 C.ar    1  LIG1        0.0516
     27 C          -5.2506   -6.3586   -0.0498 C.ar    1  LIG1        0.0935
     28 N          -4.0280   -6.1061   -0.5344 N.ar    1  LIG1       -0.2111
     29 H          -6.1436   -3.1900    0.7670 H       1  LIG1        0.0639
     30 O          -2.3238   -4.7498   -1.0962 O.3     1  LIG1       -0.4919
     31 H          -2.0928   -3.8096   -1.1614 H       1  LIG1        0.2937
     32 C          -7.3265   -5.5107    1.0953 C.1     1  LIG1       -0.0675
     33 C          -8.3858   -5.6190    1.6528 C.1     1  LIG1       -0.1138
     34 H          -9.3234   -5.7337    2.1474 H       1  LIG1        0.1232
     35 C          -4.7643   -8.8610    0.0887 C.ar    1  LIG1        0.1255
     36 C          -5.6883   -7.7782   -0.0622 C.ar    1  LIG1        0.0424
     37 C          -7.0224   -8.1072   -0.2365 C.ar    1  LIG1       -0.0304
     38 C          -7.4329   -9.4391   -0.1856 C.ar    1  LIG1        0.0706
     39 C          -6.4617  -10.4154    0.0486 C.ar    1  LIG1        0.0471
     40 N          -5.1799  -10.1377    0.1720 N.ar    1  LIG1       -0.2388
     41 H          -7.7559   -7.3336   -0.4143 H       1  LIG1        0.0638
     42 H          -6.7458  -11.4584    0.1249 H       1  LIG1        0.0843
     43 N          -3.4371   -8.6772    0.1816 N.pl3   1  LIG1       -0.3426
     44 H          -2.8764   -9.5125    0.2364 H       1  LIG1        0.1437
     45 H          -3.0446   -7.7959   -0.1194 H       1  LIG1        0.1437
     46 N          -9.9220  -10.0806   -0.4973 N.1     1  LIG1       -0.1908
     47 C          -8.8171   -9.7993   -0.3593 C.1     1  LIG1        0.1007
@<TRIPOS>BOND
     1    22    21    1
     2    20    18    1
     3    21    14    1
     4    18    13    1
     5    18    19    1
     6    31    30    1
     7    30    23    1
     8    14    13   ar
     9    14    15   ar
    10    13    12   ar
    11     6     5    1
    12    23    28   ar
    13    23    24   ar
    14    28    27   ar
    15    46    47    3
    16    41    37    1
    17    47    38    1
    18    15    24    1
    19    15    16   ar
    20    12    16   ar
    21    12     4    1
    22    37    38   ar
    23    37    36   ar
    24     5     4   ar
    25     5     1   ar
    26    38    39   ar
    27    24    25   ar
    28    45    43    1
    29     7     1    1
    30    36    27    1
    31    36    35   ar
    32    27    26   ar
    33    16    17    1
    34     4     3   ar
    35     1     2   ar
    36    39    42    1
    37    39    40   ar
    38    35    40   ar
    39    35    43    1
    40    43    44    1
    41    25    26   ar
    42    25    29    1
    43     3     2   ar
    44     3    11    1
    45    26    32    1
    46     2     8    1
    47    11    10    3
    48     8     9    1
    49    32    33    3
    50    33    34    1
