@<TRIPOS>MOLECULE
mol_data/opt/m06hf/geoms/mol2/13fd13fd13fd-13fd-.out
 42 45 0 0 0
SMALL
GASTEIGER

@<TRIPOS>ATOM
      1 C           1.2364    0.0733    0.5316 C.ar    1  LIG1        0.0455
      2 C           0.8691    1.1698   -0.2003 C.ar    1  LIG1        0.1521
      3 C          -0.5286    1.0476   -0.4642 C.ar    1  LIG1        0.1198
      4 C          -0.9674   -0.1246    0.1324 C.ar    1  LIG1        0.0878
      5 N           0.1082   -0.6953    0.7195 N.ar    1  LIG1       -0.3553
      6 H           0.0614   -1.5112    1.3106 H       1  LIG1        0.1655
      7 H           2.1977   -0.2037    0.9222 H       1  LIG1        0.0845
      8 O           1.7054    2.1553   -0.5995 O.3     1  LIG1       -0.5040
      9 H           1.2178    2.8551   -1.0484 H       1  LIG1        0.2923
     10 N          -2.0749    2.6313   -1.7818 N.1     1  LIG1       -0.1907
     11 C          -1.3655    1.9298   -1.2081 C.1     1  LIG1        0.1050
     12 C          -2.3103   -0.6838    0.1718 C.ar    1  LIG1        0.1080
     13 C          -3.5264   -0.0502    0.3287 C.ar    1  LIG1        0.1616
     14 C          -4.5210   -1.0688    0.3506 C.ar    1  LIG1        0.1205
     15 C          -3.8755   -2.2888    0.2000 C.ar    1  LIG1        0.0883
     16 N          -2.5528   -2.0395    0.0919 N.ar    1  LIG1       -0.3478
     17 H          -1.8751   -2.7623   -0.1180 H       1  LIG1        0.1661
     18 O          -3.7806    1.2621    0.5290 O.3     1  LIG1       -0.5034
     19 H          -3.4841    1.8002   -0.2198 H       1  LIG1        0.2923
     20 N          -7.0768   -0.9904    0.6442 N.1     1  LIG1       -0.1907
     21 C          -5.9339   -0.9484    0.5182 C.1     1  LIG1        0.1050
     22 C          -4.4084   -3.6339    0.1390 C.ar    1  LIG1        0.1081
     23 C          -3.7279   -4.8250    0.0739 C.ar    1  LIG1        0.1616
     24 C          -4.6914   -5.8676    0.0585 C.ar    1  LIG1        0.1205
     25 C          -5.9460   -5.2672    0.0993 C.ar    1  LIG1        0.0882
     26 N          -5.7536   -3.9323    0.1479 N.ar    1  LIG1       -0.3478
     27 H          -6.4866   -3.2333    0.0991 H       1  LIG1        0.1661
     28 O          -2.3724   -4.9136    0.0529 O.3     1  LIG1       -0.5034
     29 H          -2.0895   -5.8301   -0.0534 H       1  LIG1        0.2923
     30 N          -4.2166   -8.3996    0.0768 N.1     1  LIG1       -0.1907
     31 C          -4.4326   -7.2699    0.0675 C.1     1  LIG1        0.1050
     32 C          -7.2592   -5.8882    0.0867 C.ar    1  LIG1        0.1076
     33 C          -7.6812   -7.0247   -0.5697 C.ar    1  LIG1        0.1609
     34 C          -9.0700   -7.1746   -0.2892 C.ar    1  LIG1        0.1110
     35 C          -9.4419   -6.1247    0.5255 C.ar    1  LIG1        0.0233
     36 N          -8.3485   -5.3610    0.7435 N.ar    1  LIG1       -0.3554
     37 H          -8.3190   -4.5614    1.3592 H       1  LIG1        0.1655
     38 H         -10.3999   -5.8917    0.9559 H       1  LIG1        0.0821
     39 O          -6.9599   -7.7996   -1.4166 O.3     1  LIG1       -0.5034
     40 H          -6.3695   -8.3976   -0.9368 H       1  LIG1        0.2923
     41 N         -10.6064   -9.0563   -1.1580 N.1     1  LIG1       -0.1907
     42 C          -9.9224   -8.2186   -0.7750 C.1     1  LIG1        0.1043
@<TRIPOS>BOND
     1    10    11    3
     2    39    40    1
     3    39    33    1
     4    11     3    1
     5    41    42    3
     6     9     8    1
     7    42    34    1
     8     8     2    1
     9    33    34   ar
    10    33    32   ar
    11     3     2   ar
    12     3     4   ar
    13    34    35   ar
    14    19    18    1
    15     2     1   ar
    16    17    16    1
    17    29    28    1
    18    28    23    1
    19    24    31    1
    20    24    23   ar
    21    24    25   ar
    22    31    30    3
    23    23    22   ar
    24    32    25    1
    25    32    36   ar
    26    16    12   ar
    27    16    15   ar
    28    27    26    1
    29    25    26   ar
    30     4    12    1
    31     4     5   ar
    32    22    26   ar
    33    22    15    1
    34    12    13   ar
    35    15    14   ar
    36    13    14   ar
    37    13    18    1
    38    14    21    1
    39    21    20    3
    40    35    36   ar
    41    35    38    1
    42     1     5   ar
    43     1     7    1
    44     5     6    1
    45    36    37    1
