@<TRIPOS>MOLECULE
mol_data/opt/m06hf/geoms/mol2/13fd13fd-13fd13fd-.out
 42 45 0 0 0
SMALL
GASTEIGER

@<TRIPOS>ATOM
      1 C           1.3692   -0.2018   -0.0240 C.ar    1  LIG1        0.0455
      2 C           0.9664    1.1062   -0.0070 C.ar    1  LIG1        0.1521
      3 C          -0.4614    1.1097    0.0012 C.ar    1  LIG1        0.1198
      4 C          -0.8742   -0.2179   -0.0115 C.ar    1  LIG1        0.0878
      5 N           0.2349   -0.9824   -0.0266 N.ar    1  LIG1       -0.3553
      6 H           0.1982   -1.9933   -0.0364 H       1  LIG1        0.1655
      7 H           2.3596   -0.6175   -0.0347 H       1  LIG1        0.0845
      8 O           1.7892    2.1832    0.0005 O.3     1  LIG1       -0.5040
      9 H           1.2730    2.9969    0.0065 H       1  LIG1        0.2923
     10 N          -2.0554    3.1342    0.0453 N.1     1  LIG1       -0.1907
     11 C          -1.3280    2.2423    0.0247 C.1     1  LIG1        0.1050
     12 C          -2.2074   -0.7860   -0.0093 C.ar    1  LIG1        0.1080
     13 C          -2.5814   -2.1079   -0.0026 C.ar    1  LIG1        0.1616
     14 C          -4.0017   -2.1523   -0.0007 C.ar    1  LIG1        0.1205
     15 C          -4.4455   -0.8304   -0.0061 C.ar    1  LIG1        0.0883
     16 N          -3.3598   -0.0342   -0.0130 N.ar    1  LIG1       -0.3478
     17 H          -3.4111    0.9822   -0.0195 H       1  LIG1        0.1661
     18 O          -1.6959   -3.1394   -0.0059 O.3     1  LIG1       -0.5034
     19 H          -2.1508   -3.9863    0.0727 H       1  LIG1        0.2923
     20 N          -5.5343   -4.2229    0.0097 N.1     1  LIG1       -0.1907
     21 C          -4.8366   -3.3080    0.0046 C.1     1  LIG1        0.1050
     22 C          -5.7843   -0.2833   -0.0053 C.ar    1  LIG1        0.1081
     23 C          -6.1463    1.0432   -0.0181 C.ar    1  LIG1        0.1616
     24 C          -7.5656    1.0966   -0.0100 C.ar    1  LIG1        0.1205
     25 C          -8.0191   -0.2229    0.0078 C.ar    1  LIG1        0.0882
     26 N          -6.9413   -1.0292    0.0096 N.ar    1  LIG1       -0.3478
     27 H          -7.0045   -2.0450    0.0206 H       1  LIG1        0.1661
     28 O          -5.2391    2.0477   -0.0482 O.3     1  LIG1       -0.5034
     29 H          -5.6435    2.9176    0.0450 H       1  LIG1        0.2923
     30 N          -9.1311    3.1409   -0.0270 N.1     1  LIG1       -0.1907
     31 C          -8.4066    2.2471   -0.0201 C.1     1  LIG1        0.1050
     32 C          -9.3647   -0.7575    0.0170 C.ar    1  LIG1        0.1076
     33 C          -9.7394   -2.0796    0.0321 C.ar    1  LIG1        0.1609
     34 C         -11.1590   -2.1225    0.0249 C.ar    1  LIG1        0.1110
     35 C         -11.6000   -0.8088    0.0054 C.ar    1  LIG1        0.0233
     36 N         -10.5199   -0.0070    0.0019 N.ar    1  LIG1       -0.3554
     37 H         -10.5408    1.0049   -0.0115 H       1  LIG1        0.1655
     38 H         -12.6047   -0.4244   -0.0057 H       1  LIG1        0.0821
     39 O          -8.8492   -3.0987    0.0577 O.3     1  LIG1       -0.5034
     40 H          -9.2810   -3.9588   -0.0129 H       1  LIG1        0.2923
     41 N         -12.4963   -4.3252    0.0390 N.1     1  LIG1       -0.1907
     42 C         -11.9353   -3.3232    0.0335 C.1     1  LIG1        0.1043
@<TRIPOS>BOND
     1    28    23    1
     2    28    29    1
     3     6     5    1
     4     7     1    1
     5    30    31    3
     6     5     1   ar
     7     5     4   ar
     8     1     2   ar
     9    31    24    1
    10    17    16    1
    11    23    24   ar
    12    23    22   ar
    13    16    12   ar
    14    16    15   ar
    15    40    39    1
    16    37    36    1
    17     4    12    1
    18     4     3   ar
    19    24    25   ar
    20    12    13   ar
    21     2     8    1
    22     2     3   ar
    23    15    22    1
    24    15    14   ar
    25    18    13    1
    26    18    19    1
    27    38    35    1
    28    22    26   ar
    29    13    14   ar
    30    14    21    1
    31     8     9    1
    32     3    11    1
    33    36    35   ar
    34    36    32   ar
    35    21    20    3
    36    35    34   ar
    37    25    26   ar
    38    25    32    1
    39    26    27    1
    40    32    33   ar
    41    11    10    3
    42    34    33   ar
    43    34    42    1
    44    33    39    1
    45    42    41    3
