@<TRIPOS>MOLECULE
mol_data/opt/m06hf/geoms/mol2/13fd13fd13fd-13fd.out
 42 45 0 0 0
SMALL
GASTEIGER

@<TRIPOS>ATOM
      1 C           1.1892    0.0298    0.6413 C.ar    1  LIG1        0.0455
      2 C           0.8203    1.1621   -0.0314 C.ar    1  LIG1        0.1521
      3 C          -0.5732    1.0431   -0.3205 C.ar    1  LIG1        0.1198
      4 C          -1.0091   -0.1643    0.2039 C.ar    1  LIG1        0.0878
      5 N           0.0657   -0.7588    0.7695 N.ar    1  LIG1       -0.3553
      6 H           0.0186   -1.6070    1.3134 H       1  LIG1        0.1655
      7 H           2.1483   -0.2624    1.0264 H       1  LIG1        0.0845
      8 O           1.6517    2.1737   -0.3753 O.3     1  LIG1       -0.5040
      9 H           1.1485    2.9364   -0.6824 H       1  LIG1        0.2923
     10 N          -2.1016    2.6844   -1.5877 N.1     1  LIG1       -0.1907
     11 C          -1.4020    1.9572   -1.0342 C.1     1  LIG1        0.1050
     12 C          -2.3460   -0.7370    0.2002 C.ar    1  LIG1        0.1080
     13 C          -3.5705   -0.1234    0.3698 C.ar    1  LIG1        0.1616
     14 C          -4.5561   -1.1507    0.3396 C.ar    1  LIG1        0.1205
     15 C          -3.8967   -2.3567    0.1470 C.ar    1  LIG1        0.0883
     16 N          -2.5737   -2.0898    0.0639 N.ar    1  LIG1       -0.3478
     17 H          -1.8894   -2.7951   -0.1807 H       1  LIG1        0.1661
     18 O          -3.8376    1.1784    0.6200 O.3     1  LIG1       -0.5034
     19 H          -3.5388    1.7485   -0.1035 H       1  LIG1        0.2923
     20 N          -7.1155   -1.0044    0.6006 N.1     1  LIG1       -0.1907
     21 C          -5.9713   -1.0197    0.4893 C.1     1  LIG1        0.1050
     22 C          -4.4045   -3.7065    0.0151 C.ar    1  LIG1        0.1081
     23 C          -3.6950   -4.8680   -0.1727 C.ar    1  LIG1        0.1616
     24 C          -4.6296   -5.9344   -0.2447 C.ar    1  LIG1        0.1205
     25 C          -5.8969   -5.3701   -0.0977 C.ar    1  LIG1        0.0882
     26 N          -5.7386   -4.0426    0.0576 N.ar    1  LIG1       -0.3478
     27 H          -6.5179   -3.3988    0.1892 H       1  LIG1        0.1661
     28 O          -2.3374   -4.9179   -0.2542 O.3     1  LIG1       -0.5034
     29 H          -2.0412   -5.7990   -0.5111 H       1  LIG1        0.2923
     30 N          -4.1686   -8.4471   -0.5707 N.1     1  LIG1       -0.1907
     31 C          -4.3558   -7.3208   -0.4269 C.1     1  LIG1        0.1050
     32 C          -7.2100   -5.9794   -0.0938 C.ar    1  LIG1        0.1076
     33 C          -8.4207   -5.3454    0.0532 C.ar    1  LIG1        0.1609
     34 C          -9.4338   -6.3394   -0.0108 C.ar    1  LIG1        0.1110
     35 C          -8.7932   -7.5539   -0.1972 C.ar    1  LIG1        0.0233
     36 N          -7.4679   -7.3240   -0.2439 N.ar    1  LIG1       -0.3554
     37 H          -6.7567   -8.0321   -0.3745 H       1  LIG1        0.1655
     38 H          -9.2107   -8.5404   -0.2961 H       1  LIG1        0.0821
     39 O          -8.5290   -4.0083    0.2223 O.3     1  LIG1       -0.5034
     40 H          -9.4447   -3.7184    0.3152 H       1  LIG1        0.2923
     41 N         -11.9529   -5.8247    0.1777 N.1     1  LIG1       -0.1907
     42 C         -10.8380   -6.0869    0.0925 C.1     1  LIG1        0.1043
@<TRIPOS>BOND
     1    10    11    3
     2    11     3    1
     3     9     8    1
     4    30    31    3
     5    29    28    1
     6    31    24    1
     7     8     2    1
     8    37    36    1
     9     3     2   ar
    10     3     4   ar
    11    38    35    1
    12    28    23    1
    13    24    23   ar
    14    24    25   ar
    15    36    35   ar
    16    36    32   ar
    17    35    34   ar
    18    17    16    1
    19    23    22   ar
    20    19    18    1
    21    25    32    1
    22    25    26   ar
    23    32    33   ar
    24     2     1   ar
    25    34    33   ar
    26    34    42    1
    27    22    26   ar
    28    22    15    1
    29    33    39    1
    30    26    27    1
    31    16    15   ar
    32    16    12   ar
    33    42    41    3
    34    15    14   ar
    35    12     4    1
    36    12    13   ar
    37     4     5   ar
    38    39    40    1
    39    14    13   ar
    40    14    21    1
    41    13    18    1
    42    21    20    3
    43     1     5   ar
    44     1     7    1
    45     5     6    1
