@<TRIPOS>MOLECULE
mol_data/opt/m06hf/geoms/mol2/13fd13fd-13fd-13fd.out
 42 45 0 0 0
SMALL
GASTEIGER

@<TRIPOS>ATOM
      1 C           1.2960   -0.0919   -0.2193 C.ar    1  LIG1        0.0455
      2 C           0.8287    1.1869   -0.3595 C.ar    1  LIG1        0.1521
      3 C          -0.5969    1.1230   -0.3050 C.ar    1  LIG1        0.1198
      4 C          -0.9404   -0.2151   -0.1344 C.ar    1  LIG1        0.0878
      5 N           0.2045   -0.9205   -0.0852 N.ar    1  LIG1       -0.3553
      6 H           0.2236   -1.9221    0.0549 H       1  LIG1        0.1655
      7 H           2.3064   -0.4561   -0.2053 H       1  LIG1        0.0845
      8 O           1.6028    2.2872   -0.5132 O.3     1  LIG1       -0.5040
      9 H           1.0590    3.0747   -0.6241 H       1  LIG1        0.2923
     10 N          -2.3580    3.0010   -0.4207 N.1     1  LIG1       -0.1907
     11 C          -1.5402    2.1913   -0.3729 C.1     1  LIG1        0.1050
     12 C          -2.2465   -0.8289   -0.0053 C.ar    1  LIG1        0.1080
     13 C          -2.5782   -2.1194    0.3223 C.ar    1  LIG1        0.1616
     14 C          -3.9987   -2.1953    0.3739 C.ar    1  LIG1        0.1205
     15 C          -4.4900   -0.9325    0.0565 C.ar    1  LIG1        0.0883
     16 N          -3.4251   -0.1357   -0.1708 N.ar    1  LIG1       -0.3478
     17 H          -3.4783    0.8186   -0.5045 H       1  LIG1        0.1661
     18 O          -1.6590   -3.0912    0.5529 O.3     1  LIG1       -0.5034
     19 H          -2.0792   -3.9027    0.8616 H       1  LIG1        0.2923
     20 N          -5.4598   -4.2123    1.0288 N.1     1  LIG1       -0.1907
     21 C          -4.7949   -3.3179    0.7411 C.1     1  LIG1        0.1050
     22 C          -5.8455   -0.4240   -0.0289 C.ar    1  LIG1        0.1081
     23 C          -7.0394   -1.0208   -0.3884 C.ar    1  LIG1        0.1616
     24 C          -8.0226    0.0078   -0.4073 C.ar    1  LIG1        0.1205
     25 C          -7.3936    1.1974   -0.0615 C.ar    1  LIG1        0.0882
     26 N          -6.0955    0.9183    0.1699 N.ar    1  LIG1       -0.3478
     27 H          -5.4450    1.6166    0.5153 H       1  LIG1        0.1661
     28 O          -7.2919   -2.2915   -0.7652 O.3     1  LIG1       -0.5034
     29 H          -6.9099   -2.9403   -0.1581 H       1  LIG1        0.2923
     30 N         -10.5389   -0.0507   -0.9459 N.1     1  LIG1       -0.1907
     31 C          -9.4120   -0.0889   -0.7202 C.1     1  LIG1        0.1050
     32 C          -7.8942    2.5505    0.0665 C.ar    1  LIG1        0.1076
     33 C          -7.1715    3.6803    0.3680 C.ar    1  LIG1        0.1609
     34 C          -8.0696    4.7799    0.3507 C.ar    1  LIG1        0.1110
     35 C          -9.3188    4.2705    0.0325 C.ar    1  LIG1        0.0233
     36 N          -9.1988    2.9399   -0.1286 N.ar    1  LIG1       -0.3554
     37 H          -9.9491    2.3045   -0.3717 H       1  LIG1        0.1655
     38 H         -10.2576    4.7833   -0.0836 H       1  LIG1        0.0821
     39 O          -5.8428    3.6565    0.6507 O.3     1  LIG1       -0.5034
     40 H          -5.4279    4.5183    0.5196 H       1  LIG1        0.2923
     41 N          -7.3561    7.2130    0.8153 N.1     1  LIG1       -0.1907
     42 C          -7.7062    6.1393    0.6068 C.1     1  LIG1        0.1043
@<TRIPOS>BOND
     1    30    31    3
     2    28    23    1
     3    28    29    1
     4    31    24    1
     5     9     8    1
     6     8     2    1
     7    17    16    1
     8    10    11    3
     9    24    23   ar
    10    24    25   ar
    11    23    22   ar
    12    11     3    1
    13    37    36    1
    14     2     3   ar
    15     2     1   ar
    16     3     4   ar
    17     1     7    1
    18     1     5   ar
    19    16    12   ar
    20    16    15   ar
    21     4     5   ar
    22     4    12    1
    23    36    35   ar
    24    36    32   ar
    25     5     6    1
    26    38    35    1
    27    25    32    1
    28    25    26   ar
    29    22    15    1
    30    22    26   ar
    31    12    13   ar
    32    35    34   ar
    33    15    14   ar
    34    32    33   ar
    35    26    27    1
    36    13    14   ar
    37    13    18    1
    38    34    33   ar
    39    34    42    1
    40    33    39    1
    41    14    21    1
    42    40    39    1
    43    18    19    1
    44    42    41    3
    45    21    20    3
