@<TRIPOS>MOLECULE
mol_data/opt/m06hf/geoms/mol2/13fd13fd-13fd.out
 32 34 0 0 0
SMALL
GASTEIGER

@<TRIPOS>ATOM
      1 C           1.2770   -0.1885    0.0018 C.ar    1  LIG1        0.0455
      2 C           0.8576    1.1143    0.0014 C.ar    1  LIG1        0.1521
      3 C          -0.5700    1.1000    0.0012 C.ar    1  LIG1        0.1198
      4 C          -0.9665   -0.2325    0.0015 C.ar    1  LIG1        0.0878
      5 N           0.1531   -0.9833    0.0017 N.ar    1  LIG1       -0.3553
      6 H           0.1316   -1.9946    0.0020 H       1  LIG1        0.1655
      7 H           2.2715   -0.5934    0.0020 H       1  LIG1        0.0845
      8 O           1.6700    2.1985    0.0013 O.3     1  LIG1       -0.5040
      9 H           1.1492    3.0097    0.0009 H       1  LIG1        0.2923
     10 N          -2.1842    3.1093    0.0005 N.1     1  LIG1       -0.1907
     11 C          -1.4493    2.2235    0.0008 C.1     1  LIG1        0.1050
     12 C          -2.2908   -0.8222    0.0014 C.ar    1  LIG1        0.1080
     13 C          -2.6384   -2.1506    0.0016 C.ar    1  LIG1        0.1616
     14 C          -4.0577   -2.2224    0.0015 C.ar    1  LIG1        0.1205
     15 C          -4.5284   -0.9103    0.0013 C.ar    1  LIG1        0.0882
     16 N          -3.4582   -0.0930    0.0013 N.ar    1  LIG1       -0.3478
     17 H          -3.5340    0.9226    0.0011 H       1  LIG1        0.1661
     18 O          -1.7330   -3.1648    0.0018 O.3     1  LIG1       -0.5034
     19 H          -2.1732   -4.0225    0.0016 H       1  LIG1        0.2923
     20 N          -5.5602   -4.3149    0.0016 N.1     1  LIG1       -0.1907
     21 C          -4.8730   -3.3917    0.0016 C.1     1  LIG1        0.1050
     22 C          -5.8775   -0.3842    0.0012 C.ar    1  LIG1        0.1076
     23 C          -6.2559    0.9366    0.0010 C.ar    1  LIG1        0.1609
     24 C          -7.6761    0.9751    0.0010 C.ar    1  LIG1        0.1110
     25 C          -8.1131   -0.3397    0.0011 C.ar    1  LIG1        0.0233
     26 N          -7.0295   -1.1387    0.0012 N.ar    1  LIG1       -0.3554
     27 H          -7.0506   -2.1504    0.0014 H       1  LIG1        0.1655
     28 H          -9.1156   -0.7292    0.0012 H       1  LIG1        0.0821
     29 O          -5.3636    1.9540    0.0009 O.3     1  LIG1       -0.5034
     30 H          -5.7916    2.8186    0.0009 H       1  LIG1        0.2923
     31 N          -9.0457    3.1591    0.0008 N.1     1  LIG1       -0.1907
     32 C          -8.4643    2.1688    0.0009 C.1     1  LIG1        0.1043
@<TRIPOS>BOND
     1    10    11    3
     2    31    32    3
     3    11     3    1
     4    32    24    1
     5    29    30    1
     6    29    23    1
     7     9     8    1
     8    24    23   ar
     9    24    25   ar
    10    23    22   ar
    11    25    28    1
    12    25    26   ar
    13    17    16    1
    14    22    26   ar
    15    22    15    1
    16     3     2   ar
    17     3     4   ar
    18    26    27    1
    19    16    15   ar
    20    16    12   ar
    21    15    14   ar
    22     8     2    1
    23    12     4    1
    24    12    13   ar
    25     2     1   ar
    26     4     5   ar
    27    14    21    1
    28    14    13   ar
    29    19    18    1
    30    21    20    3
    31    13    18    1
    32     5     1   ar
    33     5     6    1
    34     1     7    1
