@<TRIPOS>MOLECULE
mol_data/opt/m06hf/geoms/mol2/13fd13il-6ld4ef-.out
 53 56 0 0 0
SMALL
GASTEIGER

@<TRIPOS>ATOM
      1 C           1.3509   -0.1802   -0.0669 C.ar    1  LIG1        0.0441
      2 C           0.8995    1.1120   -0.2085 C.ar    1  LIG1        0.1347
      3 C          -0.5155    1.0850   -0.2002 C.ar    1  LIG1        0.0053
      4 C          -0.8886   -0.2445   -0.0535 C.ar    1  LIG1        0.0553
      5 N           0.2520   -0.9808    0.0260 N.ar    1  LIG1       -0.3575
      6 H           0.2369   -1.9820    0.1527 H       1  LIG1        0.1654
      7 H           2.3539   -0.5632   -0.0236 H       1  LIG1        0.0844
      8 O           1.7244    2.1967   -0.3229 O.3     1  LIG1       -0.5053
      9 H           1.1969    2.9865   -0.4734 H       1  LIG1        0.2922
     10 H          -1.1714    1.9375   -0.2765 H       1  LIG1        0.0675
     11 C          -2.4793   -2.1999    0.2710 C.ar    1  LIG1        0.2247
     12 C          -2.2314   -0.8375    0.0070 C.ar    1  LIG1        0.0634
     13 C          -3.3633   -0.0556   -0.2063 C.ar    1  LIG1       -0.0035
     14 C          -4.6385   -0.6084   -0.1420 C.ar    1  LIG1        0.1499
     15 C          -4.7661   -1.9674    0.1683 C.ar    1  LIG1        0.1531
     16 N          -3.6780   -2.7217    0.3555 N.ar    1  LIG1       -0.2054
     17 H          -3.2350    0.9902   -0.4464 H       1  LIG1        0.0663
     18 O          -1.4156   -3.0249    0.4527 O.3     1  LIG1       -0.4792
     19 C          -1.7110   -4.3893    0.7530 C.3     1  LIG1        0.0804
     20 H          -0.7446   -4.8760    0.8504 H       1  LIG1        0.0660
     21 H          -2.2753   -4.4515    1.6822 H       1  LIG1        0.0660
     22 H          -2.2943   -4.8322   -0.0531 H       1  LIG1        0.0660
     23 O          -5.7790    0.0977   -0.3935 O.3     1  LIG1       -0.4928
     24 C          -5.6521    1.3640   -1.0192 C.3     1  LIG1        0.0789
     25 H          -6.6638    1.6760   -1.2643 H       1  LIG1        0.0660
     26 H          -5.1986    2.0894   -0.3400 H       1  LIG1        0.0660
     27 H          -5.0575    1.2769   -1.9309 H       1  LIG1        0.0660
     28 C          -6.0574   -2.6475    0.2722 C.ar    1  LIG1        0.1793
     29 C          -7.3107   -2.2858    0.6875 C.ar    1  LIG1        0.0889
     30 C          -8.1137   -3.4857    0.6001 C.ar    1  LIG1        0.0918
     31 C          -7.2796   -4.4754    0.1497 C.ar    1  LIG1        0.1564
     32 O          -6.0537   -3.9782   -0.0400 O.2     1  LIG1       -0.4499
     33 N          -7.7738   -1.0943    1.2052 N.pl3   1  LIG1       -0.3540
     34 H          -7.3074   -0.2785    0.8312 H       1  LIG1        0.1425
     35 H          -8.7830   -1.0353    1.2266 H       1  LIG1        0.1425
     36 C          -9.4782   -3.5400    1.0247 C.1     1  LIG1       -0.0640
     37 C         -10.6113   -3.4905    1.4272 C.1     1  LIG1       -0.1137
     38 H         -11.6097   -3.4658    1.7969 H       1  LIG1        0.1232
     39 C          -8.6378   -6.4547   -0.5658 C.ar    1  LIG1        0.1308
     40 C          -8.7655   -7.8336   -0.7310 C.ar    1  LIG1       -0.0192
     41 C          -7.4321   -5.9180   -0.0872 C.ar    1  LIG1        0.0601
     42 C          -7.6825   -8.6659   -0.4559 C.ar    1  LIG1       -0.0583
     43 H          -9.6928   -8.2578   -1.0885 H       1  LIG1        0.0654
     44 C          -6.3531   -6.7649    0.1614 C.ar    1  LIG1       -0.0475
     45 C          -6.4713   -8.1387   -0.0217 C.ar    1  LIG1       -0.0609
     46 H          -5.4273   -6.3265    0.5111 H       1  LIG1        0.0626
     47 H          -7.7921   -9.7340   -0.5918 H       1  LIG1        0.0619
     48 O          -9.6081   -5.5668   -0.8706 O.3     1  LIG1       -0.4944
     49 C         -10.9260   -6.0376   -1.0659 C.3     1  LIG1        0.0788
     50 H         -11.5415   -5.1471   -1.1609 H       1  LIG1        0.0660
     51 H         -10.9952   -6.6349   -1.9781 H       1  LIG1        0.0660
     52 H         -11.2515   -6.6259   -0.2045 H       1  LIG1        0.0660
     53 H          -5.6318   -8.7886    0.1826 H       1  LIG1        0.0618
@<TRIPOS>BOND
     1    51    49    1
     2    27    24    1
     3    25    24    1
     4    50    49    1
     5    43    40    1
     6    49    48    1
     7    49    52    1
     8    24    23    1
     9    24    26    1
    10    48    39    1
    11    40    39   ar
    12    40    42   ar
    13    47    42    1
    14    39    41   ar
    15     9     8    1
    16    42    45   ar
    17    17    13    1
    18    23    14    1
    19     8     2    1
    20    10     3    1
    21     2     3   ar
    22     2     1   ar
    23    13    14   ar
    24    13    12   ar
    25     3     4   ar
    26    14    15   ar
    27    41    31    1
    28    41    44   ar
    29     1     7    1
    30     1     5   ar
    31     4    12    1
    32     4     5   ar
    33    22    19    1
    34    32    31   ar
    35    32    28   ar
    36    45    44   ar
    37    45    53    1
    38    12    11   ar
    39     5     6    1
    40    31    30   ar
    41    44    46    1
    42    15    28    1
    43    15    16   ar
    44    11    16   ar
    45    11    18    1
    46    28    29   ar
    47    18    19    1
    48    30    29   ar
    49    30    36    1
    50    29    33    1
    51    19    20    1
    52    19    21    1
    53    34    33    1
    54    36    37    3
    55    33    35    1
    56    37    38    1
