@<TRIPOS>MOLECULE
mol_data/opt/m06hf/geoms/mol2/13fd13fd.out
 22 23 0 0 0
SMALL
GASTEIGER

@<TRIPOS>ATOM
      1 C           1.1587   -0.2391   -0.5443 C.ar    1  LIG1        0.0455
      2 C           0.7863    0.9901   -0.0697 C.ar    1  LIG1        0.1521
      3 C          -0.6070    0.9266    0.2301 C.ar    1  LIG1        0.1198
      4 C          -1.0406   -0.3508   -0.0809 C.ar    1  LIG1        0.0878
      5 N           0.0353   -1.0344   -0.5412 N.ar    1  LIG1       -0.3553
      6 H          -0.0161   -1.9599   -0.9369 H       1  LIG1        0.1655
      7 H           2.1176   -0.5906   -0.8770 H       1  LIG1        0.0845
      8 O           1.6079    2.0535    0.0924 O.3     1  LIG1       -0.5040
      9 H           1.1125    2.8021    0.4459 H       1  LIG1        0.2923
     10 N          -1.9302    2.8922    1.2423 N.1     1  LIG1       -0.1907
     11 C          -1.3773    1.9941    0.7869 C.1     1  LIG1        0.1050
     12 C          -2.3746   -0.9264    0.0317 C.ar    1  LIG1        0.1076
     13 C          -3.5815   -0.4127   -0.3722 C.ar    1  LIG1        0.1609
     14 C          -4.5871   -1.3572   -0.0072 C.ar    1  LIG1        0.1110
     15 C          -3.9514   -2.4172    0.6110 C.ar    1  LIG1        0.0233
     16 N          -2.6305   -2.1505    0.6210 N.ar    1  LIG1       -0.3554
     17 H          -1.9318   -2.7071    1.0886 H       1  LIG1        0.1655
     18 H          -4.3661   -3.3137    1.0370 H       1  LIG1        0.0821
     19 O          -3.7361    0.7536   -1.0306 O.3     1  LIG1       -0.5034
     20 H          -4.6481    1.0629   -0.9702 H       1  LIG1        0.2923
     21 N          -7.0972   -1.0150   -0.4864 N.1     1  LIG1       -0.1907
     22 C          -5.9863   -1.1987   -0.2603 C.1     1  LIG1        0.1043
@<TRIPOS>BOND
     1    19    20    1
     2    19    13    1
     3     6     5    1
     4     7     1    1
     5     1     5   ar
     6     1     2   ar
     7     5     4   ar
     8    21    22    3
     9    13    14   ar
    10    13    12   ar
    11    22    14    1
    12     4    12    1
    13     4     3   ar
    14     2     8    1
    15     2     3   ar
    16    14    15   ar
    17    12    16   ar
    18     8     9    1
    19     3    11    1
    20    15    16   ar
    21    15    18    1
    22    16    17    1
    23    11    10    3
