@<TRIPOS>MOLECULE
mol_data/opt/m06hf/geoms/mol2/13fd13fd-4fd13fd.out
 44 47 0 0 0
SMALL
GASTEIGER

@<TRIPOS>ATOM
      1 C           1.3885   -0.2019   -0.0250 C.ar    1  LIG1        0.0455
      2 C           0.9689    1.1007   -0.0471 C.ar    1  LIG1        0.1521
      3 C          -0.4590    1.0850   -0.0405 C.ar    1  LIG1        0.1198
      4 C          -0.8539   -0.2488   -0.0145 C.ar    1  LIG1        0.0878
      5 N           0.2651   -0.9977   -0.0056 N.ar    1  LIG1       -0.3553
      6 H           0.2452   -2.0091    0.0154 H       1  LIG1        0.1655
      7 H           2.3839   -0.6053   -0.0218 H       1  LIG1        0.0845
      8 O           1.7800    2.1862   -0.0715 O.3     1  LIG1       -0.5040
      9 H           1.2566    2.9951   -0.0741 H       1  LIG1        0.2923
     10 N          -2.1003    3.0718   -0.0681 N.1     1  LIG1       -0.1907
     11 C          -1.3470    2.2011   -0.0562 C.1     1  LIG1        0.1050
     12 C          -2.1791   -0.8345    0.0029 C.ar    1  LIG1        0.1080
     13 C          -2.5435   -2.1597    0.0371 C.ar    1  LIG1        0.1615
     14 C          -3.9597   -2.2131    0.0452 C.ar    1  LIG1        0.1190
     15 C          -4.4264   -0.8924    0.0149 C.ar    1  LIG1        0.0717
     16 N          -3.3333   -0.1013   -0.0108 N.ar    1  LIG1       -0.3489
     17 H          -3.3920    0.9133   -0.0326 H       1  LIG1        0.1661
     18 O          -1.6568   -3.1880    0.0567 O.3     1  LIG1       -0.5034
     19 H          -2.1162   -4.0350    0.1186 H       1  LIG1        0.2923
     20 N          -5.1980   -4.4713    0.1087 N.1     1  LIG1       -0.1907
     21 C          -4.6813   -3.4440    0.0810 C.1     1  LIG1        0.1050
     22 C          -6.0740    1.0205    0.0005 C.ar    1  LIG1        0.1267
     23 C          -7.3708    1.5118   -0.0077 C.ar    1  LIG1       -0.0091
     24 C          -5.8013   -0.3617    0.0078 C.ar    1  LIG1        0.0423
     25 C          -8.4765    0.6568   -0.0035 C.ar    1  LIG1        0.0227
     26 H          -7.5288    2.5819   -0.0166 H       1  LIG1        0.0661
     27 C          -6.8996   -1.2153    0.0075 C.ar    1  LIG1       -0.0310
     28 C          -8.2050   -0.7252    0.0042 C.ar    1  LIG1        0.0618
     29 H          -6.7589   -2.2878    0.0107 H       1  LIG1        0.0638
     30 O          -5.0155    1.8666   -0.0029 O.3     1  LIG1       -0.5061
     31 H          -5.2669    2.7967   -0.0066 H       1  LIG1        0.2922
     32 N         -10.1239   -2.4717    0.0047 N.1     1  LIG1       -0.1908
     33 C          -9.2660   -1.7068    0.0084 C.1     1  LIG1        0.0998
     34 C          -9.8195    1.2487   -0.0092 C.ar    1  LIG1        0.0912
     35 C         -10.1776    2.5835    0.0712 C.ar    1  LIG1        0.1594
     36 C         -11.5932    2.6626    0.0190 C.ar    1  LIG1        0.1109
     37 C         -12.0665    1.3675   -0.0939 C.ar    1  LIG1        0.0233
     38 N         -11.0087    0.5455   -0.1097 N.ar    1  LIG1       -0.3565
     39 H         -11.0748   -0.4618   -0.1818 H       1  LIG1        0.1655
     40 H         -13.0779    1.0070   -0.1618 H       1  LIG1        0.0821
     41 O          -9.3318    3.6348    0.1836 O.3     1  LIG1       -0.5034
     42 H          -9.8331    4.4595    0.2286 H       1  LIG1        0.2923
     43 N         -12.8199    4.9251    0.1277 N.1     1  LIG1       -0.1907
     44 C         -12.3197    3.8918    0.0771 C.1     1  LIG1        0.1043
@<TRIPOS>BOND
     1    39    38    1
     2    40    37    1
     3    38    37   ar
     4    38    34   ar
     5    37    36   ar
     6     9     8    1
     7     8     2    1
     8    10    11    3
     9    11     3    1
    10     2     3   ar
    11     2     1   ar
    12     3     4   ar
    13    17    16    1
    14     1     7    1
    15     1     5   ar
    16    26    23    1
    17     4     5   ar
    18     4    12    1
    19    16    12   ar
    20    16    15   ar
    21    34    25    1
    22    34    35   ar
    23    23    25   ar
    24    23    22   ar
    25    31    30    1
    26     5     6    1
    27    25    28   ar
    28    30    22    1
    29    22    24   ar
    30    12    13   ar
    31    28    27   ar
    32    28    33    1
    33    32    33    3
    34    27    24   ar
    35    27    29    1
    36    24    15    1
    37    15    14   ar
    38    36    35   ar
    39    36    44    1
    40    13    14   ar
    41    13    18    1
    42    14    21    1
    43    18    19    1
    44    35    41    1
    45    44    43    3
    46    21    20    3
    47    41    42    1
