@<TRIPOS>MOLECULE
mol_data/opt/m06hf/geoms/mol2/13fd13fd-.out
 22 23 0 0 0
SMALL
GASTEIGER

@<TRIPOS>ATOM
      1 C           1.2324   -0.2368   -0.0070 C.ar    1  LIG1        0.0455
      2 C           0.8517    1.0778   -0.0138 C.ar    1  LIG1        0.1521
      3 C          -0.5758    1.1034   -0.0112 C.ar    1  LIG1        0.1198
      4 C          -1.0112   -0.2167   -0.0028 C.ar    1  LIG1        0.0878
      5 N           0.0856   -0.9987   -0.0003 N.ar    1  LIG1       -0.3553
      6 H           0.0331   -2.0093    0.0057 H       1  LIG1        0.1655
      7 H           2.2152   -0.6692   -0.0064 H       1  LIG1        0.0845
      8 O           1.6940    2.1390   -0.0213 O.3     1  LIG1       -0.5040
      9 H           1.1960    2.9641   -0.0276 H       1  LIG1        0.2923
     10 N          -2.1561    3.1379   -0.0200 N.1     1  LIG1       -0.1907
     11 C          -1.4298    2.2446   -0.0162 C.1     1  LIG1        0.1050
     12 C          -2.3513   -0.7736    0.0030 C.ar    1  LIG1        0.1076
     13 C          -2.7251   -2.0947    0.0114 C.ar    1  LIG1        0.1609
     14 C          -4.1456   -2.1405    0.0144 C.ar    1  LIG1        0.1110
     15 C          -4.5902   -0.8293    0.0076 C.ar    1  LIG1        0.0233
     16 N          -3.5088   -0.0275    0.0009 N.ar    1  LIG1       -0.3554
     17 H          -3.5313    0.9847   -0.0050 H       1  LIG1        0.1655
     18 H          -5.5944   -0.4444    0.0072 H       1  LIG1        0.0821
     19 O          -1.8444   -3.1295    0.0157 O.3     1  LIG1       -0.5034
     20 H          -2.3112   -3.9745    0.0223 H       1  LIG1        0.2923
     21 N          -5.4606   -4.3571    0.0300 N.1     1  LIG1       -0.1907
     22 C          -4.9133   -3.3471    0.0230 C.1     1  LIG1        0.1043
@<TRIPOS>BOND
     1     9     8    1
     2     8     2    1
     3    10    11    3
     4    11     3    1
     5     2     3   ar
     6     2     1   ar
     7     3     4   ar
     8     1     7    1
     9     1     5   ar
    10    17    16    1
    11     4     5   ar
    12     4    12    1
    13     5     6    1
    14    16    12   ar
    15    16    15   ar
    16    12    13   ar
    17    18    15    1
    18    15    14   ar
    19    13    14   ar
    20    13    19    1
    21    14    22    1
    22    19    20    1
    23    22    21    3
