@<TRIPOS>MOLECULE
mol_data/opt/m06hf/geoms/mol2/13fd13fd13fd13fd-.out
 42 45 0 0 0
SMALL
GASTEIGER

@<TRIPOS>ATOM
      1 C           1.1933    0.1204    0.0022 C.ar    1  LIG1        0.0455
      2 C           0.6578    1.2942    0.4582 C.ar    1  LIG1        0.1521
      3 C          -0.7605    1.1339    0.4616 C.ar    1  LIG1        0.1198
      4 C          -1.0408   -0.1401   -0.0083 C.ar    1  LIG1        0.0878
      5 N           0.1460   -0.7316   -0.2745 N.ar    1  LIG1       -0.3553
      6 H           0.2397   -1.6276   -0.7266 H       1  LIG1        0.1655
      7 H           2.2205   -0.1569   -0.1467 H       1  LIG1        0.0845
      8 O           1.3678    2.3828    0.8325 O.3     1  LIG1       -0.5040
      9 H           0.7859    3.0628    1.1904 H       1  LIG1        0.2923
     10 N          -2.5741    2.8265    1.1546 N.1     1  LIG1       -0.1907
     11 C          -1.7497    2.0779    0.8641 C.1     1  LIG1        0.1050
     12 C          -2.3357   -0.7723   -0.2116 C.ar    1  LIG1        0.1080
     13 C          -3.5081   -0.2378   -0.6998 C.ar    1  LIG1        0.1616
     14 C          -4.4631   -1.2960   -0.7236 C.ar    1  LIG1        0.1205
     15 C          -3.8514   -2.4358   -0.2315 C.ar    1  LIG1        0.0883
     16 N          -2.5680   -2.1062    0.0669 N.ar    1  LIG1       -0.3478
     17 H          -1.9639   -2.6781    0.6396 H       1  LIG1        0.1661
     18 O          -3.7379    1.0025   -1.1821 O.3     1  LIG1       -0.5034
     19 H          -3.5976    1.6803   -0.5040 H       1  LIG1        0.2923
     20 N          -6.9175   -1.3184   -1.5004 N.1     1  LIG1       -0.1907
     21 C          -5.8148   -1.2604   -1.1796 C.1     1  LIG1        0.1050
     22 C          -4.4047   -3.7590   -0.0003 C.ar    1  LIG1        0.1081
     23 C          -5.6480   -4.1324    0.4726 C.ar    1  LIG1        0.1616
     24 C          -5.6293   -5.5500    0.5988 C.ar    1  LIG1        0.1205
     25 C          -4.3780   -5.9931    0.1937 C.ar    1  LIG1        0.0882
     26 N          -3.6574   -4.9085   -0.1627 N.ar    1  LIG1       -0.3478
     27 H          -2.7452   -4.9789   -0.5968 H       1  LIG1        0.1661
     28 O          -6.6854   -3.3617    0.8550 O.3     1  LIG1       -0.5034
     29 H          -6.9492   -2.7397    0.1599 H       1  LIG1        0.2923
     30 N          -7.4279   -7.2088    1.4006 N.1     1  LIG1       -0.1907
     31 C          -6.6673   -6.4192    1.0538 C.1     1  LIG1        0.1050
     32 C          -3.8273   -7.3299    0.0936 C.ar    1  LIG1        0.1076
     33 C          -2.5849   -7.7040   -0.3563 C.ar    1  LIG1        0.1609
     34 C          -2.5037   -9.1189   -0.2710 C.ar    1  LIG1        0.1110
     35 C          -3.7161   -9.5600    0.2348 C.ar    1  LIG1        0.0233
     36 N          -4.4921   -8.4826    0.4468 N.ar    1  LIG1       -0.3554
     37 H          -5.4369   -8.5007    0.8130 H       1  LIG1        0.1655
     38 H          -4.0499  -10.5605    0.4461 H       1  LIG1        0.0821
     39 O          -1.6388   -6.8283   -0.7915 O.3     1  LIG1       -0.5034
     40 H          -0.8755   -7.3052   -1.1420 H       1  LIG1        0.2923
     41 N          -0.3897  -10.4086   -0.9826 N.1     1  LIG1       -0.1907
     42 C          -1.3539   -9.8774   -0.6537 C.1     1  LIG1        0.1043
@<TRIPOS>BOND
     1    20    21    3
     2    18    13    1
     3    18    19    1
     4    21    14    1
     5    40    39    1
     6    41    42    3
     7    39    33    1
     8     6     5    1
     9    14    13   ar
    10    14    15   ar
    11    13    12   ar
    12    42    34    1
    13    27    26    1
    14    33    34   ar
    15    33    32   ar
    16     5     4   ar
    17     5     1   ar
    18    34    35   ar
    19    15    22    1
    20    15    16   ar
    21    12     4    1
    22    12    16   ar
    23    26    22   ar
    24    26    25   ar
    25     7     1    1
    26     4     3   ar
    27    22    23   ar
    28     1     2   ar
    29    16    17    1
    30    32    25    1
    31    32    36   ar
    32    29    28    1
    33    25    24   ar
    34    35    38    1
    35    35    36   ar
    36    36    37    1
    37     2     3   ar
    38     2     8    1
    39     3    11    1
    40    23    24   ar
    41    23    28    1
    42    24    31    1
    43     8     9    1
    44    11    10    3
    45    31    30    3
