@<TRIPOS>MOLECULE
mol_data/opt/m06hf/geoms/mol2/13fd13fd13fd.out
 32 34 0 0 0
SMALL
GASTEIGER

@<TRIPOS>ATOM
      1 C           1.0324    0.1057   -1.2046 C.ar    1  LIG1        0.0455
      2 C           0.8420    1.0428   -0.2239 C.ar    1  LIG1        0.1521
      3 C          -0.4653    0.8404    0.3089 C.ar    1  LIG1        0.1198
      4 C          -1.0331   -0.2203   -0.3760 C.ar    1  LIG1        0.0878
      5 N          -0.1153   -0.6486   -1.2766 N.ar    1  LIG1       -0.3553
      6 H          -0.3050   -1.3436   -1.9823 H       1  LIG1        0.1655
      7 H           1.8819   -0.0687   -1.8385 H       1  LIG1        0.0845
      8 O           1.7502    1.9686    0.1638 O.3     1  LIG1       -0.5040
      9 H           1.3689    2.5466    0.8355 H       1  LIG1        0.2923
     10 N          -1.4600    2.2175    2.2481 N.1     1  LIG1       -0.1907
     11 C          -1.0494    1.5877    1.3793 C.1     1  LIG1        0.1050
     12 C          -2.3540   -0.8189   -0.2276 C.ar    1  LIG1        0.1080
     13 C          -3.5916   -0.2206   -0.2417 C.ar    1  LIG1        0.1616
     14 C          -4.5603   -1.2448   -0.0436 C.ar    1  LIG1        0.1205
     15 C          -3.8783   -2.4455    0.0827 C.ar    1  LIG1        0.0882
     16 N          -2.5586   -2.1707   -0.0318 N.ar    1  LIG1       -0.3478
     17 H          -1.8233   -2.8605    0.0067 H       1  LIG1        0.1661
     18 O          -3.7993    1.0971   -0.4237 O.3     1  LIG1       -0.5034
     19 H          -4.7262    1.3190   -0.2741 H       1  LIG1        0.2923
     20 N          -7.1006   -0.8288    0.0913 N.1     1  LIG1       -0.1907
     21 C          -5.9747   -1.0469    0.0323 C.1     1  LIG1        0.1050
     22 C          -4.4075   -3.7853    0.3021 C.ar    1  LIG1        0.1076
     23 C          -5.4160   -4.4371   -0.3628 C.ar    1  LIG1        0.1609
     24 C          -5.5648   -5.7182    0.2473 C.ar    1  LIG1        0.1110
     25 C          -4.6384   -5.7970    1.2698 C.ar    1  LIG1        0.0233
     26 N          -3.9473   -4.6404    1.2862 N.ar    1  LIG1       -0.3554
     27 H          -3.2736   -4.3800    1.9900 H       1  LIG1        0.1655
     28 H          -4.4523   -6.5934    1.9687 H       1  LIG1        0.0821
     29 O          -6.0838   -3.9344   -1.4197 O.3     1  LIG1       -0.5034
     30 H          -6.9130   -4.4079   -1.5584 H       1  LIG1        0.2923
     31 N          -7.2840   -7.4766   -0.5288 N.1     1  LIG1       -0.1907
     32 C          -6.5080   -6.7141   -0.1610 C.1     1  LIG1        0.1043
@<TRIPOS>BOND
     1     6     5    1
     2     7     1    1
     3    30    29    1
     4    29    23    1
     5     5     1   ar
     6     5     4   ar
     7     1     2   ar
     8    31    32    3
     9    18    19    1
    10    18    13    1
    11     4    12    1
    12     4     3   ar
    13    23    24   ar
    14    23    22   ar
    15    13    12   ar
    16    13    14   ar
    17    12    16   ar
    18     2     8    1
    19     2     3   ar
    20    32    24    1
    21    14    21    1
    22    14    15   ar
    23    16    17    1
    24    16    15   ar
    25    21    20    3
    26    15    22    1
    27     8     9    1
    28    24    25   ar
    29    22    26   ar
    30     3    11    1
    31    25    26   ar
    32    25    28    1
    33    26    27    1
    34    11    10    3
