@<TRIPOS>MOLECULE
mol_data/opt/m06hf/geoms/mol2/13fd13fd-13fd-13fd-.out
 42 45 0 0 0
SMALL
GASTEIGER

@<TRIPOS>ATOM
      1 C           1.4241   -0.3061   -0.4665 C.ar    1  LIG1        0.0455
      2 C           1.0224    0.9995   -0.5608 C.ar    1  LIG1        0.1521
      3 C          -0.3991    1.0119   -0.4305 C.ar    1  LIG1        0.1198
      4 C          -0.8078   -0.3074   -0.2636 C.ar    1  LIG1        0.0878
      5 N           0.2970   -1.0758   -0.2864 N.ar    1  LIG1       -0.3553
      6 H           0.2701   -2.0797   -0.1654 H       1  LIG1        0.1655
      7 H           2.4111   -0.7273   -0.5147 H       1  LIG1        0.0845
      8 O           1.8475    2.0603   -0.7266 O.3     1  LIG1       -0.5040
      9 H           1.3397    2.8634   -0.8851 H       1  LIG1        0.2923
     10 N          -2.0849    2.9584   -0.3940 N.1     1  LIG1       -0.1907
     11 C          -1.2923    2.1232   -0.4177 C.1     1  LIG1        0.1050
     12 C          -2.1390   -0.8464   -0.0680 C.ar    1  LIG1        0.1080
     13 C          -2.5187   -2.1137    0.2983 C.ar    1  LIG1        0.1616
     14 C          -3.9360   -2.1160    0.4143 C.ar    1  LIG1        0.1205
     15 C          -4.3787   -0.8369    0.0930 C.ar    1  LIG1        0.0883
     16 N          -3.2877   -0.0966   -0.1956 N.ar    1  LIG1       -0.3478
     17 H          -3.3042    0.8501   -0.5542 H       1  LIG1        0.1661
     18 O          -1.6397   -3.1260    0.5049 O.3     1  LIG1       -0.5034
     19 H          -2.0852   -3.9151    0.8355 H       1  LIG1        0.2923
     20 N          -5.4503   -4.0507    1.1876 N.1     1  LIG1       -0.1907
     21 C          -4.7664   -3.1914    0.8445 C.1     1  LIG1        0.1050
     22 C          -5.7303   -0.3068    0.0472 C.ar    1  LIG1        0.1081
     23 C          -6.9125   -0.9164   -0.3214 C.ar    1  LIG1        0.1616
     24 C          -7.9277    0.0769   -0.2426 C.ar    1  LIG1        0.1205
     25 C          -7.3359    1.2636    0.1601 C.ar    1  LIG1        0.0882
     26 N          -6.0162    1.0131    0.3374 N.ar    1  LIG1       -0.3478
     27 H          -5.3337    1.7117    0.5962 H       1  LIG1        0.1661
     28 O          -7.1125   -2.1755   -0.7692 O.3     1  LIG1       -0.5034
     29 H          -6.8705   -2.8403   -0.1089 H       1  LIG1        0.2923
     30 N         -10.4527   -0.0851   -0.7214 N.1     1  LIG1       -0.1907
     31 C          -9.3229   -0.0617   -0.5107 C.1     1  LIG1        0.1050
     32 C          -7.9486    2.5670    0.3667 C.ar    1  LIG1        0.1076
     33 C          -8.9094    3.2101   -0.3858 C.ar    1  LIG1        0.1609
     34 C          -9.1262    4.4827    0.2211 C.ar    1  LIG1        0.1110
     35 C          -8.2990    4.5640    1.3212 C.ar    1  LIG1        0.0233
     36 N          -7.5969    3.4115    1.3987 N.ar    1  LIG1       -0.3554
     37 H          -7.0009    3.1552    2.1707 H       1  LIG1        0.1655
     38 H          -8.1871    5.3562    2.0408 H       1  LIG1        0.0821
     39 O          -9.4869    2.7958   -1.5353 O.3     1  LIG1       -0.5034
     40 H         -10.0362    2.0104   -1.3912 H       1  LIG1        0.2923
     41 N         -10.7574    6.3124   -0.5833 N.1     1  LIG1       -0.1907
     42 C         -10.0327    5.4954   -0.2320 C.1     1  LIG1        0.1043
@<TRIPOS>BOND
     1    39    40    1
     2    39    33    1
     3     9     8    1
     4    28    23    1
     5    28    29    1
     6     8     2    1
     7    30    31    3
     8    41    42    3
     9     2     1   ar
    10     2     3   ar
    11    17    16    1
    12     7     1    1
    13    31    24    1
    14     1     5   ar
    15     3    11    1
    16     3     4   ar
    17    11    10    3
    18    33    34   ar
    19    33    32   ar
    20    23    24   ar
    21    23    22   ar
    22     5     4   ar
    23     5     6    1
    24     4    12    1
    25    24    25   ar
    26    42    34    1
    27    16    12   ar
    28    16    15   ar
    29    12    13   ar
    30    22    15    1
    31    22    26   ar
    32    15    14   ar
    33    25    26   ar
    34    25    32    1
    35    34    35   ar
    36    13    14   ar
    37    13    18    1
    38    26    27    1
    39    32    36   ar
    40    14    21    1
    41    18    19    1
    42    21    20    3
    43    35    36   ar
    44    35    38    1
    45    36    37    1
