@<TRIPOS>MOLECULE
mol_data/opt/m06hf/geoms/mol2/13fe13fe.out
 24 25 0 0 0
SMALL
GASTEIGER

@<TRIPOS>ATOM
      1 C           1.1115   -0.2734   -0.6553 C.ar    1  LIG1        0.0454
      2 C           0.7829    0.9846   -0.2272 C.ar    1  LIG1        0.1501
      3 C          -0.6010    0.9833    0.1246 C.ar    1  LIG1        0.0928
      4 C          -1.0747   -0.2955   -0.1138 C.ar    1  LIG1        0.0857
      5 N          -0.0310   -1.0356   -0.5747 N.ar    1  LIG1       -0.3554
      6 H          -0.1271   -1.9745   -0.9260 H       1  LIG1        0.1655
      7 H           2.0485   -0.6677   -1.0024 H       1  LIG1        0.0845
      8 O           1.6255    2.0444   -0.1360 O.3     1  LIG1       -0.5040
      9 H           1.1260    2.8006    0.1971 H       1  LIG1        0.2923
     10 C          -1.2953    2.1146    0.6531 C.1     1  LIG1       -0.0638
     11 C          -1.8131    3.1053    1.0980 C.1     1  LIG1       -0.1137
     12 H          -2.2972    3.9697    1.4885 H       1  LIG1        0.1232
     13 C          -2.4072   -0.8610    0.0728 C.ar    1  LIG1        0.1074
     14 C          -3.6309   -0.4525   -0.3954 C.ar    1  LIG1        0.1589
     15 C          -4.6119   -1.3769    0.0784 C.ar    1  LIG1        0.0840
     16 C          -3.9404   -2.3249    0.8264 C.ar    1  LIG1        0.0213
     17 N          -2.6271   -2.0101    0.8115 N.ar    1  LIG1       -0.3554
     18 H          -1.9106   -2.4704    1.3498 H       1  LIG1        0.1655
     19 H          -4.3238   -3.1776    1.3585 H       1  LIG1        0.0820
     20 O          -3.8561    0.6229   -1.1811 O.3     1  LIG1       -0.5035
     21 H          -4.8017    0.6779   -1.3671 H       1  LIG1        0.2923
     22 C          -6.0079   -1.2819   -0.2170 C.1     1  LIG1       -0.0645
     23 C          -7.1688   -1.1455   -0.5018 C.1     1  LIG1       -0.1137
     24 H          -8.2007   -1.0407   -0.7438 H       1  LIG1        0.1232
@<TRIPOS>BOND
     1    21    20    1
     2    20    14    1
     3     7     1    1
     4     6     5    1
     5    24    23    1
     6     1     5   ar
     7     1     2   ar
     8     5     4   ar
     9    23    22    3
    10    14    13   ar
    11    14    15   ar
    12     2     8    1
    13     2     3   ar
    14    22    15    1
    15     8     9    1
    16     4    13    1
    17     4     3   ar
    18    13    17   ar
    19    15    16   ar
    20     3    10    1
    21    10    11    3
    22    17    16   ar
    23    17    18    1
    24    16    19    1
    25    11    12    1
