@<TRIPOS>MOLECULE
mol_data/opt/m06hf/geoms/mol2/13fe13fe-13fe-13fe.out
 46 49 0 0 0
SMALL
GASTEIGER

@<TRIPOS>ATOM
      1 C           1.3198   -0.2167   -0.2266 C.ar    1  LIG1        0.0454
      2 C           0.8831    1.0429   -0.5376 C.ar    1  LIG1        0.1501
      3 C          -0.5448    1.0330   -0.4989 C.ar    1  LIG1        0.0928
      4 C          -0.9207   -0.2613   -0.1595 C.ar    1  LIG1        0.0857
      5 N           0.2042   -0.9913   -0.0015 N.ar    1  LIG1       -0.3554
      6 H           0.1880   -1.9686    0.2546 H       1  LIG1        0.1655
      7 H           2.3191   -0.6035   -0.1505 H       1  LIG1        0.0845
      8 O           1.6740    2.1076   -0.8302 O.3     1  LIG1       -0.5040
      9 H           1.1159    2.8768   -0.9941 H       1  LIG1        0.2923
     10 C          -1.4131    2.1394   -0.7501 C.1     1  LIG1       -0.0638
     11 C          -2.1466    3.0731   -0.9632 C.1     1  LIG1       -0.1137
     12 H          -2.7971    3.8965   -1.1502 H       1  LIG1        0.1232
     13 C          -2.2401   -0.8295    0.0220 C.ar    1  LIG1        0.1079
     14 C          -2.6094   -2.0960    0.3980 C.ar    1  LIG1        0.1596
     15 C          -4.0311   -2.1417    0.4562 C.ar    1  LIG1        0.0935
     16 C          -4.4858   -0.8769    0.0903 C.ar    1  LIG1        0.0862
     17 N          -3.3986   -0.1121   -0.1647 N.ar    1  LIG1       -0.3478
     18 H          -3.4109    0.8290   -0.5368 H       1  LIG1        0.1661
     19 O          -1.7260   -3.0950    0.6750 O.3     1  LIG1       -0.5034
     20 H          -2.2051   -3.8810    0.9635 H       1  LIG1        0.2923
     21 C          -4.8181   -3.2609    0.8600 C.1     1  LIG1       -0.0638
     22 C          -5.4753   -4.2159    1.1923 C.1     1  LIG1       -0.1137
     23 H          -6.0579   -5.0493    1.5122 H       1  LIG1        0.1232
     24 C          -5.8334   -0.3513   -0.0292 C.ar    1  LIG1        0.1079
     25 C          -7.0142   -0.9489   -0.4243 C.ar    1  LIG1        0.1596
     26 C          -8.0154    0.0654   -0.4665 C.ar    1  LIG1        0.0935
     27 C          -7.3978    1.2530   -0.0941 C.ar    1  LIG1        0.0862
     28 N          -6.0981    0.9904    0.1648 N.ar    1  LIG1       -0.3478
     29 H          -5.4690    1.6795    0.5581 H       1  LIG1        0.1661
     30 O          -7.2494   -2.2284   -0.7827 O.3     1  LIG1       -0.5034
     31 H          -6.6004   -2.8226   -0.3823 H       1  LIG1        0.2923
     32 C          -9.3905   -0.0848   -0.8254 C.1     1  LIG1       -0.0638
     33 C         -10.5538   -0.1834   -1.1217 C.1     1  LIG1       -0.1137
     34 H         -11.5759   -0.3094   -1.3951 H       1  LIG1        0.1232
     35 C          -7.9252    2.5928    0.0596 C.ar    1  LIG1        0.1074
     36 C          -7.2670    3.7403    0.4294 C.ar    1  LIG1        0.1589
     37 C          -8.2099    4.8036    0.4482 C.ar    1  LIG1        0.0840
     38 C          -9.4264    4.2514    0.0795 C.ar    1  LIG1        0.0213
     39 N          -9.2390    2.9348   -0.1498 N.ar    1  LIG1       -0.3554
     40 H          -9.9387    2.2629   -0.4376 H       1  LIG1        0.1655
     41 H         -10.3868    4.7230   -0.0288 H       1  LIG1        0.0820
     42 O          -5.9357    3.8066    0.7206 O.3     1  LIG1       -0.5035
     43 H          -5.7371    4.6859    1.0675 H       1  LIG1        0.2923
     44 C          -7.8872    6.1521    0.7988 C.1     1  LIG1       -0.0645
     45 C          -7.5487    7.2644    1.1079 C.1     1  LIG1       -0.1137
     46 H          -7.2699    8.2561    1.3792 H       1  LIG1        0.1232
@<TRIPOS>BOND
     1    34    33    1
     2    12    11    1
     3    33    32    3
     4     9     8    1
     5    11    10    3
     6     8     2    1
     7    32    26    1
     8    30    25    1
     9    30    31    1
    10    10     3    1
    11     2     3   ar
    12     2     1   ar
    13    18    17    1
    14     3     4   ar
    15    26    25   ar
    16    26    27   ar
    17    40    39    1
    18    25    24   ar
    19     1     7    1
    20     1     5   ar
    21    17    13   ar
    22    17    16   ar
    23     4     5   ar
    24     4    13    1
    25    39    35   ar
    26    39    38   ar
    27    27    35    1
    28    27    28   ar
    29    24    16    1
    30    24    28   ar
    31    41    38    1
    32     5     6    1
    33    13    14   ar
    34    35    36   ar
    35    38    37   ar
    36    16    15   ar
    37    28    29    1
    38    14    15   ar
    39    14    19    1
    40    36    37   ar
    41    36    42    1
    42    37    44    1
    43    15    21    1
    44    19    20    1
    45    42    43    1
    46    44    45    3
    47    21    22    3
    48    45    46    1
    49    22    23    1
