@<TRIPOS>MOLECULE
mol_data/opt/m06hf/geoms/mol2/13fe4ai4fl12ah6ha13ih-13df-4fl-.out
 99 106 0 0 0
SMALL
GASTEIGER

@<TRIPOS>ATOM
      1 C           1.2774    0.8629    0.0740 C.ar    1  LIG1        0.0454
      2 C           0.7930    2.0167   -0.4793 C.ar    1  LIG1        0.1500
      3 C          -0.6154    1.8610   -0.6565 C.ar    1  LIG1        0.0912
      4 C          -0.9459    0.5943   -0.1929 C.ar    1  LIG1        0.0657
      5 N           0.2032    0.0200    0.2434 N.ar    1  LIG1       -0.3566
      6 H           0.2641   -0.9380    0.5479 H       1  LIG1        0.1655
      7 H           2.2793    0.5883    0.3462 H       1  LIG1        0.0845
      8 O           1.5179    3.1189   -0.7969 O.3     1  LIG1       -0.5040
      9 H           0.9220    3.7750   -1.1793 H       1  LIG1        0.2923
     10 C          -1.4622    2.8875   -1.1780 C.1     1  LIG1       -0.0639
     11 C          -2.1135    3.7940   -1.6305 C.1     1  LIG1       -0.1137
     12 H          -2.7099    4.5875   -2.0167 H       1  LIG1        0.1232
     13 C          -3.2163    0.1314   -1.1049 C.ar    1  LIG1       -0.0520
     14 C          -4.4302   -0.5336   -1.0315 C.ar    1  LIG1       -0.0530
     15 C          -2.2455   -0.0966   -0.1259 C.ar    1  LIG1       -0.0001
     16 C          -4.6941   -1.4463   -0.0056 C.ar    1  LIG1       -0.0113
     17 H          -5.1900   -0.3600   -1.7823 H       1  LIG1        0.0624
     18 C          -2.5236   -0.9817    0.9168 C.ar    1  LIG1       -0.0491
     19 C          -3.7349   -1.6702    0.9924 C.ar    1  LIG1       -0.0420
     20 H          -1.7994   -1.1099    1.7145 H       1  LIG1        0.0627
     21 H          -3.0120    0.8198   -1.9139 H       1  LIG1        0.0624
     22 C          -3.9867   -2.6048    2.1650 C.3     1  LIG1       -0.0391
     23 H          -3.3875   -2.2916    3.0198 H       1  LIG1        0.0278
     24 H          -3.7094   -3.6311    1.9129 H       1  LIG1        0.0278
     25 H          -5.0391   -2.5951    2.4476 H       1  LIG1        0.0278
     26 C          -7.2172   -1.4875    0.0092 C.ar    1  LIG1        0.1254
     27 C          -8.4193   -2.1825   -0.0087 C.ar    1  LIG1       -0.0054
     28 C          -5.9962   -2.1787   -0.0077 C.ar    1  LIG1        0.0273
     29 C          -8.4493   -3.5801   -0.0434 C.ar    1  LIG1        0.0624
     30 H          -9.3541   -1.6342    0.0253 H       1  LIG1        0.0662
     31 C          -6.0353   -3.5688   -0.0407 C.ar    1  LIG1       -0.0080
     32 C          -7.2342   -4.2748   -0.0506 C.ar    1  LIG1        0.1315
     33 H          -5.1124   -4.1344   -0.0874 H       1  LIG1        0.0661
     34 O          -7.1737   -0.1277    0.0460 O.3     1  LIG1       -0.5061
     35 H          -8.0618    0.2393    0.1084 H       1  LIG1        0.2922
     36 O          -7.1836   -5.6504   -0.0845 O.3     1  LIG1       -0.4944
     37 C          -7.0587   -6.2300    1.2186 C.3     1  LIG1        0.0788
     38 H          -7.0003   -7.3055    1.0726 H       1  LIG1        0.0660
     39 H          -6.1519   -5.8600    1.7028 H       1  LIG1        0.0660
     40 H          -7.9360   -5.9850    1.8180 H       1  LIG1        0.0660
     41 C          -9.7448   -4.2671   -0.1383 C.ar    1  LIG1        0.1411
     42 C         -10.9736   -3.8548   -0.5610 C.ar    1  LIG1        0.0057
     43 C         -11.8276   -5.0090   -0.5094 C.ar    1  LIG1        0.0717
     44 C         -11.0517   -6.0338   -0.0466 C.ar    1  LIG1        0.1595
     45 O          -9.7941   -5.5711    0.1878 O.2     1  LIG1       -0.4527
     46 H         -11.2422   -2.8735   -0.9152 H       1  LIG1        0.0674
     47 N         -13.1837   -5.0626   -0.8593 N.pl3   1  LIG1       -0.3550
     48 H         -13.4296   -4.3704   -1.5560 H       1  LIG1        0.1424
     49 H         -13.4590   -5.9869   -1.1749 H       1  LIG1        0.1424
     50 C         -10.3383   -8.4416   -0.1893 C.ar    1  LIG1        0.1277
     51 C         -11.3120   -7.4566    0.1534 C.ar    1  LIG1        0.0586
     52 C         -12.5420   -7.9039    0.6138 C.ar    1  LIG1       -0.0456
     53 C         -12.8158   -9.2657    0.7144 C.ar    1  LIG1       -0.0334
     54 C         -11.8040  -10.1494    0.3507 C.ar    1  LIG1        0.0896
     55 N         -10.6034   -9.7412   -0.0830 N.ar    1  LIG1       -0.2302
     56 H         -13.2875   -7.1704    0.9006 H       1  LIG1        0.0626
     57 N          -9.1074   -8.1052   -0.6491 N.pl3   1  LIG1       -0.3426
     58 H          -8.5088   -8.8574   -0.9438 H       1  LIG1        0.1437
     59 H          -8.7816   -7.1488   -0.6996 H       1  LIG1        0.1437
     60 H         -13.7735   -9.6237    1.0550 H       1  LIG1        0.0640
     61 C         -11.9712  -11.6108    0.3983 C.ar    1  LIG1        0.0702
     62 C         -12.9905  -12.4514    0.8234 C.ar    1  LIG1       -0.0024
     63 C         -12.5510  -13.7787    0.5662 C.ar    1  LIG1        0.0553
     64 C         -11.2866  -13.6980   -0.0007 C.ar    1  LIG1        0.0859
     65 N         -10.9520  -12.3794   -0.0732 N.ar    1  LIG1       -0.3501
     66 H         -10.1397  -11.9568   -0.5013 H       1  LIG1        0.1661
     67 C         -14.3051  -12.1247    1.4840 C.3     1  LIG1       -0.0359
     68 H         -14.7300  -13.0589    1.8511 H       1  LIG1        0.0279
     69 H         -15.0069  -11.6714    0.7800 H       1  LIG1        0.0279
     70 H         -14.1633  -11.4457    2.3267 H       1  LIG1        0.0279
     71 N         -13.2872  -14.9407    0.9147 N.pl3   1  LIG1       -0.3561
     72 H         -13.8668  -15.2569    0.1408 H       1  LIG1        0.1424
     73 H         -12.6674  -15.7066    1.1610 H       1  LIG1        0.1424
     74 C         -10.3782  -14.7538   -0.4244 C.ar    1  LIG1        0.0864
     75 C         -10.6323  -15.9575   -1.0675 C.ar    1  LIG1        0.1204
     76 C          -9.3869  -16.6320   -1.2307 C.ar    1  LIG1        0.1602
     77 C          -8.4058  -15.8221   -0.6942 C.ar    1  LIG1        0.0939
     78 N          -9.0421  -14.6896   -0.2167 N.ar    1  LIG1       -0.3489
     79 H          -8.6023  -14.0066    0.3824 H       1  LIG1        0.1661
     80 N         -12.9474  -16.7387   -1.8922 N.1     1  LIG1       -0.1907
     81 C         -11.9094  -16.3978   -1.5356 C.1     1  LIG1        0.1050
     82 O          -9.2649  -17.8105   -1.8694 O.3     1  LIG1       -0.5034
     83 H          -8.4875  -18.2707   -1.5134 H       1  LIG1        0.2923
     84 C          -6.3037  -17.1802   -0.4827 C.ar    1  LIG1        0.1263
     85 C          -4.9232  -17.2604   -0.4363 C.ar    1  LIG1       -0.0161
     86 C          -6.9418  -15.9408   -0.6485 C.ar    1  LIG1        0.0468
     87 C          -4.1338  -16.1130   -0.5294 C.ar    1  LIG1       -0.0165
     88 H          -4.4465  -18.2266   -0.3161 H       1  LIG1        0.0655
     89 C          -6.1455  -14.8043   -0.7572 C.ar    1  LIG1       -0.0072
     90 C          -4.7530  -14.8768   -0.6871 C.ar    1  LIG1        0.1209
     91 H          -6.5905  -13.8337   -0.9337 H       1  LIG1        0.0662
     92 H          -3.0589  -16.2057   -0.4821 H       1  LIG1        0.0655
     93 O          -7.0985  -18.2979   -0.3649 O.3     1  LIG1       -0.5061
     94 H          -6.5825  -19.0641   -0.0933 H       1  LIG1        0.2922
     95 O          -4.0950  -13.6934   -0.7967 O.3     1  LIG1       -0.4951
     96 C          -2.6816  -13.7252   -0.8475 C.3     1  LIG1        0.0788
     97 H          -2.3658  -12.6945   -0.9823 H       1  LIG1        0.0660
     98 H          -2.2684  -14.1181    0.0849 H       1  LIG1        0.0660
     99 H          -2.3403  -14.3303   -1.6914 H       1  LIG1        0.0660
@<TRIPOS>BOND
     1    12    11    1
     2    21    13    1
     3    80    81    3
     4    82    83    1
     5    82    76    1
     6    17    14    1
     7    99    96    1
     8    11    10    3
     9    48    47    1
    10    81    75    1
    11    76    75   ar
    12    76    77   ar
    13     9     8    1
    14    10     3    1
    15    49    47    1
    16    13    14   ar
    17    13    15   ar
    18    75    74   ar
    19    14    16   ar
    20    97    96    1
    21    58    57    1
    22    91    89    1
    23    46    42    1
    24    47    43    1
    25    96    95    1
    26    96    98    1
    27     8     2    1
    28    95    90    1
    29    89    90   ar
    30    89    86   ar
    31    59    57    1
    32    77    86    1
    33    77    78   ar
    34    90    87   ar
    35     3     2   ar
    36     3     4   ar
    37    57    50    1
    38    86    84   ar
    39    42    43   ar
    40    42    41   ar
    41    87    92    1
    42    87    85   ar
    43    43    44   ar
    44    66    65    1
    45    84    85   ar
    46    84    93    1
    47     2     1   ar
    48    85    88    1
    49    74    78   ar
    50    74    64    1
    51    93    94    1
    52    78    79    1
    53     4    15    1
    54     4     5   ar
    55    50    55   ar
    56    50    51   ar
    57    41    29    1
    58    41    45   ar
    59    15    18   ar
    60    33    31    1
    61    36    32    1
    62    36    37    1
    63    55    54   ar
    64    65    64   ar
    65    65    61   ar
    66    32    29   ar
    67    32    31   ar
    68    44    51    1
    69    44    45   ar
    70    29    27   ar
    71    31    28   ar
    72    27    26   ar
    73    27    30    1
    74    28    16    1
    75    28    26   ar
    76    16    19   ar
    77    64    63   ar
    78    26    34    1
    79    34    35    1
    80     1     5   ar
    81     1     7    1
    82    72    71    1
    83    51    52   ar
    84     5     6    1
    85    54    61    1
    86    54    53   ar
    87    61    62   ar
    88    63    62   ar
    89    63    71    1
    90    52    53   ar
    91    52    56    1
    92    53    60    1
    93    69    67    1
    94    62    67    1
    95    71    73    1
    96    18    19   ar
    97    18    20    1
    98    19    22    1
    99    38    37    1
   100    37    39    1
   101    37    40    1
   102    67    68    1
   103    67    70    1
   104    24    22    1
   105    22    25    1
   106    22    23    1
