@<TRIPOS>MOLECULE
mol_data/opt/m06hf/geoms/mol2/13fe13fd4eh-13il.out
 52 55 0 0 0
SMALL
GASTEIGER

@<TRIPOS>ATOM
      1 C           0.6413    0.5385    2.0088 C.ar    1  LIG1        0.0454
      2 C           0.8675    1.0149    0.7436 C.ar    1  LIG1        0.1501
      3 C          -0.2781    0.7120   -0.0495 C.ar    1  LIG1        0.0928
      4 C          -1.1767    0.0563    0.7754 C.ar    1  LIG1        0.0857
      5 N          -0.6027   -0.0419    2.0035 N.ar    1  LIG1       -0.3554
      6 H          -1.0789   -0.4059    2.8133 H       1  LIG1        0.1655
      7 H           1.2609    0.5758    2.8856 H       1  LIG1        0.0845
      8 O           1.9886    1.6503    0.3188 O.3     1  LIG1       -0.5040
      9 H           1.8592    1.9161   -0.6004 H       1  LIG1        0.2923
     10 C          -0.4144    1.0397   -1.4344 C.1     1  LIG1       -0.0638
     11 C          -0.4631    1.3445   -2.5971 C.1     1  LIG1       -0.1137
     12 H          -0.5290    1.6156   -3.6254 H       1  LIG1        0.1232
     13 C          -2.5019   -0.4862    0.4772 C.ar    1  LIG1        0.1079
     14 C          -3.6829    0.1492    0.1814 C.ar    1  LIG1        0.1615
     15 C          -4.6707   -0.8557   -0.0304 C.ar    1  LIG1        0.1190
     16 C          -4.0551   -2.0893    0.1393 C.ar    1  LIG1        0.0694
     17 N          -2.7626   -1.8419    0.4374 N.ar    1  LIG1       -0.3490
     18 H          -2.0772   -2.5587    0.6237 H       1  LIG1        0.1661
     19 O          -3.8521    1.4861    0.1176 O.3     1  LIG1       -0.5034
     20 H          -4.7459    1.6907   -0.1829 H       1  LIG1        0.2923
     21 N          -7.0728   -0.2354   -0.7232 N.1     1  LIG1       -0.1907
     22 C          -6.0179   -0.5682   -0.4115 C.1     1  LIG1        0.1050
     23 C          -5.7226   -3.9082    0.6306 C.ar    1  LIG1        0.0345
     24 C          -6.1257   -5.2351    0.4564 C.ar    1  LIG1       -0.0348
     25 C          -4.5588   -3.4692   -0.0160 C.ar    1  LIG1        0.0168
     26 C          -5.4140   -6.1239   -0.3421 C.ar    1  LIG1        0.0205
     27 H          -7.0018   -5.5883    0.9835 H       1  LIG1        0.0637
     28 C          -3.8398   -4.3509   -0.8218 C.ar    1  LIG1       -0.0301
     29 C          -4.2538   -5.6702   -1.0047 C.ar    1  LIG1        0.0345
     30 H          -2.9702   -3.9871   -1.3574 H       1  LIG1        0.0643
     31 C          -6.4806   -3.0447    1.5012 C.1     1  LIG1       -0.0690
     32 C          -7.1297   -2.3418    2.2280 C.1     1  LIG1       -0.1139
     33 H          -7.7087   -1.7020    2.8525 H       1  LIG1        0.1232
     34 N          -3.5174   -6.5446   -1.8099 N.pl3   1  LIG1       -0.3574
     35 H          -4.0927   -7.2130   -2.3116 H       1  LIG1        0.1423
     36 H          -2.8543   -6.0840   -2.4191 H       1  LIG1        0.1423
     37 C          -5.8795   -7.5171   -0.4828 C.ar    1  LIG1        0.0548
     38 C          -7.1602   -8.0211   -0.6105 C.ar    1  LIG1        0.0165
     39 C          -7.0180   -9.4367   -0.6705 C.ar    1  LIG1        0.1408
     40 C          -5.6835   -9.7521   -0.5727 C.ar    1  LIG1        0.0446
     41 N          -5.0038   -8.5750   -0.4696 N.ar    1  LIG1       -0.3573
     42 H          -4.0053   -8.4693   -0.3670 H       1  LIG1        0.1655
     43 H          -5.1889  -10.7068   -0.5937 H       1  LIG1        0.0844
     44 C          -8.4658   -7.2770   -0.7397 C.3     1  LIG1       -0.0342
     45 H          -8.9392   -7.1218    0.2330 H       1  LIG1        0.0279
     46 H          -9.1437   -7.8671   -1.3577 H       1  LIG1        0.0279
     47 H          -8.3109   -6.3036   -1.2061 H       1  LIG1        0.0279
     48 O          -8.0431  -10.3273   -0.8365 O.3     1  LIG1       -0.4933
     49 C          -8.6973  -10.6655    0.3812 C.3     1  LIG1        0.0789
     50 H          -9.4875  -11.3676    0.1249 H       1  LIG1        0.0660
     51 H          -7.9897  -11.1299    1.0717 H       1  LIG1        0.0660
     52 H          -9.1267   -9.7757    0.8470 H       1  LIG1        0.0660
@<TRIPOS>BOND
     1    12    11    1
     2    11    10    3
     3    36    34    1
     4    35    34    1
     5    34    29    1
     6    10     3    1
     7    46    44    1
     8    30    28    1
     9    47    44    1
    10    29    28   ar
    11    29    26   ar
    12    48    39    1
    13    48    49    1
    14    28    25   ar
    15    44    38    1
    16    44    45    1
    17    21    22    3
    18    39    38   ar
    19    39    40   ar
    20    38    37   ar
    21     9     8    1
    22    43    40    1
    23    40    41   ar
    24    37    41   ar
    25    37    26    1
    26    41    42    1
    27    22    15    1
    28    26    24   ar
    29    20    19    1
    30     3     2   ar
    31     3     4   ar
    32    15    16   ar
    33    15    14   ar
    34    25    16    1
    35    25    23   ar
    36    19    14    1
    37    50    49    1
    38    16    17   ar
    39    14    13   ar
    40     8     2    1
    41    49    52    1
    42    49    51    1
    43    17    13   ar
    44    17    18    1
    45    24    23   ar
    46    24    27    1
    47    13     4    1
    48    23    31    1
    49     2     1   ar
    50     4     5   ar
    51    31    32    3
    52     5     1   ar
    53     5     6    1
    54     1     7    1
    55    32    33    1
