@<TRIPOS>MOLECULE
mol_data/opt/m06hf/geoms/mol2/13fe13fe13fe-13fe.out
 46 49 0 0 0
SMALL
GASTEIGER

@<TRIPOS>ATOM
      1 C           1.1476    0.0231    0.9045 C.ar    1  LIG1        0.0454
      2 C           0.8524    1.1000    0.1145 C.ar    1  LIG1        0.1501
      3 C          -0.5288    1.0219   -0.2428 C.ar    1  LIG1        0.0928
      4 C          -1.0348   -0.1163    0.3624 C.ar    1  LIG1        0.0857
      5 N          -0.0132   -0.7048    1.0403 N.ar    1  LIG1       -0.3554
      6 H          -0.1342   -1.4932    1.6556 H       1  LIG1        0.1655
      7 H           2.0723   -0.2699    1.3662 H       1  LIG1        0.0845
      8 O           1.7203    2.0660   -0.2806 O.3     1  LIG1       -0.5040
      9 H           1.2391    2.6991   -0.8285 H       1  LIG1        0.2923
     10 C          -1.1856    1.9529   -1.1042 C.1     1  LIG1       -0.0638
     11 C          -1.6688    2.7740   -1.8393 C.1     1  LIG1       -0.1137
     12 H          -2.1227    3.4906   -2.4832 H       1  LIG1        0.1232
     13 C          -2.3747   -0.6863    0.3399 C.ar    1  LIG1        0.1079
     14 C          -3.6034   -0.0958    0.5113 C.ar    1  LIG1        0.1596
     15 C          -4.5951   -1.1185    0.4353 C.ar    1  LIG1        0.0935
     16 C          -3.9200   -2.3146    0.2204 C.ar    1  LIG1        0.0862
     17 N          -2.5981   -2.0401    0.1698 N.ar    1  LIG1       -0.3478
     18 H          -1.9007   -2.7316   -0.0744 H       1  LIG1        0.1661
     19 O          -3.8167    1.2190    0.7408 O.3     1  LIG1       -0.5034
     20 H          -4.7623    1.3690    0.8592 H       1  LIG1        0.2923
     21 C          -6.0036   -0.9328    0.5745 C.1     1  LIG1       -0.0638
     22 C          -7.1902   -0.7604    0.6946 C.1     1  LIG1       -0.1137
     23 H          -8.2396   -0.6105    0.7991 H       1  LIG1        0.1232
     24 C          -4.4190   -3.6622    0.0467 C.ar    1  LIG1        0.1079
     25 C          -3.7089   -4.8184   -0.1691 C.ar    1  LIG1        0.1596
     26 C          -4.6328   -5.8920   -0.2824 C.ar    1  LIG1        0.0935
     27 C          -5.9000   -5.3321   -0.1273 C.ar    1  LIG1        0.0862
     28 N          -5.7508   -4.0048    0.0690 N.ar    1  LIG1       -0.3478
     29 H          -6.5230   -3.3603    0.2143 H       1  LIG1        0.1661
     30 O          -2.3490   -4.8764   -0.2460 O.3     1  LIG1       -0.5034
     31 H          -2.0792   -5.7643   -0.5097 H       1  LIG1        0.2923
     32 C          -4.2987   -7.2607   -0.5128 C.1     1  LIG1       -0.0638
     33 C          -3.9886   -8.4092   -0.7106 C.1     1  LIG1       -0.1137
     34 H          -3.7032   -9.4216   -0.8833 H       1  LIG1        0.1232
     35 C          -7.2079   -5.9528   -0.1468 C.ar    1  LIG1        0.1074
     36 C          -8.4419   -5.3739    0.0199 C.ar    1  LIG1        0.1589
     37 C          -9.4262   -6.3963   -0.0775 C.ar    1  LIG1        0.0840
     38 C          -8.7400   -7.5778   -0.3047 C.ar    1  LIG1        0.0213
     39 N          -7.4199   -7.2974   -0.3437 N.ar    1  LIG1       -0.3554
     40 H          -6.6704   -7.9585   -0.4965 H       1  LIG1        0.1655
     41 H          -9.1200   -8.5751   -0.4368 H       1  LIG1        0.0820
     42 O          -8.6438   -4.0468    0.2392 O.3     1  LIG1       -0.5035
     43 H          -9.5884   -3.8887    0.3630 H       1  LIG1        0.2923
     44 C         -10.8321   -6.1670    0.0490 C.1     1  LIG1       -0.0645
     45 C         -12.0008   -5.9058    0.1668 C.1     1  LIG1       -0.1137
     46 H         -13.0401   -5.6936    0.2689 H       1  LIG1        0.1232
@<TRIPOS>BOND
     1    12    11    1
     2    11    10    3
     3    10     3    1
     4    34    33    1
     5     9     8    1
     6    33    32    3
     7    32    26    1
     8    31    30    1
     9    40    39    1
    10    41    38    1
    11    39    38   ar
    12    39    35   ar
    13    38    37   ar
    14    26    25   ar
    15    26    27   ar
    16     8     2    1
    17    30    25    1
    18     3     2   ar
    19     3     4   ar
    20    25    24   ar
    21    35    27    1
    22    35    36   ar
    23    27    28   ar
    24    37    36   ar
    25    37    44    1
    26    18    17    1
    27    36    42    1
    28    24    28   ar
    29    24    16    1
    30    44    45    3
    31    28    29    1
    32     2     1   ar
    33    45    46    1
    34    17    16   ar
    35    17    13   ar
    36    16    15   ar
    37    42    43    1
    38    13     4    1
    39    13    14   ar
    40     4     5   ar
    41    15    14   ar
    42    15    21    1
    43    14    19    1
    44    21    22    3
    45    22    23    1
    46    19    20    1
    47     1     5   ar
    48     1     7    1
    49     5     6    1
