@<TRIPOS>MOLECULE
mol_data/opt/m06hf/geoms/mol2/13fe13fe-13fe.out
 35 37 0 0 0
SMALL
GASTEIGER

@<TRIPOS>ATOM
      1 C           1.2715   -0.2398    0.0561 C.ar    1  LIG1        0.0454
      2 C           0.8718    1.0680    0.0049 C.ar    1  LIG1        0.1501
      3 C          -0.5563    1.0898   -0.0193 C.ar    1  LIG1        0.0928
      4 C          -0.9728   -0.2344    0.0192 C.ar    1  LIG1        0.0857
      5 N           0.1323   -1.0124    0.0648 N.ar    1  LIG1       -0.3554
      6 H           0.0860   -2.0217    0.0971 H       1  LIG1        0.1655
      7 H           2.2575   -0.6638    0.0861 H       1  LIG1        0.0845
      8 O           1.6894    2.1529   -0.0182 O.3     1  LIG1       -0.5040
      9 H           1.1476    2.9453   -0.1113 H       1  LIG1        0.2923
     10 C          -1.3757    2.2578   -0.0754 C.1     1  LIG1       -0.0638
     11 C          -2.0482    3.2573   -0.1239 C.1     1  LIG1       -0.1137
     12 H          -2.6416    4.1406   -0.1716 H       1  LIG1        0.1232
     13 C          -2.3037   -0.8083    0.0111 C.ar    1  LIG1        0.1079
     14 C          -2.6696   -2.1316    0.0054 C.ar    1  LIG1        0.1596
     15 C          -4.0892   -2.2001   -0.0065 C.ar    1  LIG1        0.0935
     16 C          -4.5423   -0.8821   -0.0070 C.ar    1  LIG1        0.0862
     17 N          -3.4640   -0.0695    0.0033 N.ar    1  LIG1       -0.3478
     18 H          -3.5132    0.9454    0.0070 H       1  LIG1        0.1661
     19 O          -1.7851   -3.1688    0.0118 O.3     1  LIG1       -0.5034
     20 H          -2.2665   -4.0047    0.0015 H       1  LIG1        0.2923
     21 C          -4.8664   -3.3978   -0.0141 C.1     1  LIG1       -0.0638
     22 C          -5.4944   -4.4271   -0.0209 C.1     1  LIG1       -0.1137
     23 H          -6.0372   -5.3440   -0.0247 H       1  LIG1        0.1232
     24 C          -5.8917   -0.3564   -0.0116 C.ar    1  LIG1        0.1074
     25 C          -6.3145    0.9494    0.0313 C.ar    1  LIG1        0.1589
     26 C          -7.7369    0.9542    0.0152 C.ar    1  LIG1        0.0840
     27 C          -8.1315   -0.3719   -0.0393 C.ar    1  LIG1        0.0213
     28 N          -7.0212   -1.1404   -0.0549 N.ar    1  LIG1       -0.3554
     29 H          -6.9915   -2.1503   -0.0926 H       1  LIG1        0.1655
     30 H          -9.1209   -0.7920   -0.0669 H       1  LIG1        0.0820
     31 O          -5.4843    2.0252    0.0798 O.3     1  LIG1       -0.5035
     32 H          -6.0149    2.8270    0.1685 H       1  LIG1        0.2923
     33 C          -8.5297    2.1443    0.0516 C.1     1  LIG1       -0.0645
     34 C          -9.1315    3.1857    0.0857 C.1     1  LIG1       -0.1137
     35 H          -9.6792    4.0992    0.1147 H       1  LIG1        0.1232
@<TRIPOS>BOND
     1    12    11    1
     2    11    10    3
     3     9     8    1
     4    29    28    1
     5    10     3    1
     6    30    27    1
     7    28    27   ar
     8    28    24   ar
     9    27    26   ar
    10    23    22    1
    11    22    21    3
    12     3     2   ar
    13     3     4   ar
    14     8     2    1
    15    21    15    1
    16    24    16    1
    17    24    25   ar
    18    16    15   ar
    19    16    17   ar
    20    15    14   ar
    21    20    19    1
    22    17    18    1
    23    17    13   ar
    24     2     1   ar
    25    14    13   ar
    26    14    19    1
    27    13     4    1
    28    26    25   ar
    29    26    33    1
    30     4     5   ar
    31    25    31    1
    32    33    34    3
    33     1     5   ar
    34     1     7    1
    35     5     6    1
    36    31    32    1
    37    34    35    1
