@<TRIPOS>MOLECULE
mol_data/opt/m06hf/geoms/mol2/13fe13fe13fe13fe.out
 46 49 0 0 0
SMALL
GASTEIGER

@<TRIPOS>ATOM
      1 C           0.3783    0.6185   -2.3427 C.ar    1  LIG1        0.0454
      2 C           0.5934    1.2583   -1.1520 C.ar    1  LIG1        0.1501
      3 C          -0.4569    0.8896   -0.2572 C.ar    1  LIG1        0.0928
      4 C          -1.2912    0.0304   -0.9507 C.ar    1  LIG1        0.0857
      5 N          -0.7701   -0.1264   -2.1971 N.ar    1  LIG1       -0.3554
      6 H          -1.2484   -0.6022   -2.9453 H       1  LIG1        0.1655
      7 H           0.9411    0.6416   -3.2571 H       1  LIG1        0.0845
      8 O           1.6299    2.0850   -0.8625 O.3     1  LIG1       -0.5040
      9 H           1.5218    2.4013    0.0434 H       1  LIG1        0.2923
     10 C          -0.5554    1.3342    1.0969 C.1     1  LIG1       -0.0638
     11 C          -0.5748    1.7469    2.2268 C.1     1  LIG1       -0.1137
     12 H          -0.6198    2.1081    3.2274 H       1  LIG1        0.1232
     13 C          -2.5128   -0.6396   -0.5203 C.ar    1  LIG1        0.1079
     14 C          -3.6417   -0.1351    0.0798 C.ar    1  LIG1        0.1596
     15 C          -4.5499   -1.2140    0.2842 C.ar    1  LIG1        0.0935
     16 C          -3.9411   -2.3564   -0.2128 C.ar    1  LIG1        0.0862
     17 N          -2.7226   -1.9935   -0.6877 N.ar    1  LIG1       -0.3478
     18 H          -2.0610   -2.6264   -1.1096 H       1  LIG1        0.1661
     19 O          -3.8445    1.1598    0.4052 O.3     1  LIG1       -0.5034
     20 H          -4.7202    1.2431    0.8030 H       1  LIG1        0.2923
     21 C          -5.8299   -1.0821    0.9052 C.1     1  LIG1       -0.0638
     22 C          -6.8918   -0.9007    1.4403 C.1     1  LIG1       -0.1137
     23 H          -7.8407   -0.7635    1.9041 H       1  LIG1        0.1232
     24 C          -4.4197   -3.7353   -0.2419 C.ar    1  LIG1        0.1079
     25 C          -5.5462   -4.2754   -0.8129 C.ar    1  LIG1        0.1596
     26 C          -5.5471   -5.6757   -0.5477 C.ar    1  LIG1        0.0935
     27 C          -4.3993   -5.9498    0.1807 C.ar    1  LIG1        0.0862
     28 N          -3.7369   -4.7783    0.3543 N.ar    1  LIG1       -0.3478
     29 H          -2.8552   -4.6837    0.8337 H       1  LIG1        0.1661
     30 O          -6.4800   -3.5897   -1.5062 O.3     1  LIG1       -0.5034
     31 H          -7.1702   -4.2051   -1.7842 H       1  LIG1        0.2923
     32 C          -6.5792   -6.5716   -0.9632 C.1     1  LIG1       -0.0638
     33 C          -7.4848   -7.2670   -1.3413 C.1     1  LIG1       -0.1137
     34 H          -8.2715   -7.9050   -1.6704 H       1  LIG1        0.1232
     35 C          -3.9179   -7.2114    0.7304 C.ar    1  LIG1        0.1074
     36 C          -3.7481   -8.4363    0.1354 C.ar    1  LIG1        0.1589
     37 C          -3.2472   -9.3369    1.1244 C.ar    1  LIG1        0.0840
     38 C          -3.1291   -8.6170    2.2978 C.ar    1  LIG1        0.0213
     39 N          -3.5253   -7.3495    2.0501 N.ar    1  LIG1       -0.3554
     40 H          -3.6464   -6.6320    2.7473 H       1  LIG1        0.1655
     41 H          -2.8002   -8.9379    3.2701 H       1  LIG1        0.0820
     42 O          -3.9883   -8.7207   -1.1625 O.3     1  LIG1       -0.5035
     43 H          -3.8204   -9.6597   -1.3108 H       1  LIG1        0.2923
     44 C          -2.9391  -10.7103    0.8704 C.1     1  LIG1       -0.0645
     45 C          -2.7044  -11.8562    0.5888 C.1     1  LIG1       -0.1137
     46 H          -2.4950  -12.8747    0.3573 H       1  LIG1        0.1232
@<TRIPOS>BOND
     1     7     1    1
     2     6     5    1
     3     1     5   ar
     4     1     2   ar
     5     5     4   ar
     6    31    30    1
     7    34    33    1
     8    30    25    1
     9    33    32    3
    10    43    42    1
    11    42    36    1
    12     2     8    1
    13     2     3   ar
    14    18    17    1
    15    32    26    1
    16     4    13    1
    17     4     3   ar
    18     8     9    1
    19    25    26   ar
    20    25    24   ar
    21    17    13   ar
    22    17    16   ar
    23    26    27   ar
    24    13    14   ar
    25     3    10    1
    26    24    16    1
    27    24    28   ar
    28    16    15   ar
    29    14    15   ar
    30    14    19    1
    31    36    35   ar
    32    36    37   ar
    33    27    28   ar
    34    27    35    1
    35    15    21    1
    36    28    29    1
    37    46    45    1
    38    19    20    1
    39    45    44    3
    40    35    39   ar
    41    44    37    1
    42    21    22    3
    43    10    11    3
    44    37    38   ar
    45    22    23    1
    46    39    38   ar
    47    39    40    1
    48    11    12    1
    49    38    41    1
