@<TRIPOS>MOLECULE
mol_data/opt/m06hf/geoms/mol2/13fe13fe13fe-13fe-.out
 46 49 0 0 0
SMALL
GASTEIGER

@<TRIPOS>ATOM
      1 C           1.1666    0.1084    0.7879 C.ar    1  LIG1        0.0454
      2 C           0.8558    1.1389   -0.0565 C.ar    1  LIG1        0.1501
      3 C          -0.5278    1.0311   -0.3953 C.ar    1  LIG1        0.0928
      4 C          -1.0187   -0.0766    0.2750 C.ar    1  LIG1        0.0857
      5 N           0.0139   -0.6205    0.9732 N.ar    1  LIG1       -0.3554
      6 H          -0.0932   -1.3757    1.6313 H       1  LIG1        0.1655
      7 H           2.0977   -0.1522    1.2556 H       1  LIG1        0.0845
      8 O           1.7115    2.0902   -0.5083 O.3     1  LIG1       -0.5040
      9 H           1.2161    2.7036   -1.0656 H       1  LIG1        0.2923
     10 C          -1.2003    1.9107   -1.2987 C.1     1  LIG1       -0.0638
     11 C          -1.6937    2.6892   -2.0722 C.1     1  LIG1       -0.1137
     12 H          -2.1524    3.3686   -2.7526 H       1  LIG1        0.1232
     13 C          -2.3568   -0.6525    0.3012 C.ar    1  LIG1        0.1079
     14 C          -3.5832   -0.0598    0.4802 C.ar    1  LIG1        0.1596
     15 C          -4.5725   -1.0882    0.4629 C.ar    1  LIG1        0.0935
     16 C          -3.8967   -2.2893    0.2770 C.ar    1  LIG1        0.0862
     17 N          -2.5784   -2.0124    0.1866 N.ar    1  LIG1       -0.3478
     18 H          -1.8814   -2.7104   -0.0403 H       1  LIG1        0.1661
     19 O          -3.7934    1.2613    0.6692 O.3     1  LIG1       -0.5034
     20 H          -4.7396    1.4247    0.7610 H       1  LIG1        0.2923
     21 C          -5.9798   -0.8970    0.6148 C.1     1  LIG1       -0.0638
     22 C          -7.1635   -0.7031    0.7405 C.1     1  LIG1       -0.1137
     23 H          -8.2061   -0.5085    0.8460 H       1  LIG1        0.1232
     24 C          -4.3974   -3.6431    0.1723 C.ar    1  LIG1        0.1079
     25 C          -3.7041   -4.8119   -0.0167 C.ar    1  LIG1        0.1596
     26 C          -4.6404   -5.8819   -0.0327 C.ar    1  LIG1        0.0935
     27 C          -5.9000   -5.3142    0.1366 C.ar    1  LIG1        0.0862
     28 N          -5.7310   -3.9749    0.2592 N.ar    1  LIG1       -0.3478
     29 H          -6.4720   -3.2858    0.2850 H       1  LIG1        0.1661
     30 O          -2.3500   -4.8841   -0.1361 O.3     1  LIG1       -0.5034
     31 H          -2.0895   -5.7952   -0.3177 H       1  LIG1        0.2923
     32 C          -4.3272   -7.2681   -0.1648 C.1     1  LIG1       -0.0638
     33 C          -4.0541   -8.4353   -0.2958 C.1     1  LIG1       -0.1137
     34 H          -3.8132   -9.4703   -0.3869 H       1  LIG1        0.1232
     35 C          -7.2046   -5.9521    0.1866 C.ar    1  LIG1        0.1074
     36 C          -7.7056   -7.0281   -0.5170 C.ar    1  LIG1        0.1589
     37 C          -9.0682   -7.1999   -0.1262 C.ar    1  LIG1        0.0840
     38 C          -9.3420   -6.2202    0.8064 C.ar    1  LIG1        0.0213
     39 N          -8.2258   -5.4765    0.9865 N.ar    1  LIG1       -0.3554
     40 H          -8.1043   -4.7783    1.7029 H       1  LIG1        0.1655
     41 H         -10.2514   -6.0284    1.3482 H       1  LIG1        0.0820
     42 O          -7.1052   -7.7846   -1.4601 O.3     1  LIG1       -0.5035
     43 H          -6.1521   -7.8340   -1.3073 H       1  LIG1        0.2923
     44 C          -9.9752   -8.1902   -0.6207 C.1     1  LIG1       -0.0645
     45 C         -10.7391   -9.0189   -1.0364 C.1     1  LIG1       -0.1137
     46 H         -11.4094   -9.7552   -1.4142 H       1  LIG1        0.1232
@<TRIPOS>BOND
     1    12    11    1
     2    11    10    3
     3    42    43    1
     4    42    36    1
     5    46    45    1
     6    10     3    1
     7     9     8    1
     8    45    44    3
     9    44    37    1
    10    36    37   ar
    11    36    35   ar
    12     8     2    1
    13     3     2   ar
    14     3     4   ar
    15    34    33    1
    16    31    30    1
    17    33    32    3
    18    32    26    1
    19    30    25    1
    20    37    38   ar
    21     2     1   ar
    22    18    17    1
    23    26    25   ar
    24    26    27   ar
    25    25    24   ar
    26    27    35    1
    27    27    28   ar
    28    24    28   ar
    29    24    16    1
    30    35    39   ar
    31    17    16   ar
    32    17    13   ar
    33    28    29    1
    34     4    13    1
    35     4     5   ar
    36    16    15   ar
    37    13    14   ar
    38    15    14   ar
    39    15    21    1
    40    14    19    1
    41    21    22    3
    42    19    20    1
    43    22    23    1
    44     1     5   ar
    45     1     7    1
    46    38    39   ar
    47    38    41    1
    48     5     6    1
    49    39    40    1
