@<TRIPOS>MOLECULE
mol_data/opt/m06hf/geoms/mol2/13fe13fe-.out
 24 25 0 0 0
SMALL
GASTEIGER

@<TRIPOS>ATOM
      1 C           1.2108   -0.2580   -0.0373 C.ar    1  LIG1        0.0454
      2 C           0.8288    1.0560   -0.0355 C.ar    1  LIG1        0.1501
      3 C          -0.5996    1.0971   -0.0190 C.ar    1  LIG1        0.0928
      4 C          -1.0326   -0.2230   -0.0112 C.ar    1  LIG1        0.0857
      5 N           0.0611   -1.0152   -0.0223 N.ar    1  LIG1       -0.3554
      6 H           0.0006   -2.0245   -0.0196 H       1  LIG1        0.1655
      7 H           2.1918   -0.6943   -0.0478 H       1  LIG1        0.0845
      8 O           1.6625    2.1283   -0.0474 O.3     1  LIG1       -0.5040
      9 H           1.1336    2.9348   -0.0434 H       1  LIG1        0.2923
     10 C          -1.4031    2.2772   -0.0121 C.1     1  LIG1       -0.0638
     11 C          -2.0582    3.2899   -0.0067 C.1     1  LIG1       -0.1137
     12 H          -2.6254    4.1922   -0.0020 H       1  LIG1        0.1232
     13 C          -2.3713   -0.7801    0.0055 C.ar    1  LIG1        0.1074
     14 C          -2.7615   -2.0960    0.0128 C.ar    1  LIG1        0.1589
     15 C          -4.1833   -2.1367    0.0294 C.ar    1  LIG1        0.0840
     16 C          -4.6107   -0.8196    0.0317 C.ar    1  LIG1        0.0213
     17 N          -3.5191   -0.0240    0.0173 N.ar    1  LIG1       -0.3554
     18 H          -3.5124    0.9869    0.0151 H       1  LIG1        0.1655
     19 H          -5.6104   -0.4243    0.0426 H       1  LIG1        0.0820
     20 O          -1.9016   -3.1528    0.0049 O.3     1  LIG1       -0.5035
     21 H          -2.4121   -3.9728    0.0130 H       1  LIG1        0.2923
     22 C          -4.9460   -3.3465    0.0408 C.1     1  LIG1       -0.0645
     23 C          -5.5202   -4.4042    0.0497 C.1     1  LIG1       -0.1137
     24 H          -6.0458   -5.3312    0.0578 H       1  LIG1        0.1232
@<TRIPOS>BOND
     1     7     1    1
     2     8     9    1
     3     8     2    1
     4     1     2   ar
     5     1     5   ar
     6     2     3   ar
     7     5     6    1
     8     5     4   ar
     9     3    10    1
    10     3     4   ar
    11    10    11    3
    12     4    13    1
    13    11    12    1
    14    20    14    1
    15    20    21    1
    16    13    14   ar
    17    13    17   ar
    18    14    15   ar
    19    18    17    1
    20    17    16   ar
    21    15    16   ar
    22    15    22    1
    23    16    19    1
    24    22    23    3
    25    23    24    1
