@<TRIPOS>MOLECULE
mol_data/opt/m06hf/geoms/mol2/13fe13fe-13fe13fe-.out
 46 49 0 0 0
SMALL
GASTEIGER

@<TRIPOS>ATOM
      1 C           1.3620   -0.2588   -0.0086 C.ar    1  LIG1        0.0454
      2 C           0.9819    1.0558   -0.0138 C.ar    1  LIG1        0.1501
      3 C          -0.4464    1.0998   -0.0119 C.ar    1  LIG1        0.0928
      4 C          -0.8822   -0.2189   -0.0054 C.ar    1  LIG1        0.0857
      5 N           0.2106   -1.0140   -0.0035 N.ar    1  LIG1       -0.3554
      6 H           0.1478   -2.0229    0.0010 H       1  LIG1        0.1655
      7 H           2.3425   -0.6975   -0.0082 H       1  LIG1        0.0845
      8 O           1.8135    2.1309   -0.0199 O.3     1  LIG1       -0.5040
      9 H           1.2777    2.9328   -0.0226 H       1  LIG1        0.2923
     10 C          -1.2485    2.2802   -0.0158 C.1     1  LIG1       -0.0638
     11 C          -1.9069    3.2897   -0.0193 C.1     1  LIG1       -0.1137
     12 H          -2.4922    4.1792   -0.0224 H       1  LIG1        0.1232
     13 C          -2.2224   -0.7692   -0.0009 C.ar    1  LIG1        0.1079
     14 C          -2.6148   -2.0856    0.0055 C.ar    1  LIG1        0.1596
     15 C          -4.0346   -2.1254    0.0079 C.ar    1  LIG1        0.0935
     16 C          -4.4618   -0.7987    0.0026 C.ar    1  LIG1        0.0862
     17 N          -3.3672   -0.0071   -0.0025 N.ar    1  LIG1       -0.3478
     18 H          -3.3908    1.0081   -0.0070 H       1  LIG1        0.1661
     19 O          -1.7542   -3.1434    0.0089 O.3     1  LIG1       -0.5034
     20 H          -2.2605   -3.9647    0.0133 H       1  LIG1        0.2923
     21 C          -4.8410   -3.3026    0.0143 C.1     1  LIG1       -0.0638
     22 C          -5.5078   -4.3060    0.0198 C.1     1  LIG1       -0.1137
     23 H          -6.1023   -5.1897    0.0249 H       1  LIG1        0.1232
     24 C          -5.8017   -0.2523    0.0022 C.ar    1  LIG1        0.1079
     25 C          -6.1985    1.0635   -0.0031 C.ar    1  LIG1        0.1596
     26 C          -7.6197    1.0972   -0.0011 C.ar    1  LIG1        0.0935
     27 C          -8.0410   -0.2314    0.0055 C.ar    1  LIG1        0.0862
     28 N          -6.9453   -1.0182    0.0074 N.ar    1  LIG1       -0.3478
     29 H          -6.9742   -2.0335    0.0120 H       1  LIG1        0.1661
     30 O          -5.3436    2.1221   -0.0091 O.3     1  LIG1       -0.5034
     31 H          -5.8513    2.9422   -0.0126 H       1  LIG1        0.2923
     32 C          -8.4264    2.2746   -0.0052 C.1     1  LIG1       -0.0638
     33 C          -9.0820    3.2864   -0.0088 C.1     1  LIG1       -0.1137
     34 H          -9.6542    4.1854   -0.0121 H       1  LIG1        0.1232
     35 C          -9.3768   -0.7899    0.0100 C.ar    1  LIG1        0.1074
     36 C          -9.7671   -2.1067    0.0165 C.ar    1  LIG1        0.1589
     37 C         -11.1889   -2.1454    0.0188 C.ar    1  LIG1        0.0840
     38 C         -11.6157   -0.8276    0.0135 C.ar    1  LIG1        0.0213
     39 N         -10.5251   -0.0325    0.0083 N.ar    1  LIG1       -0.3554
     40 H         -10.5189    0.9783    0.0037 H       1  LIG1        0.1655
     41 H         -12.6162   -0.4330    0.0132 H       1  LIG1        0.0820
     42 O          -8.9124   -3.1651    0.0199 O.3     1  LIG1       -0.5035
     43 H          -9.4287   -3.9811    0.0244 H       1  LIG1        0.2923
     44 C         -11.9545   -3.3527    0.0253 C.1     1  LIG1       -0.0645
     45 C         -12.5380   -4.4048    0.0309 C.1     1  LIG1       -0.1137
     46 H         -13.0737   -5.3256    0.0358 H       1  LIG1        0.1232
@<TRIPOS>BOND
     1     9     8    1
     2    12    11    1
     3     8     2    1
     4    11    10    3
     5    10     3    1
     6     2     3   ar
     7     2     1   ar
     8    31    30    1
     9    34    33    1
    10     3     4   ar
    11    30    25    1
    12    33    32    3
    13     1     7    1
    14     1     5   ar
    15    18    17    1
    16     4     5   ar
    17     4    13    1
    18    32    26    1
    19     5     6    1
    20    25    26   ar
    21    25    24   ar
    22    17    13   ar
    23    17    16   ar
    24    26    27   ar
    25    13    14   ar
    26    24    16    1
    27    24    28   ar
    28    16    15   ar
    29    40    39    1
    30    27    28   ar
    31    27    35    1
    32    14    15   ar
    33    14    19    1
    34    28    29    1
    35    15    21    1
    36    39    35   ar
    37    39    38   ar
    38    19    20    1
    39    35    36   ar
    40    41    38    1
    41    38    37   ar
    42    21    22    3
    43    36    37   ar
    44    36    42    1
    45    37    44    1
    46    22    23    1
    47    42    43    1
    48    44    45    3
    49    45    46    1
