@<TRIPOS>MOLECULE
mol_data/opt/m06hf/geoms/mol2/13fe13fe-13fe-13fe-.out
 46 49 0 0 0
SMALL
GASTEIGER

@<TRIPOS>ATOM
      1 C           1.3893   -0.2608   -0.3553 C.ar    1  LIG1        0.0454
      2 C           0.9662    1.0047   -0.6607 C.ar    1  LIG1        0.1501
      3 C          -0.4601    1.0195   -0.5831 C.ar    1  LIG1        0.0928
      4 C          -0.8491   -0.2664   -0.2272 C.ar    1  LIG1        0.0857
      5 N           0.2675   -1.0144   -0.0957 N.ar    1  LIG1       -0.3554
      6 H           0.2434   -1.9918    0.1597 H       1  LIG1        0.1655
      7 H           2.3830   -0.6657   -0.3054 H       1  LIG1        0.0845
      8 O           1.7660    2.0534   -0.9824 O.3     1  LIG1       -0.5040
      9 H           1.2177    2.8318   -1.1344 H       1  LIG1        0.2923
     10 C          -1.3074    2.1404   -0.8398 C.1     1  LIG1       -0.0638
     11 C          -2.0062    3.0975   -1.0662 C.1     1  LIG1       -0.1137
     12 H          -2.6113    3.9484   -1.2817 H       1  LIG1        0.1232
     13 C          -2.1715   -0.8166   -0.0110 C.ar    1  LIG1        0.1079
     14 C          -2.5445   -2.0935    0.3267 C.ar    1  LIG1        0.1596
     15 C          -3.9631   -2.1248    0.4268 C.ar    1  LIG1        0.0935
     16 C          -4.4137   -0.8428    0.1270 C.ar    1  LIG1        0.0862
     17 N          -3.3255   -0.0774   -0.1296 N.ar    1  LIG1       -0.3478
     18 H          -3.3366    0.8706   -0.4844 H       1  LIG1        0.1661
     19 O          -1.6658   -3.1116    0.5387 O.3     1  LIG1       -0.5034
     20 H          -2.1489   -3.9217    0.7425 H       1  LIG1        0.2923
     21 C          -4.7611   -3.2538    0.7819 C.1     1  LIG1       -0.0638
     22 C          -5.4331   -4.2156    1.0596 C.1     1  LIG1       -0.1137
     23 H          -6.0300   -5.0570    1.3299 H       1  LIG1        0.1232
     24 C          -5.7707   -0.3261    0.0698 C.ar    1  LIG1        0.1079
     25 C          -6.9313   -0.9062   -0.3976 C.ar    1  LIG1        0.1596
     26 C          -7.9698    0.0642   -0.2844 C.ar    1  LIG1        0.0935
     27 C          -7.4028    1.2144    0.2464 C.ar    1  LIG1        0.0862
     28 N          -6.0861    0.9636    0.4564 N.ar    1  LIG1       -0.3478
     29 H          -5.4277    1.6324    0.8241 H       1  LIG1        0.1661
     30 O          -7.1223   -2.1370   -0.9156 O.3     1  LIG1       -0.5034
     31 H          -6.4813   -2.7658   -0.5561 H       1  LIG1        0.2923
     32 C          -9.3463   -0.0872   -0.6328 C.1     1  LIG1       -0.0638
     33 C         -10.5108   -0.1668   -0.9303 C.1     1  LIG1       -0.1137
     34 H         -11.5436   -0.2636   -1.1738 H       1  LIG1        0.1232
     35 C          -8.0184    2.4959    0.5549 C.ar    1  LIG1        0.1074
     36 C          -8.9534    3.2238   -0.1501 C.ar    1  LIG1        0.1589
     37 C          -9.1636    4.4496    0.5548 C.ar    1  LIG1        0.0840
     38 C          -8.3499    4.4138    1.6682 C.ar    1  LIG1        0.0213
     39 N          -7.6620    3.2465    1.6597 N.ar    1  LIG1       -0.3554
     40 H          -7.1236    2.8925    2.4342 H       1  LIG1        0.1655
     41 H          -8.2413    5.1362    2.4580 H       1  LIG1        0.0820
     42 O          -9.5476    2.9233   -1.3236 O.3     1  LIG1       -0.5035
     43 H          -9.6892    1.9677   -1.3945 H       1  LIG1        0.2923
     44 C         -10.0484    5.5095    0.1780 C.1     1  LIG1       -0.0645
     45 C         -10.7926    6.4001   -0.1318 C.1     1  LIG1       -0.1137
     46 H         -11.4573    7.1825   -0.4141 H       1  LIG1        0.1232
@<TRIPOS>BOND
     1    43    42    1
     2    42    36    1
     3    12    11    1
     4    34    33    1
     5     9     8    1
     6    11    10    3
     7     8     2    1
     8    33    32    3
     9    30    31    1
    10    30    25    1
    11    10     3    1
    12     2     3   ar
    13     2     1   ar
    14    32    26    1
    15     3     4   ar
    16    18    17    1
    17    46    45    1
    18    25    26   ar
    19    25    24   ar
    20     1     7    1
    21     1     5   ar
    22    26    27   ar
    23     4     5   ar
    24     4    13    1
    25    36    37   ar
    26    36    35   ar
    27    45    44    3
    28    17    13   ar
    29    17    16   ar
    30     5     6    1
    31    13    14   ar
    32    24    16    1
    33    24    28   ar
    34    16    15   ar
    35    44    37    1
    36    27    28   ar
    37    27    35    1
    38    14    15   ar
    39    14    19    1
    40    15    21    1
    41    28    29    1
    42    19    20    1
    43    37    38   ar
    44    35    39   ar
    45    21    22    3
    46    22    23    1
    47    39    38   ar
    48    39    40    1
    49    38    41    1
