@<TRIPOS>MOLECULE
mol_data/opt/m06hf/geoms/mol2/13fe13fe13fe.out
 35 37 0 0 0
SMALL
GASTEIGER

@<TRIPOS>ATOM
      1 C           0.9559   -0.0297   -1.3990 C.ar    1  LIG1        0.0454
      2 C           0.8010    0.9929   -0.5023 C.ar    1  LIG1        0.1501
      3 C          -0.5081    0.8917    0.0599 C.ar    1  LIG1        0.0928
      4 C          -1.1148   -0.2030   -0.5311 C.ar    1  LIG1        0.0857
      5 N          -0.2186   -0.7466   -1.3974 N.ar    1  LIG1       -0.3554
      6 H          -0.4469   -1.4863   -2.0425 H       1  LIG1        0.1655
      7 H           1.7931   -0.2895   -2.0197 H       1  LIG1        0.0845
      8 O           1.7315    1.9292   -0.1872 O.3     1  LIG1       -0.5040
      9 H           1.3466    2.5343    0.4593 H       1  LIG1        0.2923
     10 C          -1.0257    1.7688    1.0622 C.1     1  LIG1       -0.0638
     11 C          -1.3954    2.5426    1.9057 C.1     1  LIG1       -0.1137
     12 H          -1.7472    3.2212    2.6472 H       1  LIG1        0.1232
     13 C          -2.4478   -0.7611   -0.3328 C.ar    1  LIG1        0.1079
     14 C          -3.6850   -0.1664   -0.4004 C.ar    1  LIG1        0.1596
     15 C          -4.6677   -1.1645   -0.1371 C.ar    1  LIG1        0.0935
     16 C          -3.9897   -2.3546    0.0779 C.ar    1  LIG1        0.0862
     17 N          -2.6632   -2.0933   -0.0418 N.ar    1  LIG1       -0.3478
     18 H          -1.9331   -2.7802    0.0661 H       1  LIG1        0.1661
     19 O          -3.9152    1.1355   -0.6754 O.3     1  LIG1       -0.5034
     20 H          -4.8691    1.2861   -0.6782 H       1  LIG1        0.2923
     21 C          -6.0747   -0.9177   -0.0987 C.1     1  LIG1       -0.0638
     22 C          -7.2444   -0.6382   -0.0758 C.1     1  LIG1       -0.1137
     23 H          -8.2849   -0.4119   -0.0547 H       1  LIG1        0.1232
     24 C          -4.5006   -3.6836    0.4000 C.ar    1  LIG1        0.1074
     25 C          -5.3966   -4.4807   -0.2669 C.ar    1  LIG1        0.1589
     26 C          -5.5431   -5.6919    0.4760 C.ar    1  LIG1        0.0840
     27 C          -4.7206   -5.5842    1.5814 C.ar    1  LIG1        0.0213
     28 N          -4.1000   -4.3863    1.5227 N.ar    1  LIG1       -0.3554
     29 H          -3.5144   -3.9982    2.2453 H       1  LIG1        0.1655
     30 H          -4.5581   -6.2781    2.3871 H       1  LIG1        0.0820
     31 O          -6.0041   -4.1758   -1.4340 O.3     1  LIG1       -0.5035
     32 H          -6.5922   -4.9025   -1.6757 H       1  LIG1        0.2923
     33 C          -6.3878   -6.7749    0.0778 C.1     1  LIG1       -0.0645
     34 C          -7.1166   -7.6478   -0.3153 C.1     1  LIG1       -0.1137
     35 H          -7.7557   -8.4315   -0.6502 H       1  LIG1        0.1232
@<TRIPOS>BOND
     1     6     5    1
     2     7     1    1
     3    32    31    1
     4    31    25    1
     5     1     5   ar
     6     1     2   ar
     7     5     4   ar
     8    20    19    1
     9    19    14    1
    10    35    34    1
    11     4    13    1
    12     4     3   ar
    13     2     8    1
    14     2     3   ar
    15    14    13   ar
    16    14    15   ar
    17    13    17   ar
    18    34    33    3
    19    25    24   ar
    20    25    26   ar
    21     8     9    1
    22    15    21    1
    23    15    16   ar
    24    21    22    3
    25    22    23    1
    26    17    18    1
    27    17    16   ar
    28     3    10    1
    29    33    26    1
    30    16    24    1
    31    24    28   ar
    32    26    27   ar
    33    10    11    3
    34    28    27   ar
    35    28    29    1
    36    27    30    1
    37    11    12    1
