@<TRIPOS>MOLECULE
mol_data/opt/m06hf/geoms/mol2/13fe13fe13fe13fe-.out
 46 49 0 0 0
SMALL
GASTEIGER

@<TRIPOS>ATOM
      1 C           1.2122    0.1461    0.0294 C.ar    1  LIG1        0.0454
      2 C           0.6754    1.2896    0.5553 C.ar    1  LIG1        0.1501
      3 C          -0.7469    1.1598    0.5357 C.ar    1  LIG1        0.0928
      4 C          -1.0293   -0.0769   -0.0185 C.ar    1  LIG1        0.0857
      5 N           0.1583   -0.6724   -0.3097 N.ar    1  LIG1       -0.3554
      6 H           0.2368   -1.5398   -0.8151 H       1  LIG1        0.1655
      7 H           2.2373   -0.1352   -0.1256 H       1  LIG1        0.0845
      8 O           1.3666    2.3560    1.0316 O.3     1  LIG1       -0.5040
      9 H           0.7317    3.0019    1.3661 H       1  LIG1        0.2923
     10 C          -1.6487    2.1424    1.0475 C.1     1  LIG1       -0.0638
     11 C          -2.3451    3.0107    1.5040 C.1     1  LIG1       -0.1137
     12 H          -2.9861    3.7643    1.8978 H       1  LIG1        0.1232
     13 C          -2.3089   -0.7268   -0.2708 C.ar    1  LIG1        0.1079
     14 C          -3.4453   -0.2600   -0.8822 C.ar    1  LIG1        0.1596
     15 C          -4.4122   -1.3107   -0.8793 C.ar    1  LIG1        0.0935
     16 C          -3.8260   -2.3965   -0.2507 C.ar    1  LIG1        0.0862
     17 N          -2.5608   -2.0379    0.0962 N.ar    1  LIG1       -0.3478
     18 H          -1.9910   -2.5539    0.7501 H       1  LIG1        0.1661
     19 O          -3.6008    0.9645   -1.4294 O.3     1  LIG1       -0.5034
     20 H          -4.4893    1.0217   -1.8035 H       1  LIG1        0.2923
     21 C          -5.6983   -1.2135   -1.4934 C.1     1  LIG1       -0.0638
     22 C          -6.7595   -1.0621   -2.0392 C.1     1  LIG1       -0.1137
     23 H          -7.7067   -0.9504   -2.5133 H       1  LIG1        0.1232
     24 C          -4.3623   -3.7175    0.0395 C.ar    1  LIG1        0.1079
     25 C          -5.5821   -4.0926    0.5497 C.ar    1  LIG1        0.1596
     26 C          -5.5854   -5.5137    0.6731 C.ar    1  LIG1        0.0935
     27 C          -4.3435   -5.9563    0.2309 C.ar    1  LIG1        0.0862
     28 N          -3.6262   -4.8744   -0.1382 N.ar    1  LIG1       -0.3478
     29 H          -2.7160   -4.9401   -0.5758 H       1  LIG1        0.1661
     30 O          -6.5762   -3.2483    0.9003 O.3     1  LIG1       -0.5034
     31 H          -7.3442   -3.7597    1.1812 H       1  LIG1        0.2923
     32 C          -6.6630   -6.3065    1.1724 C.1     1  LIG1       -0.0638
     33 C          -7.5874   -6.9535    1.5973 C.1     1  LIG1       -0.1137
     34 H          -8.4113   -7.5142    1.9752 H       1  LIG1        0.1232
     35 C          -3.8013   -7.2942    0.1168 C.ar    1  LIG1        0.1074
     36 C          -2.5729   -7.6913   -0.3510 C.ar    1  LIG1        0.1589
     37 C          -2.5064   -9.1095   -0.2727 C.ar    1  LIG1        0.0840
     38 C          -3.7190   -9.5274    0.2503 C.ar    1  LIG1        0.0213
     39 N          -4.4787   -8.4346    0.4774 N.ar    1  LIG1       -0.3554
     40 H          -5.4158   -8.4235    0.8558 H       1  LIG1        0.1655
     41 H          -4.0664  -10.5224    0.4644 H       1  LIG1        0.0820
     42 O          -1.6113   -6.8397   -0.8053 O.3     1  LIG1       -0.5035
     43 H          -0.8546   -7.3559   -1.1116 H       1  LIG1        0.2923
     44 C          -1.3735   -9.8799   -0.6818 C.1     1  LIG1       -0.0645
     45 C          -0.3895  -10.4687   -1.0463 C.1     1  LIG1       -0.1137
     46 H           0.4711  -11.0098   -1.3648 H       1  LIG1        0.1232
@<TRIPOS>BOND
     1    23    22    1
     2    22    21    3
     3    20    19    1
     4    21    15    1
     5    19    14    1
     6    46    45    1
     7    43    42    1
     8    45    44    3
     9    14    15   ar
    10    14    13   ar
    11    15    16   ar
    12     6     5    1
    13    42    36    1
    14    44    37    1
    15    29    28    1
    16    36    37   ar
    17    36    35   ar
    18     5     4   ar
    19     5     1   ar
    20    37    38   ar
    21    13     4    1
    22    13    17   ar
    23    16    24    1
    24    16    17   ar
    25    28    24   ar
    26    28    27   ar
    27     7     1    1
    28     4     3   ar
    29     1     2   ar
    30    24    25   ar
    31    17    18    1
    32    35    27    1
    33    35    39   ar
    34    27    26   ar
    35    38    41    1
    36    38    39   ar
    37    39    40    1
    38     3     2   ar
    39     3    10    1
    40    25    26   ar
    41    25    30    1
    42     2     8    1
    43    26    32    1
    44    30    31    1
    45     8     9    1
    46    10    11    3
    47    32    33    3
    48    11    12    1
    49    33    34    1
