@<TRIPOS>MOLECULE
mol_data/opt/m06hf/geoms/mol2/13fe13fe-4fe13fe.out
 48 51 0 0 0
SMALL
GASTEIGER

@<TRIPOS>ATOM
      1 C           1.3685   -0.2805   -0.0459 C.ar    1  LIG1        0.0454
      2 C           0.9855    1.0071    0.2148 C.ar    1  LIG1        0.1501
      3 C          -0.4422    1.0416    0.2501 C.ar    1  LIG1        0.0928
      4 C          -0.8750   -0.2552    0.0032 C.ar    1  LIG1        0.0857
      5 N           0.2197   -1.0285   -0.1722 N.ar    1  LIG1       -0.3554
      6 H           0.1615   -2.0191   -0.3656 H       1  LIG1        0.1655
      7 H           2.3494   -0.7047   -0.1499 H       1  LIG1        0.0845
      8 O           1.8174    2.0648    0.4034 O.3     1  LIG1       -0.5040
      9 H           1.2875    2.8370    0.6337 H       1  LIG1        0.2923
     10 C          -1.2462    2.1930    0.5077 C.1     1  LIG1       -0.0638
     11 C          -1.9031    3.1789    0.7328 C.1     1  LIG1       -0.1137
     12 H          -2.4770    4.0498    0.9490 H       1  LIG1        0.1232
     13 C          -2.2130   -0.8054   -0.0756 C.ar    1  LIG1        0.1079
     14 C          -2.6029   -2.1100   -0.2633 C.ar    1  LIG1        0.1595
     15 C          -4.0197   -2.1504   -0.2812 C.ar    1  LIG1        0.0920
     16 C          -4.4595   -0.8344   -0.0988 C.ar    1  LIG1        0.0697
     17 N          -3.3556   -0.0592    0.0189 N.ar    1  LIG1       -0.3490
     18 H          -3.3836    0.9487    0.1261 H       1  LIG1        0.1661
     19 O          -1.7423   -3.1548   -0.4158 O.3     1  LIG1       -0.5034
     20 H          -2.2512   -3.9691   -0.5204 H       1  LIG1        0.2923
     21 C          -4.7470   -3.3631   -0.4843 C.1     1  LIG1       -0.0638
     22 C          -5.2833   -4.4273   -0.6589 C.1     1  LIG1       -0.1137
     23 H          -5.7771   -5.3570   -0.8218 H       1  LIG1        0.1232
     24 C          -6.1171    1.0655   -0.1847 C.ar    1  LIG1        0.1267
     25 C          -7.4169    1.5413   -0.1333 C.ar    1  LIG1       -0.0091
     26 C          -5.8282   -0.3008   -0.0245 C.ar    1  LIG1        0.0422
     27 C          -8.5028    0.6849    0.0766 C.ar    1  LIG1        0.0208
     28 H          -7.6014    2.6006   -0.2603 H       1  LIG1        0.0661
     29 C          -6.9070   -1.1483    0.2086 C.ar    1  LIG1       -0.0330
     30 C          -8.2248   -0.6856    0.2548 C.ar    1  LIG1        0.0347
     31 H          -6.7281   -2.2043    0.3572 H       1  LIG1        0.0638
     32 O          -5.0741    1.9213   -0.3844 O.3     1  LIG1       -0.5061
     33 H          -5.3908    2.8147   -0.5541 H       1  LIG1        0.2922
     34 C          -9.2435   -1.6843    0.4924 C.1     1  LIG1       -0.0690
     35 C         -10.0445   -2.5605    0.6965 C.1     1  LIG1       -0.1139
     36 H         -10.7358   -3.3534    0.8673 H       1  LIG1        0.1232
     37 C          -9.8459    1.2744    0.1038 C.ar    1  LIG1        0.0910
     38 C         -10.2506    2.5584   -0.2136 C.ar    1  LIG1        0.1574
     39 C         -11.6549    2.6489   -0.0182 C.ar    1  LIG1        0.0839
     40 C         -12.0706    1.4032    0.4190 C.ar    1  LIG1        0.0213
     41 N         -10.9910    0.6047    0.4871 N.ar    1  LIG1       -0.3566
     42 H         -10.9910   -0.3665    0.7659 H       1  LIG1        0.1655
     43 H         -13.0569    1.0607    0.6771 H       1  LIG1        0.0820
     44 O          -9.4599    3.5770   -0.6417 O.3     1  LIG1       -0.5035
     45 H         -10.0239    4.3377   -0.8358 H       1  LIG1        0.2923
     46 C         -12.4107    3.8380   -0.2607 C.1     1  LIG1       -0.0645
     47 C         -12.9784    4.8742   -0.4900 C.1     1  LIG1       -0.1137
     48 H         -13.5005    5.7815   -0.6882 H       1  LIG1        0.1232
@<TRIPOS>BOND
     1    45    44    1
     2    23    22    1
     3    48    47    1
     4    22    21    3
     5    44    38    1
     6    33    32    1
     7    20    19    1
     8    47    46    3
     9    21    15    1
    10    19    14    1
    11    32    24    1
    12     6     5    1
    13    15    14   ar
    14    15    16   ar
    15    14    13   ar
    16    46    39    1
    17    28    25    1
    18    38    39   ar
    19    38    37   ar
    20    24    25   ar
    21    24    26   ar
    22     5     1   ar
    23     5     4   ar
    24     7     1    1
    25    25    27   ar
    26    16    26    1
    27    16    17   ar
    28    13     4    1
    29    13    17   ar
    30     1     2   ar
    31    26    29   ar
    32    39    40   ar
    33     4     3   ar
    34    17    18    1
    35    27    37    1
    36    27    30   ar
    37    37    41   ar
    38    29    30   ar
    39    29    31    1
    40     2     3   ar
    41     2     8    1
    42     3    10    1
    43    30    34    1
    44     8     9    1
    45    40    41   ar
    46    40    43    1
    47    41    42    1
    48    34    35    3
    49    10    11    3
    50    35    36    1
    51    11    12    1
