@<TRIPOS>MOLECULE
mol_data/opt/m06hf/geoms/mol2/13ff13ff-13ff13ff-.out
 42 45 0 0 0
SMALL
GASTEIGER

@<TRIPOS>ATOM
      1 C           1.3204   -0.1953   -0.2114 C.ar    1  LIG1        0.0480
      2 C           0.9011    1.0998   -0.0308 C.ar    1  LIG1        0.1767
      3 C          -0.5118    1.0733    0.0927 C.ar    1  LIG1        0.1857
      4 C          -0.9159   -0.2372   -0.0299 C.ar    1  LIG1        0.1124
      5 N           0.2039   -0.9914   -0.2020 N.ar    1  LIG1       -0.3534
      6 H           0.1658   -1.9919   -0.3297 H       1  LIG1        0.1656
      7 H           2.3115   -0.5881   -0.3423 H       1  LIG1        0.0845
      8 O           1.6865    2.2146    0.0382 O.3     1  LIG1       -0.5023
      9 H           1.1404    2.9739   -0.1976 H       1  LIG1        0.2923
     10 O          -1.3317    2.1756    0.2449 O.3     1  LIG1       -0.5019
     11 H          -1.4015    2.3861    1.1846 H       1  LIG1        0.2924
     12 C          -2.2502   -0.8035   -0.0121 C.ar    1  LIG1        0.1129
     13 C          -2.6432   -2.1251   -0.0158 C.ar    1  LIG1        0.1864
     14 C          -4.0594   -2.1453   -0.0260 C.ar    1  LIG1        0.1864
     15 C          -4.4872   -0.8349   -0.0147 C.ar    1  LIG1        0.1129
     16 N          -3.3789   -0.0387   -0.0061 N.ar    1  LIG1       -0.3458
     17 H          -3.3964    0.9742   -0.0205 H       1  LIG1        0.1662
     18 O          -1.7898   -3.2076   -0.0632 O.3     1  LIG1       -0.5019
     19 H          -1.8927   -3.7205    0.7480 H       1  LIG1        0.2924
     20 O          -4.8870   -3.2450    0.0065 O.3     1  LIG1       -0.5019
     21 H          -4.6859   -3.8091   -0.7502 H       1  LIG1        0.2924
     22 C          -5.8349   -0.3065   -0.0167 C.ar    1  LIG1        0.1129
     23 C          -6.2627    1.0037   -0.0367 C.ar    1  LIG1        0.1864
     24 C          -7.6789    0.9837   -0.0270 C.ar    1  LIG1        0.1864
     25 C          -8.0719   -0.3379   -0.0147 C.ar    1  LIG1        0.1129
     26 N          -6.9432   -1.1027   -0.0034 N.ar    1  LIG1       -0.3458
     27 H          -6.9258   -2.1156   -0.0111 H       1  LIG1        0.1662
     28 O          -5.4351    2.1036   -0.0111 O.3     1  LIG1       -0.5019
     29 H          -5.6360    2.6628   -0.7715 H       1  LIG1        0.2924
     30 O          -8.5323    2.0658   -0.0818 O.3     1  LIG1       -0.5019
     31 H          -8.4298    2.5839    0.7260 H       1  LIG1        0.2924
     32 C          -9.4062   -0.9044   -0.0294 C.ar    1  LIG1        0.1124
     33 C          -9.8103   -2.2140    0.1016 C.ar    1  LIG1        0.1857
     34 C         -11.2232   -2.2413   -0.0223 C.ar    1  LIG1        0.1767
     35 C         -11.6424   -0.9474   -0.2114 C.ar    1  LIG1        0.0480
     36 N         -10.5260   -0.1513   -0.2070 N.ar    1  LIG1       -0.3534
     37 H         -10.4877    0.8484   -0.3412 H       1  LIG1        0.1656
     38 H         -12.6335   -0.5554   -0.3452 H       1  LIG1        0.0845
     39 O          -8.9905   -3.3153    0.2612 O.3     1  LIG1       -0.5019
     40 H          -8.9211   -3.5197    1.2023 H       1  LIG1        0.2924
     41 O         -12.0086   -3.3556    0.0536 O.3     1  LIG1       -0.5023
     42 H         -11.4625   -4.1165   -0.1772 H       1  LIG1        0.2923
@<TRIPOS>BOND
     1    29    28    1
     2    21    20    1
     3    38    35    1
     4     7     1    1
     5    37    36    1
     6     6     5    1
     7     1     5   ar
     8     1     2   ar
     9    35    36   ar
    10    35    34   ar
    11    36    32   ar
    12     5     4   ar
    13     9     8    1
    14    42    41    1
    15    30    24    1
    16    30    31    1
    17    18    13    1
    18    18    19    1
    19    23    24   ar
    20    23    22   ar
    21    23    28    1
    22     2     8    1
    23     2     3   ar
    24     4    12    1
    25     4     3   ar
    26    32    25    1
    27    32    33   ar
    28    24    25   ar
    29    14    13   ar
    30    14    15   ar
    31    14    20    1
    32    34    41    1
    33    34    33   ar
    34    17    16    1
    35    22    15    1
    36    22    26   ar
    37    13    12   ar
    38    25    26   ar
    39    15    16   ar
    40    12    16   ar
    41    27    26    1
    42     3    10    1
    43    33    39    1
    44    10    11    1
    45    39    40    1
