@<TRIPOS>MOLECULE
mol_data/opt/m06hf/geoms/mol2/13ff13ff.out
 22 23 0 0 0
SMALL
GASTEIGER

@<TRIPOS>ATOM
      1 C           1.2219   -0.2276   -0.3001 C.ar    1  LIG1        0.0480
      2 C           0.7365    0.9945    0.0822 C.ar    1  LIG1        0.1767
      3 C          -0.6689    0.8672    0.2504 C.ar    1  LIG1        0.1857
      4 C          -1.0045   -0.4348   -0.0362 C.ar    1  LIG1        0.1124
      5 N           0.1552   -1.0945   -0.3630 N.ar    1  LIG1       -0.3534
      6 H           0.1829   -1.9937   -0.8126 H       1  LIG1        0.1656
      7 H           2.2259   -0.5336   -0.5289 H       1  LIG1        0.0845
      8 O           1.4430    2.1387    0.2958 O.3     1  LIG1       -0.5023
      9 H           0.8073    2.8236    0.5396 H       1  LIG1        0.2923
     10 O          -1.4568    1.8981    0.6695 O.3     1  LIG1       -0.5019
     11 H          -2.3185    1.8412    0.2252 H       1  LIG1        0.2924
     12 C          -2.3289   -1.0328   -0.0246 C.ar    1  LIG1        0.1124
     13 C          -3.5331   -0.4281   -0.2823 C.ar    1  LIG1        0.1857
     14 C          -4.5574   -1.3887   -0.0950 C.ar    1  LIG1        0.1767
     15 C          -3.9547   -2.5692    0.2657 C.ar    1  LIG1        0.0480
     16 N          -2.6078   -2.3354    0.3119 N.ar    1  LIG1       -0.3534
     17 H          -1.9220   -2.9768    0.6742 H       1  LIG1        0.1656
     18 H          -4.3789   -3.5328    0.4839 H       1  LIG1        0.0845
     19 O          -3.7056    0.8757   -0.6643 O.3     1  LIG1       -0.5019
     20 H          -4.6457    1.0172   -0.8351 H       1  LIG1        0.2924
     21 O          -5.8824   -1.1019   -0.3299 O.3     1  LIG1       -0.5023
     22 H          -6.3887   -1.2110    0.4824 H       1  LIG1        0.2923
@<TRIPOS>BOND
     1    20    19    1
     2     6     5    1
     3    19    13    1
     4     7     1    1
     5     5     1   ar
     6     5     4   ar
     7    21    14    1
     8    21    22    1
     9     1     2   ar
    10    13    14   ar
    11    13    12   ar
    12    14    15   ar
    13     4    12    1
    14     4     3   ar
    15    12    16   ar
    16     2     3   ar
    17     2     8    1
    18    11    10    1
    19     3    10    1
    20    15    16   ar
    21    15    18    1
    22     8     9    1
    23    16    17    1
