@<TRIPOS>MOLECULE
mol_data/opt/m06hf/geoms/mol2/13ff13ff13ff13ff.out
 42 45 0 0 0
SMALL
GASTEIGER

@<TRIPOS>ATOM
      1 C           1.2973    0.4178   -0.1661 C.ar    1  LIG1        0.0480
      2 C           0.6576    1.5663    0.2200 C.ar    1  LIG1        0.1767
      3 C          -0.7356    1.2898    0.2665 C.ar    1  LIG1        0.1857
      4 C          -0.9087   -0.0255   -0.0954 C.ar    1  LIG1        0.1124
      5 N           0.3360   -0.5494   -0.3469 N.ar    1  LIG1       -0.3534
      6 H           0.4864   -1.4228   -0.8227 H       1  LIG1        0.1656
      7 H           2.3430    0.2277   -0.3231 H       1  LIG1        0.0845
      8 O           1.2227    2.7632    0.5388 O.3     1  LIG1       -0.5023
      9 H           0.5032    3.3708    0.7521 H       1  LIG1        0.2923
     10 O          -1.6576    2.2138    0.6574 O.3     1  LIG1       -0.5019
     11 H          -2.4834    2.0701    0.1653 H       1  LIG1        0.2924
     12 C          -2.1526   -0.7638   -0.2061 C.ar    1  LIG1        0.1129
     13 C          -3.4014   -0.2830   -0.4977 C.ar    1  LIG1        0.1864
     14 C          -4.3235   -1.3605   -0.4257 C.ar    1  LIG1        0.1864
     15 C          -3.6072   -2.4843   -0.0876 C.ar    1  LIG1        0.1129
     16 N          -2.2793   -2.1184    0.0270 N.ar    1  LIG1       -0.3458
     17 H          -1.6283   -2.6184    0.6136 H       1  LIG1        0.1662
     18 O          -3.7030    1.0083   -0.8368 O.3     1  LIG1       -0.5019
     19 H          -4.6589    1.0701   -0.9632 H       1  LIG1        0.2924
     20 O          -5.6399   -1.2120   -0.7242 O.3     1  LIG1       -0.5019
     21 H          -6.1617   -1.8768   -0.2414 H       1  LIG1        0.2924
     22 C          -4.0945   -3.8342    0.1132 C.ar    1  LIG1        0.1129
     23 C          -5.3545   -4.2465    0.4600 C.ar    1  LIG1        0.1864
     24 C          -5.3676   -5.6653    0.4900 C.ar    1  LIG1        0.1864
     25 C          -4.1024   -6.0895    0.1617 C.ar    1  LIG1        0.1129
     26 N          -3.3255   -4.9675   -0.0528 N.ar    1  LIG1       -0.3458
     27 H          -2.5066   -4.9720   -0.6418 H       1  LIG1        0.1662
     28 O          -6.4102   -3.4296    0.7661 O.3     1  LIG1       -0.5019
     29 H          -7.1874   -3.9854    0.9109 H       1  LIG1        0.2924
     30 O          -6.4675   -6.3753    0.8527 O.3     1  LIG1       -0.5019
     31 H          -6.4702   -7.2300    0.3883 H       1  LIG1        0.2924
     32 C          -3.6253   -7.4554    0.0461 C.ar    1  LIG1        0.1124
     33 C          -4.3432   -8.5796   -0.2755 C.ar    1  LIG1        0.1857
     34 C          -3.4694   -9.6926   -0.2165 C.ar    1  LIG1        0.1767
     35 C          -2.2265   -9.2215    0.1323 C.ar    1  LIG1        0.0480
     36 N          -2.3396   -7.8682    0.2963 N.ar    1  LIG1       -0.3534
     37 H          -1.6242   -7.2695    0.6736 H       1  LIG1        0.1656
     38 H          -1.2956   -9.7415    0.2706 H       1  LIG1        0.0845
     39 O          -5.6726   -8.6091   -0.6027 O.3     1  LIG1       -0.5019
     40 H          -5.9052   -9.5140   -0.8489 H       1  LIG1        0.2924
     41 O          -3.8850  -10.9616   -0.5418 O.3     1  LIG1       -0.5023
     42 H          -3.7436  -11.5539    0.2045 H       1  LIG1        0.2923
@<TRIPOS>BOND
     1    19    18    1
     2    40    39    1
     3    18    13    1
     4     6     5    1
     5    20    14    1
     6    20    21    1
     7    27    26    1
     8    39    33    1
     9    41    34    1
    10    41    42    1
    11    13    14   ar
    12    13    12   ar
    13    14    15   ar
    14     5     1   ar
    15     5     4   ar
    16     7     1    1
    17    33    34   ar
    18    33    32   ar
    19    34    35   ar
    20    12     4    1
    21    12    16   ar
    22     1     2   ar
    23     4     3   ar
    24    15    16   ar
    25    15    22    1
    26    26    22   ar
    27    26    25   ar
    28    16    17    1
    29    32    25    1
    30    32    36   ar
    31    22    23   ar
    32    35    38    1
    33    35    36   ar
    34    25    24   ar
    35    11    10    1
    36     2     3   ar
    37     2     8    1
    38     3    10    1
    39    36    37    1
    40    31    30    1
    41    23    24   ar
    42    23    28    1
    43    24    30    1
    44     8     9    1
    45    28    29    1
