@<TRIPOS>MOLECULE
mol_data/opt/m06hf/geoms/mol2/13ff13ff13ff-13ff.out
 42 45 0 0 0
SMALL
GASTEIGER

@<TRIPOS>ATOM
      1 C           1.1385    0.0050   -0.9666 C.ar    1  LIG1        0.0480
      2 C           0.5398    1.2369   -1.0053 C.ar    1  LIG1        0.1767
      3 C          -0.8047    1.0776   -0.5760 C.ar    1  LIG1        0.1857
      4 C          -0.9907   -0.2544   -0.2838 C.ar    1  LIG1        0.1124
      5 N           0.1971   -0.8975   -0.5325 N.ar    1  LIG1       -0.3534
      6 H           0.4043   -1.8357   -0.2353 H       1  LIG1        0.1656
      7 H           2.1437   -0.2856   -1.2105 H       1  LIG1        0.0845
      8 O           1.0933    2.4160   -1.4003 O.3     1  LIG1       -0.5023
      9 H           0.4117    3.0945   -1.3114 H       1  LIG1        0.2923
     10 O          -1.6893    2.1129   -0.5493 O.3     1  LIG1       -0.5019
     11 H          -2.3217    1.9813    0.1762 H       1  LIG1        0.2924
     12 C          -2.1934   -0.9065    0.2026 C.ar    1  LIG1        0.1129
     13 C          -3.2075   -0.3642    0.9549 C.ar    1  LIG1        0.1864
     14 C          -4.1916   -1.3637    1.1483 C.ar    1  LIG1        0.1864
     15 C          -3.7617   -2.5015    0.5062 C.ar    1  LIG1        0.1129
     16 N          -2.5306   -2.2132   -0.0482 N.ar    1  LIG1       -0.3458
     17 H          -2.1209   -2.7722   -0.7814 H       1  LIG1        0.1662
     18 O          -3.2264    0.9115    1.4533 O.3     1  LIG1       -0.5019
     19 H          -4.0115    1.0237    2.0038 H       1  LIG1        0.2924
     20 O          -5.3140   -1.1551    1.8950 O.3     1  LIG1       -0.5019
     21 H          -5.6989   -2.0037    2.1475 H       1  LIG1        0.2924
     22 C          -4.3714   -3.8217    0.4335 C.ar    1  LIG1        0.1129
     23 C          -3.8173   -5.0456    0.7508 C.ar    1  LIG1        0.1864
     24 C          -4.8111   -6.0299    0.5585 C.ar    1  LIG1        0.1864
     25 C          -5.9532   -5.3864    0.1370 C.ar    1  LIG1        0.1129
     26 N          -5.6770   -4.0508    0.0714 N.ar    1  LIG1       -0.3458
     27 H          -6.3213   -3.3670   -0.3045 H       1  LIG1        0.1662
     28 O          -2.5568   -5.3271    1.2010 O.3     1  LIG1       -0.5019
     29 H          -2.1860   -4.5357    1.6112 H       1  LIG1        0.2924
     30 O          -4.7046   -7.3807    0.7564 O.3     1  LIG1       -0.5019
     31 H          -3.8568   -7.5638    1.1784 H       1  LIG1        0.2924
     32 C          -7.2486   -5.9363   -0.2010 C.ar    1  LIG1        0.1124
     33 C          -8.3806   -5.3013   -0.6495 C.ar    1  LIG1        0.1857
     34 C          -9.3787   -6.2879   -0.8345 C.ar    1  LIG1        0.1767
     35 C          -8.8290   -7.5025   -0.4880 C.ar    1  LIG1        0.0480
     36 N          -7.5382   -7.2720   -0.1166 N.ar    1  LIG1       -0.3534
     37 H          -6.8624   -7.9550    0.1953 H       1  LIG1        0.1656
     38 H          -9.2637   -8.4857   -0.4780 H       1  LIG1        0.0845
     39 O          -8.4959   -3.9565   -0.8704 O.3     1  LIG1       -0.5019
     40 H          -9.4222   -3.7665   -1.0648 H       1  LIG1        0.2924
     41 O         -10.6591   -5.9842   -1.2416 O.3     1  LIG1       -0.5023
     42 H         -10.7959   -6.3093   -2.1382 H       1  LIG1        0.2923
@<TRIPOS>BOND
     1    42    41    1
     2     8     9    1
     3     8     2    1
     4    41    34    1
     5     7     1    1
     6    40    39    1
     7     2     1   ar
     8     2     3   ar
     9     1     5   ar
    10    39    33    1
    11    34    33   ar
    12    34    35   ar
    13    17    16    1
    14    33    32   ar
    15     3    10    1
    16     3     4   ar
    17    10    11    1
    18     5     4   ar
    19     5     6    1
    20    35    38    1
    21    35    36   ar
    22    27    26    1
    23     4    12    1
    24    32    36   ar
    25    32    25    1
    26    36    37    1
    27    16    12   ar
    28    16    15   ar
    29    26    25   ar
    30    26    22   ar
    31    25    24   ar
    32    12    13   ar
    33    22    15    1
    34    22    23   ar
    35    15    14   ar
    36    24    23   ar
    37    24    30    1
    38    23    28    1
    39    30    31    1
    40    13    14   ar
    41    13    18    1
    42    14    20    1
    43    28    29    1
    44    18    19    1
    45    20    21    1
