@<TRIPOS>MOLECULE
mol_data/opt/m06hf/geoms/mol2/13ff13ff-.out
 22 23 0 0 0
SMALL
GASTEIGER

@<TRIPOS>ATOM
      1 C           1.1844   -0.2300   -0.1674 C.ar    1  LIG1        0.0480
      2 C           0.7499    1.0665   -0.0416 C.ar    1  LIG1        0.1767
      3 C          -0.6666    1.0303    0.0443 C.ar    1  LIG1        0.1857
      4 C          -1.0558   -0.2864   -0.0464 C.ar    1  LIG1        0.1124
      5 N           0.0745   -1.0352   -0.1626 N.ar    1  LIG1       -0.3534
      6 H           0.0517   -2.0389   -0.2679 H       1  LIG1        0.1656
      7 H           2.1814   -0.6197   -0.2567 H       1  LIG1        0.0845
      8 O           1.5282    2.1874    0.0205 O.3     1  LIG1       -0.5023
      9 H           1.0120    2.9274   -0.3207 H       1  LIG1        0.2923
     10 O          -1.5075    2.1244    0.1354 O.3     1  LIG1       -0.5019
     11 H          -1.5431    2.4130    1.0560 H       1  LIG1        0.2924
     12 C          -2.3862   -0.8658   -0.0457 C.ar    1  LIG1        0.1124
     13 C          -2.7753   -2.1825    0.0456 C.ar    1  LIG1        0.1857
     14 C          -4.1918   -2.2187   -0.0387 C.ar    1  LIG1        0.1767
     15 C          -4.6265   -0.9223   -0.1643 C.ar    1  LIG1        0.0480
     16 N          -3.5165   -0.1171   -0.1613 N.ar    1  LIG1       -0.3534
     17 H          -3.4938    0.8865   -0.2673 H       1  LIG1        0.1656
     18 H          -5.6236   -0.5326   -0.2526 H       1  LIG1        0.0845
     19 O          -1.9343   -3.2766    0.1360 O.3     1  LIG1       -0.5019
     20 H          -1.8976   -3.5650    1.0565 H       1  LIG1        0.2924
     21 O          -4.9700   -3.3397    0.0246 O.3     1  LIG1       -0.5023
     22 H          -4.4543   -4.0797   -0.3172 H       1  LIG1        0.2923
@<TRIPOS>BOND
     1     9     8    1
     2    22    21    1
     3     6     5    1
     4    17    16    1
     5     7     1    1
     6    18    15    1
     7     1     5   ar
     8     1     2   ar
     9    15    16   ar
    10    15    14   ar
    11     5     4   ar
    12    16    12   ar
    13     4    12    1
    14     4     3   ar
    15    12    13   ar
    16     2     8    1
    17     2     3   ar
    18    14    21    1
    19    14    13   ar
    20     3    10    1
    21    13    19    1
    22    10    11    1
    23    19    20    1
