@<TRIPOS>MOLECULE
mol_data/opt/m06hf/geoms/mol2/13ff4fd-12fi13de-.out
 46 49 0 0 0
SMALL
GASTEIGER

@<TRIPOS>ATOM
      1 C           1.2761   -0.0418    0.5329 C.ar    1  LIG1        0.0479
      2 C           0.9651    1.0296   -0.2635 C.ar    1  LIG1        0.1766
      3 C          -0.4181    0.9516   -0.5678 C.ar    1  LIG1        0.1842
      4 C          -0.9241   -0.1732    0.0534 C.ar    1  LIG1        0.0958
      5 N           0.1293   -0.7696    0.7072 N.ar    1  LIG1       -0.3546
      6 H           0.0221   -1.5078    1.3830 H       1  LIG1        0.1656
      7 H           2.2107   -0.3223    0.9833 H       1  LIG1        0.0845
      8 O           1.8060    1.9978   -0.7167 O.3     1  LIG1       -0.5023
      9 H           1.2749    2.6290   -1.2193 H       1  LIG1        0.2923
     10 O          -1.0145    1.8539   -1.3946 O.3     1  LIG1       -0.5019
     11 H          -1.9262    1.9815   -1.0932 H       1  LIG1        0.2924
     12 C          -3.4331   -0.0074    0.0182 C.ar    1  LIG1        0.1268
     13 C          -4.6911   -0.5894    0.0201 C.ar    1  LIG1       -0.0075
     14 C          -2.2582   -0.7794    0.0400 C.ar    1  LIG1        0.0446
     15 C          -4.8354   -1.9775    0.0749 C.ar    1  LIG1        0.0418
     16 H          -5.5824    0.0275   -0.0023 H       1  LIG1        0.0662
     17 C          -2.4115   -2.1630    0.0774 C.ar    1  LIG1       -0.0309
     18 C          -3.6704   -2.7633    0.1153 C.ar    1  LIG1        0.0634
     19 H          -1.5319   -2.7939    0.0628 H       1  LIG1        0.0638
     20 O          -3.2954    1.3509    0.0041 O.3     1  LIG1       -0.5061
     21 H          -4.1517    1.7856    0.0886 H       1  LIG1        0.2922
     22 N          -3.7458   -5.3503    0.3381 N.1     1  LIG1       -0.1908
     23 C          -3.7208   -4.2077    0.2259 C.1     1  LIG1        0.0999
     24 C          -6.1716   -2.5568    0.0985 C.ar    1  LIG1        0.1785
     25 C          -7.4209   -2.0446    0.3015 C.ar    1  LIG1        0.1663
     26 C          -8.3574   -3.1362    0.2990 C.ar    1  LIG1        0.0389
     27 C          -7.5866   -4.2366    0.0548 C.ar    1  LIG1        0.1596
     28 O          -6.2906   -3.8944   -0.0636 O.2     1  LIG1       -0.4492
     29 O          -7.6984   -0.7342    0.5164 O.3     1  LIG1       -0.5030
     30 H          -8.6464   -0.5792    0.4402 H       1  LIG1        0.2923
     31 C          -9.8319   -3.0287    0.5959 C.3     1  LIG1       -0.0325
     32 H         -10.1796   -3.9289    1.0995 H       1  LIG1        0.0280
     33 H         -10.4179   -2.9041   -0.3146 H       1  LIG1        0.0280
     34 H         -10.0081   -2.1816    1.2632 H       1  LIG1        0.0280
     35 C          -7.8068   -5.6715   -0.0546 C.ar    1  LIG1        0.1013
     36 C          -8.9183   -6.4438   -0.3429 C.ar    1  LIG1        0.0953
     37 C          -8.5064   -7.8131   -0.3122 C.ar    1  LIG1        0.0600
     38 C          -7.1594   -7.8082   -0.0214 C.ar    1  LIG1        0.0190
     39 N          -6.7588   -6.5210    0.1289 N.ar    1  LIG1       -0.3561
     40 H          -5.8061   -6.2140    0.3167 H       1  LIG1        0.1655
     41 H          -6.4772   -8.6332    0.0837 H       1  LIG1        0.0820
     42 N         -11.2634   -5.5720   -0.9721 N.1     1  LIG1       -0.1908
     43 C         -10.2221   -5.9641   -0.6874 C.1     1  LIG1        0.1026
     44 C          -9.3339   -8.9562   -0.5506 C.1     1  LIG1       -0.0669
     45 C         -10.0381   -9.9084   -0.7489 C.1     1  LIG1       -0.1138
     46 H         -10.6663  -10.7501   -0.9275 H       1  LIG1        0.1232
@<TRIPOS>BOND
     1    10    11    1
     2    10     3    1
     3     9     8    1
     4    42    43    3
     5    46    45    1
     6    45    44    3
     7     8     2    1
     8    43    36    1
     9     3     2   ar
    10     3     4   ar
    11    44    37    1
    12    36    37   ar
    13    36    35   ar
    14    33    31    1
    15    37    38   ar
    16     2     1   ar
    17    28    27   ar
    18    28    24   ar
    19    35    27    1
    20    35    39   ar
    21    38    41    1
    22    38    39   ar
    23    16    13    1
    24    20    12    1
    25    20    21    1
    26    12    13   ar
    27    12    14   ar
    28    13    15   ar
    29    14     4    1
    30    14    17   ar
    31     4     5   ar
    32    27    26   ar
    33    19    17    1
    34    15    24    1
    35    15    18   ar
    36    17    18   ar
    37    24    25   ar
    38    18    23    1
    39    39    40    1
    40    23    22    3
    41    26    25   ar
    42    26    31    1
    43    25    29    1
    44    30    29    1
    45     1     5   ar
    46     1     7    1
    47    31    32    1
    48    31    34    1
    49     5     6    1
