@<TRIPOS>MOLECULE
mol_data/opt/m06hf/geoms/mol2/13ff13ff13ff13ff-.out
 42 45 0 0 0
SMALL
GASTEIGER

@<TRIPOS>ATOM
      1 C           1.2773    0.2969    0.0837 C.ar    1  LIG1        0.0480
      2 C           0.6484    1.4682    0.4163 C.ar    1  LIG1        0.1767
      3 C          -0.7518    1.2334    0.3735 C.ar    1  LIG1        0.1857
      4 C          -0.9404   -0.0804    0.0126 C.ar    1  LIG1        0.1124
      5 N           0.3015   -0.6426   -0.1534 N.ar    1  LIG1       -0.3534
      6 H           0.4574   -1.5285   -0.6034 H       1  LIG1        0.1656
      7 H           2.3251    0.0744   -0.0021 H       1  LIG1        0.0845
      8 O           1.2267    2.6533    0.7568 O.3     1  LIG1       -0.5023
      9 H           0.5115    3.2748    0.9430 H       1  LIG1        0.2923
     10 O          -1.6703    2.1872    0.6964 O.3     1  LIG1       -0.5019
     11 H          -2.4639    2.0645    0.1492 H       1  LIG1        0.2924
     12 C          -2.1974   -0.7786   -0.1811 C.ar    1  LIG1        0.1129
     13 C          -3.4041   -0.2587   -0.5715 C.ar    1  LIG1        0.1864
     14 C          -4.3627   -1.3032   -0.5641 C.ar    1  LIG1        0.1864
     15 C          -3.7138   -2.4489   -0.1657 C.ar    1  LIG1        0.1129
     16 N          -2.3910   -2.1226    0.0543 N.ar    1  LIG1       -0.3458
     17 H          -1.7815   -2.6557    0.6557 H       1  LIG1        0.1662
     18 O          -3.6344    1.0400   -0.9407 O.3     1  LIG1       -0.5019
     19 H          -4.5778    1.1352   -1.1269 H       1  LIG1        0.2924
     20 O          -5.6518   -1.1152   -0.9540 O.3     1  LIG1       -0.5019
     21 H          -6.2163   -1.7551   -0.4881 H       1  LIG1        0.2924
     22 C          -4.2560   -3.7851    0.0023 C.ar    1  LIG1        0.1129
     23 C          -5.5521   -4.1721    0.2605 C.ar    1  LIG1        0.1864
     24 C          -5.5750   -5.5850    0.3469 C.ar    1  LIG1        0.1864
     25 C          -4.2921   -6.0315    0.1235 C.ar    1  LIG1        0.1129
     26 N          -3.5085   -4.9339   -0.0746 N.ar    1  LIG1       -0.3458
     27 H          -2.5347   -4.9971   -0.3380 H       1  LIG1        0.1662
     28 O          -6.6220   -3.3262    0.4455 O.3     1  LIG1       -0.5019
     29 H          -7.4260   -3.7941    0.1861 H       1  LIG1        0.2924
     30 O          -6.6872   -6.3729    0.5714 O.3     1  LIG1       -0.5019
     31 H          -6.8855   -6.3677    1.5166 H       1  LIG1        0.2924
     32 C          -3.7698   -7.3799    0.0582 C.ar    1  LIG1        0.1124
     33 C          -2.4747   -7.8085   -0.0997 C.ar    1  LIG1        0.1857
     34 C          -2.4914   -9.2249   -0.1127 C.ar    1  LIG1        0.1767
     35 C          -3.8003   -9.6240    0.0409 C.ar    1  LIG1        0.0480
     36 N          -4.5600   -8.4962    0.1333 N.ar    1  LIG1       -0.3534
     37 H          -5.5647   -8.4451    0.2119 H       1  LIG1        0.1656
     38 H          -4.2252  -10.6106    0.0932 H       1  LIG1        0.0845
     39 O          -1.3832   -6.9942   -0.2286 O.3     1  LIG1       -0.5019
     40 H          -0.5933   -7.5427   -0.1395 H       1  LIG1        0.2924
     41 O          -1.3468   -9.9850   -0.2049 O.3     1  LIG1       -0.5023
     42 H          -1.2760  -10.3530   -1.0928 H       1  LIG1        0.2923
@<TRIPOS>BOND
     1    19    18    1
     2    42    41    1
     3    20    14    1
     4    20    21    1
     5    18    13    1
     6     6     5    1
     7    13    14   ar
     8    13    12   ar
     9    14    15   ar
    10    27    26    1
    11    39    40    1
    12    39    33    1
    13    41    34    1
    14    12     4    1
    15    12    16   ar
    16    15    22    1
    17    15    16   ar
    18     5     4   ar
    19     5     1   ar
    20    34    33   ar
    21    34    35   ar
    22    33    32   ar
    23    26    22   ar
    24    26    25   ar
    25     7     1    1
    26    22    23   ar
    27     4     3   ar
    28    35    38    1
    29    35    36   ar
    30    16    17    1
    31    32    25    1
    32    32    36   ar
    33     1     2   ar
    34    25    24   ar
    35    36    37    1
    36    11    10    1
    37    29    28    1
    38    23    24   ar
    39    23    28    1
    40    24    30    1
    41     3     2   ar
    42     3    10    1
    43     2     8    1
    44    30    31    1
    45     8     9    1
