@<TRIPOS>MOLECULE
mol_data/opt/m06hf/geoms/mol2/13ff13ff-13ff-13ff-.out
 42 45 0 0 0
SMALL
GASTEIGER

@<TRIPOS>ATOM
      1 C           1.4170   -0.5264    0.0754 C.ar    1  LIG1        0.0480
      2 C           1.0718    0.7975   -0.0803 C.ar    1  LIG1        0.1767
      3 C          -0.3428    0.8711   -0.0755 C.ar    1  LIG1        0.1857
      4 C          -0.8241   -0.4057    0.0798 C.ar    1  LIG1        0.1124
      5 N           0.2590   -1.2401    0.1613 N.ar    1  LIG1       -0.3534
      6 H           0.1672   -2.2419    0.2392 H       1  LIG1        0.1656
      7 H           2.3854   -0.9906    0.1334 H       1  LIG1        0.0845
      8 O           1.8781    1.9104   -0.1681 O.3     1  LIG1       -0.5023
      9 H           2.2528    1.9666   -1.0543 H       1  LIG1        0.2923
     10 O          -1.1119    1.9944   -0.2088 O.3     1  LIG1       -0.5019
     11 H          -0.5327    2.7617   -0.1161 H       1  LIG1        0.2924
     12 C          -2.1927   -0.8733    0.1374 C.ar    1  LIG1        0.1129
     13 C          -2.6917   -2.1373    0.3578 C.ar    1  LIG1        0.1864
     14 C          -4.1020   -2.0576    0.2634 C.ar    1  LIG1        0.1864
     15 C          -4.4351   -0.7470    0.0035 C.ar    1  LIG1        0.1129
     16 N          -3.2568   -0.0462   -0.0666 N.ar    1  LIG1       -0.3458
     17 H          -3.1530    0.9243   -0.3293 H       1  LIG1        0.1662
     18 O          -1.9505   -3.2803    0.5863 O.3     1  LIG1       -0.5019
     19 H          -1.9686   -3.4781    1.5315 H       1  LIG1        0.2924
     20 O          -4.9912   -3.0927    0.4433 O.3     1  LIG1       -0.5019
     21 H          -4.5544   -3.9148    0.1865 H       1  LIG1        0.2924
     22 C          -5.7476   -0.1517   -0.1720 C.ar    1  LIG1        0.1129
     23 C          -6.9158   -0.7542   -0.5776 C.ar    1  LIG1        0.1864
     24 C          -7.9214    0.2451   -0.5899 C.ar    1  LIG1        0.1864
     25 C          -7.3562    1.4298   -0.1951 C.ar    1  LIG1        0.1129
     26 N          -6.0224    1.1827    0.0478 N.ar    1  LIG1       -0.3458
     27 H          -5.4686    1.7704    0.6520 H       1  LIG1        0.1662
     28 O          -7.1525   -2.0346   -0.9700 O.3     1  LIG1       -0.5019
     29 H          -6.5391   -2.6244   -0.5000 H       1  LIG1        0.2924
     30 O          -9.2261    0.0670   -0.9667 O.3     1  LIG1       -0.5019
     31 H          -9.3576   -0.8717   -1.1547 H       1  LIG1        0.2924
     32 C          -8.0051    2.7134   -0.0041 C.ar    1  LIG1        0.1124
     33 C          -9.3124    2.9536    0.3495 C.ar    1  LIG1        0.1857
     34 C          -9.4919    4.3620    0.3922 C.ar    1  LIG1        0.1767
     35 C          -8.2947    4.9442    0.0666 C.ar    1  LIG1        0.0480
     36 N          -7.3932    3.9321   -0.1659 N.ar    1  LIG1       -0.3534
     37 H          -6.4995    4.0531   -0.6113 H       1  LIG1        0.1656
     38 H          -8.0305    5.9825   -0.0170 H       1  LIG1        0.0845
     39 O         -10.3036    2.0734    0.6663 O.3     1  LIG1       -0.5019
     40 H         -10.2094    1.2760    0.1189 H       1  LIG1        0.2924
     41 O         -10.6550    4.9864    0.7267 O.3     1  LIG1       -0.5023
     42 H         -11.3055    4.2963    0.9083 H       1  LIG1        0.2923
@<TRIPOS>BOND
     1    31    30    1
     2     9     8    1
     3    28    23    1
     4    28    29    1
     5    30    24    1
     6    37    36    1
     7    24    23   ar
     8    24    25   ar
     9    23    22   ar
    10    17    16    1
    11    10    11    1
    12    10     3    1
    13    25    32    1
    14    25    26   ar
    15    22    15    1
    16    22    26   ar
    17     8     2    1
    18    36    32   ar
    19    36    35   ar
    20     2     3   ar
    21     2     1   ar
    22     3     4   ar
    23    16    15   ar
    24    16    12   ar
    25    38    35    1
    26    32    33   ar
    27    15    14   ar
    28    26    27    1
    29    35    34   ar
    30     1     7    1
    31     1     5   ar
    32     4    12    1
    33     4     5   ar
    34    40    39    1
    35    12    13   ar
    36     5     6    1
    37    21    20    1
    38    14    13   ar
    39    14    20    1
    40    33    34   ar
    41    33    39    1
    42    13    18    1
    43    34    41    1
    44    18    19    1
    45    41    42    1
