@<TRIPOS>MOLECULE
mol_data/opt/m06hf/geoms/mol2/13ff13ff-13ff.out
 32 34 0 0 0
SMALL
GASTEIGER

@<TRIPOS>ATOM
      1 C          -4.6924    0.2035   -0.0745 C.ar    1  LIG1        0.0480
      2 C          -4.3051   -1.1118    0.0478 C.ar    1  LIG1        0.1767
      3 C          -2.8884   -1.1375    0.0901 C.ar    1  LIG1        0.1857
      4 C          -2.4486    0.1596   -0.0110 C.ar    1  LIG1        0.1124
      5 N          -3.5575    0.9569   -0.1168 N.ar    1  LIG1       -0.3534
      6 H          -3.4882    1.9597   -0.2166 H       1  LIG1        0.1656
      7 H          -5.6753    0.6359   -0.1253 H       1  LIG1        0.0845
      8 O          -5.0909   -2.2362    0.1825 O.3     1  LIG1       -0.5023
      9 H          -5.3214   -2.5665   -0.6931 H       1  LIG1        0.2923
     10 O          -2.0846   -2.2381    0.2017 O.3     1  LIG1       -0.5019
     11 H          -2.6127   -2.9581    0.5676 H       1  LIG1        0.2924
     12 C          -1.1022    0.6952   -0.0093 C.ar    1  LIG1        0.1129
     13 C          -0.6870    2.0088   -0.0258 C.ar    1  LIG1        0.1864
     14 C           0.7289    2.0049   -0.0322 C.ar    1  LIG1        0.1864
     15 C           1.1372    0.6895   -0.0030 C.ar    1  LIG1        0.1129
     16 N           0.0154   -0.0886    0.0070 N.ar    1  LIG1       -0.3458
     17 H           0.0125   -1.1026    0.0306 H       1  LIG1        0.1662
     18 O          -1.5206    3.1082   -0.0761 O.3     1  LIG1       -0.5019
     19 H          -1.3651    3.6439    0.7114 H       1  LIG1        0.2924
     20 O           1.5692    3.0999   -0.0194 O.3     1  LIG1       -0.5019
     21 H           1.4017    3.6223   -0.8134 H       1  LIG1        0.2924
     22 C           2.4806    0.1472    0.0206 C.ar    1  LIG1        0.1124
     23 C           2.9140   -1.1548   -0.0363 C.ar    1  LIG1        0.1857
     24 C           4.3301   -1.1349    0.0095 C.ar    1  LIG1        0.1767
     25 C           4.7243    0.1810    0.1026 C.ar    1  LIG1        0.0480
     26 N           3.5940    0.9421    0.0981 N.ar    1  LIG1       -0.3534
     27 H           3.5295    1.9478    0.1667 H       1  LIG1        0.1656
     28 H           5.7081    0.6081    0.1785 H       1  LIG1        0.0845
     29 O           2.1076   -2.2544   -0.1272 O.3     1  LIG1       -0.5019
     30 H           2.6462   -3.0331    0.0617 H       1  LIG1        0.2924
     31 O           5.1023   -2.2771    0.0088 O.3     1  LIG1       -0.5023
     32 H           5.4308   -2.4353   -0.8834 H       1  LIG1        0.2923
@<TRIPOS>BOND
     1    32    31    1
     2    21    20    1
     3     9     8    1
     4     6     5    1
     5    29    23    1
     6    29    30    1
     7     7     1    1
     8     5     1   ar
     9     5     4   ar
    10    18    13    1
    11    18    19    1
    12     1     2   ar
    13    23    24   ar
    14    23    22   ar
    15    14    13   ar
    16    14    20    1
    17    14    15   ar
    18    13    12   ar
    19     4    12    1
    20     4     3   ar
    21    12    16   ar
    22    15    16   ar
    23    15    22    1
    24    16    17    1
    25    31    24    1
    26    24    25   ar
    27    22    26   ar
    28     2     3   ar
    29     2     8    1
    30     3    10    1
    31    26    25   ar
    32    26    27    1
    33    25    28    1
    34    10    11    1
