@<TRIPOS>MOLECULE
mol_data/opt/m06hf/geoms/mol2/13ff13ff-4ff13ff.out
 44 47 0 0 0
SMALL
GASTEIGER

@<TRIPOS>ATOM
      1 C           1.3563   -0.2710   -0.4159 C.ar    1  LIG1        0.0480
      2 C           0.9707    1.0101   -0.1061 C.ar    1  LIG1        0.1767
      3 C          -0.4320    0.9912    0.1005 C.ar    1  LIG1        0.1857
      4 C          -0.8667   -0.3000   -0.0992 C.ar    1  LIG1        0.1124
      5 N           0.2282   -1.0524   -0.3974 N.ar    1  LIG1       -0.3534
      6 H           0.1696   -2.0322   -0.6296 H       1  LIG1        0.1656
      7 H           2.3298   -0.6659   -0.6412 H       1  LIG1        0.0845
      8 O           1.7742    2.1060    0.0020 O.3     1  LIG1       -0.5023
      9 H           1.2056    2.8855   -0.0024 H       1  LIG1        0.2923
     10 O          -1.2085    2.0952    0.3944 O.3     1  LIG1       -0.5019
     11 H          -1.3532    2.1344    1.3481 H       1  LIG1        0.2924
     12 C          -2.2060   -0.8519   -0.0352 C.ar    1  LIG1        0.1128
     13 C          -2.6144   -2.1700    0.0058 C.ar    1  LIG1        0.1864
     14 C          -4.0239   -2.1788    0.0337 C.ar    1  LIG1        0.1850
     15 C          -4.4558   -0.8612    0.0260 C.ar    1  LIG1        0.0964
     16 N          -3.3217   -0.0851   -0.0119 N.ar    1  LIG1       -0.3469
     17 H          -3.3374    0.9263   -0.0597 H       1  LIG1        0.1662
     18 O          -1.8089   -3.2944   -0.0273 O.3     1  LIG1       -0.5019
     19 H          -1.5689   -3.5301    0.8778 H       1  LIG1        0.2924
     20 O          -4.7988   -3.3050    0.0704 O.3     1  LIG1       -0.5019
     21 H          -4.2418   -4.0490   -0.1909 H       1  LIG1        0.2924
     22 C          -6.0948    1.0540    0.0266 C.ar    1  LIG1        0.1269
     23 C          -7.3982    1.5237    0.0242 C.ar    1  LIG1       -0.0068
     24 C          -5.8184   -0.3197    0.0400 C.ar    1  LIG1        0.0469
     25 C          -8.4928    0.6538    0.0356 C.ar    1  LIG1        0.0469
     26 H          -7.5862    2.5911    0.0148 H       1  LIG1        0.0662
     27 C          -6.9131   -1.1902    0.0577 C.ar    1  LIG1       -0.0068
     28 C          -8.2159   -0.7196    0.0554 C.ar    1  LIG1        0.1269
     29 H          -6.7257   -2.2575    0.0687 H       1  LIG1        0.0662
     30 O          -5.0366    1.9325    0.0202 O.3     1  LIG1       -0.5061
     31 H          -5.3552    2.8358   -0.0744 H       1  LIG1        0.2922
     32 O          -9.2757   -1.5994    0.0708 O.3     1  LIG1       -0.5061
     33 H          -8.9527   -2.5056    0.1028 H       1  LIG1        0.2922
     34 C          -9.8524    1.2037    0.0296 C.ar    1  LIG1        0.0959
     35 C         -10.2735    2.5205   -0.0081 C.ar    1  LIG1        0.1842
     36 C         -11.6853    2.5262    0.0030 C.ar    1  LIG1        0.1766
     37 C         -12.1070    1.2164    0.0545 C.ar    1  LIG1        0.0479
     38 N         -10.9954    0.4398    0.0606 N.ar    1  LIG1       -0.3546
     39 H         -10.9568   -0.5683    0.0892 H       1  LIG1        0.1656
     40 H         -13.0997    0.8039    0.0908 H       1  LIG1        0.0845
     41 O          -9.5015    3.6467   -0.0433 O.3     1  LIG1       -0.5019
     42 H         -10.1033    4.3989    0.0353 H       1  LIG1        0.2924
     43 O         -12.4161    3.6961    0.0122 O.3     1  LIG1       -0.5023
     44 H         -12.8468    3.8090   -0.8422 H       1  LIG1        0.2923
@<TRIPOS>BOND
     1    44    43    1
     2     7     1    1
     3     6     5    1
     4     1     5   ar
     5     1     2   ar
     6     5     4   ar
     7    21    20    1
     8     2     8    1
     9     2     3   ar
    10     4    12    1
    11     4     3   ar
    12    31    30    1
    13    17    16    1
    14    41    35    1
    15    41    42    1
    16    12    16   ar
    17    12    13   ar
    18    18    13    1
    19    18    19    1
    20    16    15   ar
    21    35    36   ar
    22    35    34   ar
    23     9     8    1
    24    36    43    1
    25    36    37   ar
    26    13    14   ar
    27    26    23    1
    28    30    22    1
    29    23    22   ar
    30    23    25   ar
    31    15    14   ar
    32    15    24    1
    33    22    24   ar
    34    34    25    1
    35    34    38   ar
    36    14    20    1
    37    25    28   ar
    38    24    27   ar
    39    37    38   ar
    40    37    40    1
    41    28    27   ar
    42    28    32    1
    43    27    29    1
    44    38    39    1
    45    32    33    1
    46     3    10    1
    47    10    11    1
