@<TRIPOS>MOLECULE
mol_data/opt/m06hf/geoms/mol2/13ff.out
 12 12 0 0 0
SMALL
GASTEIGER

@<TRIPOS>ATOM
      1 C           1.1247   -0.3703   -0.0001 C.ar    1  LIG1        0.0475
      2 C           0.6973    0.9305    0.0002 C.ar    1  LIG1        0.1760
      3 C          -0.7230    0.9110    0.0002 C.ar    1  LIG1        0.1760
      4 C          -1.1264   -0.4002    0.0005 C.ar    1  LIG1        0.0475
      5 N           0.0089   -1.1658   -0.0000 N.ar    1  LIG1       -0.3610
      6 H           0.0213   -2.1707   -0.0005 H       1  LIG1        0.1650
      7 H          -2.1097   -0.8361    0.0008 H       1  LIG1        0.0845
      8 H           2.1213   -0.7711   -0.0003 H       1  LIG1        0.0845
      9 O           1.4715    2.0530    0.0002 O.3     1  LIG1       -0.5023
     10 H           0.8826    2.8176    0.0003 H       1  LIG1        0.2923
     11 O          -1.4352    2.0828    0.0002 O.3     1  LIG1       -0.5023
     12 H          -2.3808    1.9059    0.0002 H       1  LIG1        0.2923
@<TRIPOS>BOND
     1     6     5    1
     2     8     1    1
     3     1     5   ar
     4     1     2   ar
     5     5     4   ar
     6     2     3   ar
     7     2     9    1
     8    11     3    1
     9    11    12    1
    10     3     4   ar
    11     9    10    1
    12     4     7    1
