@<TRIPOS>MOLECULE
mol_data/opt/m06hf/geoms/mol2/13ff13ff13ff-13ff-.out
 42 45 0 0 0
SMALL
GASTEIGER

@<TRIPOS>ATOM
      1 C           1.2024   -0.1405   -0.9942 C.ar    1  LIG1        0.0480
      2 C           0.6076    1.0766   -1.2023 C.ar    1  LIG1        0.1767
      3 C          -0.7434    0.9740   -0.7764 C.ar    1  LIG1        0.1857
      4 C          -0.9364   -0.3090   -0.3174 C.ar    1  LIG1        0.1124
      5 N           0.2532   -0.9790   -0.4611 N.ar    1  LIG1       -0.3534
      6 H           0.4527   -1.8761   -0.0525 H       1  LIG1        0.1656
      7 H           2.2114   -0.4587   -1.1815 H       1  LIG1        0.0845
      8 O           1.1730    2.1921   -1.7382 O.3     1  LIG1       -0.5023
      9 H           0.4957    2.8807   -1.7503 H       1  LIG1        0.2923
     10 O          -1.6311    2.0004   -0.8941 O.3     1  LIG1       -0.5019
     11 H          -2.2482    1.9809   -0.1444 H       1  LIG1        0.2924
     12 C          -2.1567   -0.8879    0.2159 C.ar    1  LIG1        0.1129
     13 C          -3.1711   -0.2474    0.8898 C.ar    1  LIG1        0.1864
     14 C          -4.1833   -1.1978    1.1574 C.ar    1  LIG1        0.1864
     15 C          -3.7709   -2.4057    0.6402 C.ar    1  LIG1        0.1129
     16 N          -2.5260   -2.2002    0.0830 N.ar    1  LIG1       -0.3458
     17 H          -2.0900   -2.8537   -0.5494 H       1  LIG1        0.1662
     18 O          -3.1678    1.0749    1.2476 O.3     1  LIG1       -0.5019
     19 H          -3.9564    1.2636    1.7711 H       1  LIG1        0.2924
     20 O          -5.3201   -0.8916    1.8463 O.3     1  LIG1       -0.5019
     21 H          -5.7284   -1.7033    2.1721 H       1  LIG1        0.2924
     22 C          -4.4468   -3.6977    0.6424 C.ar    1  LIG1        0.1129
     23 C          -4.0355   -4.9032    1.1659 C.ar    1  LIG1        0.1864
     24 C          -5.0471   -5.8548    0.9005 C.ar    1  LIG1        0.1864
     25 C          -6.0601   -5.2173    0.2216 C.ar    1  LIG1        0.1129
     26 N          -5.6906   -3.9056    0.0836 N.ar    1  LIG1       -0.3458
     27 H          -6.1252   -3.2549   -0.5526 H       1  LIG1        0.1662
     28 O          -2.9001   -5.2063    1.8584 O.3     1  LIG1       -0.5019
     29 H          -2.4925   -4.3932    2.1815 H       1  LIG1        0.2924
     30 O          -5.0512   -7.1754    1.2641 O.3     1  LIG1       -0.5019
     31 H          -4.2637   -7.3618    1.7901 H       1  LIG1        0.2924
     32 C          -7.2793   -5.7986   -0.3116 C.ar    1  LIG1        0.1124
     33 C          -7.4714   -7.0836   -0.7653 C.ar    1  LIG1        0.1857
     34 C          -8.8215   -7.1881   -1.1935 C.ar    1  LIG1        0.1767
     35 C          -9.4167   -5.9702   -0.9921 C.ar    1  LIG1        0.0480
     36 N          -8.4687   -5.1292   -0.4608 N.ar    1  LIG1       -0.3534
     37 H          -8.6689   -4.2303   -0.0567 H       1  LIG1        0.1656
     38 H         -10.4254   -5.6528   -1.1828 H       1  LIG1        0.0845
     39 O          -6.5835   -8.1106   -0.8766 O.3     1  LIG1       -0.5019
     40 H          -5.9679   -8.0876   -0.1257 H       1  LIG1        0.2924
     41 O          -9.3858   -8.3061   -1.7256 O.3     1  LIG1       -0.5023
     42 H          -8.7085   -8.9947   -1.7332 H       1  LIG1        0.2923
@<TRIPOS>BOND
     1     9     8    1
     2     8     2    1
     3    42    41    1
     4    41    34    1
     5     2     1   ar
     6     2     3   ar
     7    34    35   ar
     8    34    33   ar
     9    38    35    1
    10     7     1    1
    11     1     5   ar
    12    35    36   ar
    13    10     3    1
    14    10    11    1
    15    39    33    1
    16    39    40    1
    17     3     4   ar
    18    33    32   ar
    19    27    26    1
    20    17    16    1
    21     5     4   ar
    22     5     6    1
    23    36    32   ar
    24    36    37    1
    25     4    12    1
    26    32    25    1
    27    16    12   ar
    28    16    15   ar
    29    26    25   ar
    30    26    22   ar
    31    12    13   ar
    32    25    24   ar
    33    15    22    1
    34    15    14   ar
    35    22    23   ar
    36    13    14   ar
    37    13    18    1
    38    24    23   ar
    39    24    30    1
    40    14    20    1
    41    23    28    1
    42    18    19    1
    43    30    31    1
    44    20    21    1
    45    28    29    1
