@<TRIPOS>MOLECULE
mol_data/opt/m06hf/geoms/mol2/13ff13ff13ff.out
 32 34 0 0 0
SMALL
GASTEIGER

@<TRIPOS>ATOM
      1 C           1.3195    0.0273    0.0976 C.ar    1  LIG1        0.0480
      2 C           0.7381    1.1952   -0.3207 C.ar    1  LIG1        0.1767
      3 C          -0.6686    0.9950   -0.3392 C.ar    1  LIG1        0.1857
      4 C          -0.9081   -0.2955    0.0726 C.ar    1  LIG1        0.1124
      5 N           0.3096   -0.8773    0.3275 N.ar    1  LIG1       -0.3534
      6 H           0.4220   -1.7449    0.8239 H       1  LIG1        0.1656
      7 H           2.3552   -0.2170    0.2449 H       1  LIG1        0.0845
      8 O           1.3643    2.3475   -0.6865 O.3     1  LIG1       -0.5023
      9 H           0.6765    2.9799   -0.9313 H       1  LIG1        0.2923
     10 O          -1.5427    1.9544   -0.7529 O.3     1  LIG1       -0.5019
     11 H          -2.3737    1.8671   -0.2571 H       1  LIG1        0.2924
     12 C          -2.1881   -0.9623    0.2233 C.ar    1  LIG1        0.1129
     13 C          -3.4083   -0.4066    0.5034 C.ar    1  LIG1        0.1864
     14 C          -4.3839   -1.4379    0.4804 C.ar    1  LIG1        0.1864
     15 C          -3.7292   -2.6096    0.1865 C.ar    1  LIG1        0.1129
     16 N          -2.3863   -2.3166    0.0456 N.ar    1  LIG1       -0.3458
     17 H          -1.7621   -2.8728   -0.5191 H       1  LIG1        0.1662
     18 O          -3.6420    0.9121    0.7872 O.3     1  LIG1       -0.5019
     19 H          -4.5918    1.0267    0.9224 H       1  LIG1        0.2924
     20 O          -5.6920   -1.2123    0.7738 O.3     1  LIG1       -0.5019
     21 H          -6.2480   -1.8348    0.2753 H       1  LIG1        0.2924
     22 C          -4.2998   -3.9352    0.0306 C.ar    1  LIG1        0.1124
     23 C          -5.5672   -4.2732   -0.3729 C.ar    1  LIG1        0.1857
     24 C          -5.6784   -5.6851   -0.3382 C.ar    1  LIG1        0.1767
     25 C          -4.4671   -6.1830    0.0777 C.ar    1  LIG1        0.0480
     26 N          -3.6479   -5.1121    0.3055 N.ar    1  LIG1       -0.3534
     27 H          -2.7393   -5.1596    0.7358 H       1  LIG1        0.1656
     28 H          -4.1397   -7.1971    0.2196 H       1  LIG1        0.0845
     29 O          -6.5430   -3.3895   -0.7492 O.3     1  LIG1       -0.5019
     30 H          -7.2981   -3.8913   -1.0816 H       1  LIG1        0.2924
     31 O          -6.8154   -6.3427   -0.7455 O.3     1  LIG1       -0.5023
     32 H          -7.2002   -6.8228   -0.0039 H       1  LIG1        0.2923
@<TRIPOS>BOND
     1    30    29    1
     2     9     8    1
     3    10     3    1
     4    10    11    1
     5    29    23    1
     6    31    24    1
     7    31    32    1
     8     8     2    1
     9    17    16    1
    10    23    24   ar
    11    23    22   ar
    12     3     2   ar
    13     3     4   ar
    14    24    25   ar
    15     2     1   ar
    16    22    15    1
    17    22    26   ar
    18    16    15   ar
    19    16    12   ar
    20     4    12    1
    21     4     5   ar
    22    25    28    1
    23    25    26   ar
    24     1     7    1
    25     1     5   ar
    26    15    14   ar
    27    12    13   ar
    28    21    20    1
    29    26    27    1
    30     5     6    1
    31    14    13   ar
    32    14    20    1
    33    13    18    1
    34    18    19    1
