@<TRIPOS>MOLECULE
mol_data/opt/m06hf/geoms/mol2/13ff13ff-13ff-13ff.out
 42 45 0 0 0
SMALL
GASTEIGER

@<TRIPOS>ATOM
      1 C           1.3844   -0.5333   -0.2946 C.ar    1  LIG1        0.0480
      2 C           1.0388    0.7844   -0.4683 C.ar    1  LIG1        0.1767
      3 C          -0.3682    0.8764   -0.3067 C.ar    1  LIG1        0.1857
      4 C          -0.8415   -0.3902   -0.0515 C.ar    1  LIG1        0.1124
      5 N           0.2320   -1.2290   -0.0367 N.ar    1  LIG1       -0.3534
      6 H           0.1435   -2.2256    0.0926 H       1  LIG1        0.1656
      7 H           2.3489   -1.0057   -0.3342 H       1  LIG1        0.0845
      8 O           1.8862    1.8281   -0.7135 O.3     1  LIG1       -0.5023
      9 H           1.4275    2.4602   -1.2800 H       1  LIG1        0.2923
     10 O          -1.1396    2.0127   -0.4540 O.3     1  LIG1       -0.5019
     11 H          -1.0373    2.5629    0.3324 H       1  LIG1        0.2924
     12 C          -2.2035   -0.8484    0.1369 C.ar    1  LIG1        0.1129
     13 C          -2.6765   -2.0885    0.5025 C.ar    1  LIG1        0.1864
     14 C          -4.0897   -2.0275    0.4746 C.ar    1  LIG1        0.1864
     15 C          -4.4511   -0.7506    0.1065 C.ar    1  LIG1        0.1129
     16 N          -3.2863   -0.0515   -0.0902 N.ar    1  LIG1       -0.3458
     17 H          -3.2060    0.8813   -0.4713 H       1  LIG1        0.1662
     18 O          -1.9167   -3.2034    0.8006 O.3     1  LIG1       -0.5019
     19 H          -1.8151   -3.2632    1.7592 H       1  LIG1        0.2924
     20 O          -4.9578   -3.0480    0.7858 O.3     1  LIG1       -0.5019
     21 H          -4.4939   -3.8847    0.6543 H       1  LIG1        0.2924
     22 C          -5.7796   -0.1951   -0.0768 C.ar    1  LIG1        0.1129
     23 C          -6.9356   -0.8521   -0.4500 C.ar    1  LIG1        0.1864
     24 C          -7.9670    0.1131   -0.5085 C.ar    1  LIG1        0.1864
     25 C          -7.4215    1.3304   -0.1774 C.ar    1  LIG1        0.1129
     26 N          -6.0938    1.1312    0.0851 N.ar    1  LIG1       -0.3458
     27 H          -5.5023    1.8547    0.4676 H       1  LIG1        0.1662
     28 O          -7.1285   -2.1659   -0.7564 O.3     1  LIG1       -0.5019
     29 H          -6.5145   -2.7043   -0.2295 H       1  LIG1        0.2924
     30 O          -9.2754   -0.0958   -0.8528 O.3     1  LIG1       -0.5019
     31 H          -9.3935   -1.0423   -1.0016 H       1  LIG1        0.2924
     32 C          -8.0521    2.6280   -0.0705 C.ar    1  LIG1        0.1124
     33 C          -7.5316    3.8305    0.3404 C.ar    1  LIG1        0.1857
     34 C          -8.5694    4.7912    0.2723 C.ar    1  LIG1        0.1767
     35 C          -9.6986    4.1494   -0.1855 C.ar    1  LIG1        0.0480
     36 N          -9.3691    2.8410   -0.3781 N.ar    1  LIG1       -0.3534
     37 H          -9.9739    2.1005   -0.7034 H       1  LIG1        0.1656
     38 H         -10.6830    4.5316   -0.3869 H       1  LIG1        0.0845
     39 O          -6.2388    4.0396    0.7436 O.3     1  LIG1       -0.5019
     40 H          -6.1098    4.9933    0.8209 H       1  LIG1        0.2924
     41 O          -8.3786    6.1219    0.5786 O.3     1  LIG1       -0.5023
     42 H          -8.7899    6.3134    1.4285 H       1  LIG1        0.2923
@<TRIPOS>BOND
     1     9     8    1
     2    31    30    1
     3    30    24    1
     4    28    23    1
     5    28    29    1
     6     8     2    1
     7    37    36    1
     8    24    23   ar
     9    24    25   ar
    10    17    16    1
    11     2     3   ar
    12     2     1   ar
    13    10     3    1
    14    10    11    1
    15    23    22   ar
    16    38    35    1
    17    36    35   ar
    18    36    32   ar
    19     7     1    1
    20     3     4   ar
    21     1     5   ar
    22    35    34   ar
    23    25    32    1
    24    25    26   ar
    25    16    15   ar
    26    16    12   ar
    27    22    26   ar
    28    22    15    1
    29    32    33   ar
    30     4     5   ar
    31     4    12    1
    32     5     6    1
    33    26    27    1
    34    15    14   ar
    35    12    13   ar
    36    34    33   ar
    37    34    41    1
    38    33    39    1
    39    14    13   ar
    40    14    20    1
    41    13    18    1
    42    41    42    1
    43    21    20    1
    44    39    40    1
    45    18    19    1
