@<TRIPOS>MOLECULE
mol_data/opt/m06hf/geoms/mol2/13fg13fg-13fg-.out
 32 34 0 0 0
SMALL
GASTEIGER

@<TRIPOS>ATOM
      1 C           1.2722    0.0153   -0.2740 C.ar    1  LIG1        0.0453
      2 C           0.7769    1.0309    0.5026 C.ar    1  LIG1        0.1478
      3 C          -0.6230    0.8209    0.6576 C.ar    1  LIG1        0.0732
      4 C          -0.9401   -0.3209   -0.0489 C.ar    1  LIG1        0.0835
      5 N           0.2122   -0.7970   -0.6006 N.ar    1  LIG1       -0.3555
      6 H           0.2438   -1.5484   -1.2697 H       1  LIG1        0.1655
      7 H           2.2748   -0.1789   -0.6071 H       1  LIG1        0.0845
      8 O           1.5000    2.0434    1.0457 O.3     1  LIG1       -0.5042
      9 H           0.8824    2.6672    1.4500 H       1  LIG1        0.2923
     10 S          -1.6815    1.8320    1.6417 S.3     1  LIG1       -0.1370
     11 H          -2.4987    2.2113    0.6517 H       1  LIG1        0.1073
     12 C          -2.2410   -0.9408   -0.2656 C.ar    1  LIG1        0.1076
     13 C          -3.4389   -0.3745   -0.6304 C.ar    1  LIG1        0.1573
     14 C          -4.4094   -1.4109   -0.7195 C.ar    1  LIG1        0.0739
     15 C          -3.7713   -2.5893   -0.3909 C.ar    1  LIG1        0.0840
     16 N          -2.4653   -2.2969   -0.1297 N.ar    1  LIG1       -0.3479
     17 H          -1.8339   -2.9163    0.3553 H       1  LIG1        0.1661
     18 O          -3.6418    0.9391   -0.9041 O.3     1  LIG1       -0.5035
     19 H          -4.5830    1.0623   -1.0916 H       1  LIG1        0.2923
     20 S          -6.0652   -1.1749   -1.2755 S.3     1  LIG1       -0.1370
     21 H          -6.6733   -1.4969   -0.1253 H       1  LIG1        0.1073
     22 C          -4.3296   -3.9287   -0.2598 C.ar    1  LIG1        0.1072
     23 C          -5.4689   -4.3450    0.3856 C.ar    1  LIG1        0.1566
     24 C          -5.5672   -5.7565    0.2327 C.ar    1  LIG1        0.0643
     25 C          -4.4820   -6.1561   -0.5173 C.ar    1  LIG1        0.0191
     26 N          -3.7424   -5.0573   -0.7963 N.ar    1  LIG1       -0.3555
     27 H          -2.9429   -5.0322   -1.4088 H       1  LIG1        0.1655
     28 H          -4.2105   -7.1379   -0.8644 H       1  LIG1        0.0819
     29 O          -6.3231   -3.5456    1.0714 O.3     1  LIG1       -0.5035
     30 H          -7.0744   -4.0838    1.3569 H       1  LIG1        0.2923
     31 S          -6.8943   -6.7404    0.8534 S.3     1  LIG1       -0.1377
     32 H          -6.3738   -7.0114    2.0579 H       1  LIG1        0.1073
@<TRIPOS>BOND
     1    27    26    1
     2    20    14    1
     3    20    21    1
     4     6     5    1
     5    19    18    1
     6    18    13    1
     7    28    25    1
     8    26    25   ar
     9    26    22   ar
    10    14    13   ar
    11    14    15   ar
    12    13    12   ar
    13     7     1    1
    14     5     1   ar
    15     5     4   ar
    16    25    24   ar
    17    15    22    1
    18    15    16   ar
    19     1     2   ar
    20    12    16   ar
    21    12     4    1
    22    22    23   ar
    23    16    17    1
    24     4     3   ar
    25    24    23   ar
    26    24    31    1
    27    23    29    1
    28     2     3   ar
    29     2     8    1
    30    11    10    1
    31     3    10    1
    32    31    32    1
    33     8     9    1
    34    29    30    1
