@<TRIPOS>MOLECULE
mol_data/opt/m06hf/geoms/mol2/13fg13fg13fg.out
 32 34 0 0 0
SMALL
GASTEIGER

@<TRIPOS>ATOM
      1 C           1.2765    0.0652    0.2681 C.ar    1  LIG1        0.0453
      2 C           0.7516    1.1226   -0.4294 C.ar    1  LIG1        0.1478
      3 C          -0.6468    0.8984   -0.5778 C.ar    1  LIG1        0.0732
      4 C          -0.9331   -0.2945    0.0533 C.ar    1  LIG1        0.0835
      5 N           0.2357   -0.7864    0.5539 N.ar    1  LIG1       -0.3555
      6 H           0.2909   -1.5814    1.1689 H       1  LIG1        0.1655
      7 H           2.2874   -0.1334    0.5719 H       1  LIG1        0.0845
      8 O           1.4485    2.1831   -0.9117 O.3     1  LIG1       -0.5042
      9 H           0.8140    2.8199   -1.2667 H       1  LIG1        0.2923
     10 S          -1.7383    1.9546   -1.4749 S.3     1  LIG1       -0.1370
     11 H          -2.5441    2.2531   -0.4488 H       1  LIG1        0.1073
     12 C          -2.2196   -0.9514    0.2468 C.ar    1  LIG1        0.1076
     13 C          -3.4211   -0.4331    0.6666 C.ar    1  LIG1        0.1573
     14 C          -4.3716   -1.4911    0.7012 C.ar    1  LIG1        0.0739
     15 C          -3.7179   -2.6331    0.2857 C.ar    1  LIG1        0.0840
     16 N          -2.4216   -2.2996    0.0247 N.ar    1  LIG1       -0.3479
     17 H          -1.7886   -2.8726   -0.5125 H       1  LIG1        0.1661
     18 O          -3.6424    0.8552    1.0312 O.3     1  LIG1       -0.5035
     19 H          -4.5827    0.9484    1.2393 H       1  LIG1        0.2923
     20 S          -6.0213   -1.3237    1.2992 S.3     1  LIG1       -0.1370
     21 H          -6.6464   -1.5838    0.1423 H       1  LIG1        0.1073
     22 C          -4.2540   -3.9714    0.0784 C.ar    1  LIG1        0.1072
     23 C          -5.4035   -4.3657   -0.5627 C.ar    1  LIG1        0.1566
     24 C          -5.4780   -5.7853   -0.4935 C.ar    1  LIG1        0.0643
     25 C          -4.3554   -6.2138    0.1816 C.ar    1  LIG1        0.0191
     26 N          -3.6307   -5.1214    0.5195 N.ar    1  LIG1       -0.3555
     27 H          -2.8107   -5.1232    1.1048 H       1  LIG1        0.1655
     28 H          -4.0452   -7.2127    0.4349 H       1  LIG1        0.0819
     29 O          -6.2886   -3.5378   -1.1711 O.3     1  LIG1       -0.5035
     30 H          -6.9129   -4.0784   -1.6747 H       1  LIG1        0.2923
     31 S          -6.7423   -6.7636   -1.2410 S.3     1  LIG1       -0.1377
     32 H          -7.6034   -6.7584   -0.2164 H       1  LIG1        0.1073
@<TRIPOS>BOND
     1    30    29    1
     2    10     3    1
     3    10    11    1
     4     9     8    1
     5    31    24    1
     6    31    32    1
     7    29    23    1
     8     8     2    1
     9     3     2   ar
    10     3     4   ar
    11    23    24   ar
    12    23    22   ar
    13    17    16    1
    14    24    25   ar
    15     2     1   ar
    16    16    12   ar
    17    16    15   ar
    18     4    12    1
    19     4     5   ar
    20    22    15    1
    21    22    26   ar
    22    21    20    1
    23    25    28    1
    24    25    26   ar
    25    12    13   ar
    26     1     5   ar
    27     1     7    1
    28    15    14   ar
    29    26    27    1
    30     5     6    1
    31    13    14   ar
    32    13    18    1
    33    14    20    1
    34    18    19    1
