@<TRIPOS>MOLECULE
mol_data/opt/m06hf/geoms/mol2/13fg13fg13fg-.out
 32 34 0 0 0
SMALL
GASTEIGER

@<TRIPOS>ATOM
      1 C           1.0571    0.0209    1.1874 C.ar    1  LIG1        0.0453
      2 C           0.8650    0.9820    0.2287 C.ar    1  LIG1        0.1478
      3 C          -0.4201    0.7727   -0.3475 C.ar    1  LIG1        0.0732
      4 C          -0.9784   -0.3145    0.2925 C.ar    1  LIG1        0.0835
      5 N          -0.0757   -0.7579    1.2123 N.ar    1  LIG1       -0.3555
      6 H          -0.2790   -1.4590    1.9065 H       1  LIG1        0.1655
      7 H           1.8956   -0.1563    1.8353 H       1  LIG1        0.0845
      8 O           1.7525    1.9468   -0.1245 O.3     1  LIG1       -0.5042
      9 H           1.3148    2.5354   -0.7540 H       1  LIG1        0.2923
     10 S          -1.0863    1.7145   -1.6813 S.3     1  LIG1       -0.1370
     11 H          -2.1191    2.2393   -1.0071 H       1  LIG1        0.1073
     12 C          -2.2985   -0.9060    0.1123 C.ar    1  LIG1        0.1076
     13 C          -3.5345   -0.3021    0.0853 C.ar    1  LIG1        0.1573
     14 C          -4.5120   -1.3067   -0.1438 C.ar    1  LIG1        0.0739
     15 C          -3.8393   -2.5099   -0.2413 C.ar    1  LIG1        0.0840
     16 N          -2.5123   -2.2535   -0.0821 N.ar    1  LIG1       -0.3479
     17 H          -1.7834   -2.9498   -0.0962 H       1  LIG1        0.1661
     18 O          -3.7637    1.0252    0.2500 O.3     1  LIG1       -0.5035
     19 H          -4.7207    1.1594    0.2911 H       1  LIG1        0.2923
     20 S          -6.2356   -0.9959   -0.3386 S.3     1  LIG1       -0.1370
     21 H          -6.6462   -1.6330    0.7641 H       1  LIG1        0.1073
     22 C          -4.3760   -3.8501   -0.4449 C.ar    1  LIG1        0.1072
     23 C          -5.4007   -4.4953    0.2033 C.ar    1  LIG1        0.1566
     24 C          -5.5348   -5.7906   -0.3726 C.ar    1  LIG1        0.0643
     25 C          -4.5891   -5.8864   -1.3705 C.ar    1  LIG1        0.0191
     26 N          -3.8943   -4.7254   -1.3982 N.ar    1  LIG1       -0.3555
     27 H          -3.2111   -4.4708   -2.0941 H       1  LIG1        0.1655
     28 H          -4.3887   -6.6958   -2.0511 H       1  LIG1        0.0819
     29 O          -6.1297   -3.9866    1.2284 O.3     1  LIG1       -0.5035
     30 H          -6.8431   -4.6087    1.4271 H       1  LIG1        0.2923
     31 S          -6.7558   -6.9772    0.0904 S.3     1  LIG1       -0.1377
     32 H          -6.0715   -7.5804    1.0716 H       1  LIG1        0.1073
@<TRIPOS>BOND
     1    27    26    1
     2    28    25    1
     3    10    11    1
     4    10     3    1
     5    26    25   ar
     6    26    22   ar
     7    25    24   ar
     8     9     8    1
     9    22    15    1
    10    22    23   ar
    11    24    31    1
    12    24    23   ar
    13     3     2   ar
    14     3     4   ar
    15    20    14    1
    16    20    21    1
    17    15    14   ar
    18    15    16   ar
    19    14    13   ar
    20     8     2    1
    21    17    16    1
    22    16    12   ar
    23    13    12   ar
    24    13    18    1
    25    31    32    1
    26    12     4    1
    27    23    29    1
    28     2     1   ar
    29    18    19    1
    30     4     5   ar
    31     1     5   ar
    32     1     7    1
    33     5     6    1
    34    29    30    1
