@<TRIPOS>MOLECULE
mol_data/opt/m06hf/geoms/mol2/13fg13fg13fg13fg-.out
 42 45 0 0 0
SMALL
GASTEIGER

@<TRIPOS>ATOM
      1 C           1.2695    0.4173    0.1241 C.ar    1  LIG1        0.0453
      2 C           0.6308    1.5239   -0.3727 C.ar    1  LIG1        0.1478
      3 C          -0.7635    1.2387   -0.4247 C.ar    1  LIG1        0.0732
      4 C          -0.9315   -0.0427    0.0588 C.ar    1  LIG1        0.0835
      5 N           0.3019   -0.5254    0.3807 N.ar    1  LIG1       -0.3555
      6 H           0.4517   -1.3905    0.8731 H       1  LIG1        0.1655
      7 H           2.3131    0.2429    0.3096 H       1  LIG1        0.0845
      8 O           1.2251    2.6794   -0.7654 O.3     1  LIG1       -0.5042
      9 H           0.5274    3.3140   -0.9770 H       1  LIG1        0.2923
     10 S          -1.9839    2.3393   -1.0645 S.3     1  LIG1       -0.1370
     11 H          -2.6595    2.5073    0.0811 H       1  LIG1        0.1073
     12 C          -2.1613   -0.7955    0.2723 C.ar    1  LIG1        0.1076
     13 C          -3.3360   -0.4127    0.8740 C.ar    1  LIG1        0.1573
     14 C          -4.2341   -1.5154    0.8336 C.ar    1  LIG1        0.0739
     15 C          -3.5783   -2.5450    0.1891 C.ar    1  LIG1        0.0840
     16 N          -2.3278   -2.1058   -0.1326 N.ar    1  LIG1       -0.3479
     17 H          -1.7279   -2.5590   -0.8047 H       1  LIG1        0.1661
     18 O          -3.5735    0.7940    1.4461 O.3     1  LIG1       -0.5035
     19 H          -4.4911    0.8031    1.7528 H       1  LIG1        0.2923
     20 S          -5.8315   -1.5247    1.5791 S.3     1  LIG1       -0.1370
     21 H          -6.5356   -1.6279    0.4438 H       1  LIG1        0.1073
     22 C          -4.0752   -3.8635   -0.1782 C.ar    1  LIG1        0.1077
     23 C          -5.2726   -4.2225   -0.7511 C.ar    1  LIG1        0.1573
     24 C          -5.2733   -5.6340   -0.9248 C.ar    1  LIG1        0.0739
     25 C          -4.0698   -6.1000   -0.4358 C.ar    1  LIG1        0.0840
     26 N          -3.3517   -5.0261    0.0008 N.ar    1  LIG1       -0.3479
     27 H          -2.5469   -5.0937    0.6049 H       1  LIG1        0.1661
     28 O          -6.2519   -3.3659   -1.1324 O.3     1  LIG1       -0.5035
     29 H          -6.9949   -3.8899   -1.4632 H       1  LIG1        0.2923
     30 S          -6.5566   -6.5342   -1.7303 S.3     1  LIG1       -0.1370
     31 H          -6.9059   -7.2834   -0.6761 H       1  LIG1        0.1073
     32 C          -3.6057   -7.4756   -0.3105 C.ar    1  LIG1        0.1072
     33 C          -4.2630   -8.5800    0.1755 C.ar    1  LIG1        0.1566
     34 C          -3.3755   -9.6899    0.0916 C.ar    1  LIG1        0.0643
     35 C          -2.2007   -9.2239   -0.4580 C.ar    1  LIG1        0.0191
     36 N          -2.3446   -7.8968   -0.6838 N.ar    1  LIG1       -0.3555
     37 H          -1.6821   -7.3117   -1.1678 H       1  LIG1        0.1655
     38 H          -1.2981   -9.7567   -0.7033 H       1  LIG1        0.0819
     39 O          -5.5235   -8.5931    0.6758 O.3     1  LIG1       -0.5035
     40 H          -5.7531   -9.5098    0.8842 H       1  LIG1        0.2923
     41 S          -3.7983  -11.3410    0.5478 S.3     1  LIG1       -0.1377
     42 H          -3.4172  -11.2868    1.8310 H       1  LIG1        0.1073
@<TRIPOS>BOND
     1    30    24    1
     2    30    31    1
     3    29    28    1
     4    37    36    1
     5    28    23    1
     6    10     3    1
     7    10    11    1
     8     9     8    1
     9    24    23   ar
    10    24    25   ar
    11    17    16    1
    12     8     2    1
    13    23    22   ar
    14    38    35    1
    15    36    35   ar
    16    36    32   ar
    17    35    34   ar
    18    25    32    1
    19    25    26   ar
    20     3     2   ar
    21     3     4   ar
    22     2     1   ar
    23    32    33   ar
    24    22    26   ar
    25    22    15    1
    26    16    15   ar
    27    16    12   ar
    28    26    27    1
    29     4    12    1
    30     4     5   ar
    31    34    33   ar
    32    34    41    1
    33     1     7    1
    34     1     5   ar
    35    33    39    1
    36    15    14   ar
    37    12    13   ar
    38     5     6    1
    39    21    20    1
    40    41    42    1
    41    39    40    1
    42    14    13   ar
    43    14    20    1
    44    13    18    1
    45    18    19    1
