@<TRIPOS>MOLECULE
mol_data/opt/m06hf/geoms/mol2/13fg13fg-13fg-13fg.out
 42 45 0 0 0
SMALL
GASTEIGER

@<TRIPOS>ATOM
      1 C           0.5895    0.5719    2.0489 C.ar    1  LIG1        0.0453
      2 C           0.7772    1.2097    0.8495 C.ar    1  LIG1        0.1478
      3 C          -0.2568    0.7887   -0.0346 C.ar    1  LIG1        0.0732
      4 C          -1.0535   -0.0935    0.6652 C.ar    1  LIG1        0.0835
      5 N          -0.5294   -0.2159    1.9173 N.ar    1  LIG1       -0.3555
      6 H          -0.9880   -0.6982    2.6733 H       1  LIG1        0.1655
      7 H           1.1541    0.6266    2.9611 H       1  LIG1        0.0845
      8 O           1.7824    2.0728    0.5547 O.3     1  LIG1       -0.5042
      9 H           1.6113    2.4423   -0.3218 H       1  LIG1        0.2923
     10 S          -0.4029    1.2853   -1.7207 S.3     1  LIG1       -0.1370
     11 H          -1.5543    1.9602   -1.5962 H       1  LIG1        0.1073
     12 C          -2.2739   -0.7691    0.2403 C.ar    1  LIG1        0.1076
     13 C          -3.4103   -0.2497   -0.3364 C.ar    1  LIG1        0.1573
     14 C          -4.3189   -1.3181   -0.5593 C.ar    1  LIG1        0.0739
     15 C          -3.7074   -2.4698   -0.1019 C.ar    1  LIG1        0.0840
     16 N          -2.4820   -2.1232    0.3790 N.ar    1  LIG1       -0.3479
     17 H          -1.8211   -2.7608    0.7942 H       1  LIG1        0.1661
     18 O          -3.6093    1.0603   -0.6308 O.3     1  LIG1       -0.5035
     19 H          -4.5303    1.1696   -0.9059 H       1  LIG1        0.2923
     20 S          -5.9040   -1.1514   -1.3134 S.3     1  LIG1       -0.1370
     21 H          -6.6205   -1.5569   -0.2551 H       1  LIG1        0.1073
     22 C          -4.2340   -3.8284   -0.0569 C.ar    1  LIG1        0.1077
     23 C          -5.4250   -4.2863    0.4576 C.ar    1  LIG1        0.1573
     24 C          -5.4790   -5.6910    0.2604 C.ar    1  LIG1        0.0739
     25 C          -4.3047   -6.0556   -0.3714 C.ar    1  LIG1        0.0840
     26 N          -3.5660   -4.9277   -0.5507 N.ar    1  LIG1       -0.3479
     27 H          -2.6552   -4.8978   -0.9814 H       1  LIG1        0.1661
     28 O          -6.3689   -3.5140    1.0523 O.3     1  LIG1       -0.5035
     29 H          -7.0677   -4.0966    1.3812 H       1  LIG1        0.2923
     30 S          -6.8375   -6.7196    0.7136 S.3     1  LIG1       -0.1370
     31 H          -6.2202   -7.3764    1.7040 H       1  LIG1        0.1073
     32 C          -3.8486   -7.3823   -0.7680 C.ar    1  LIG1        0.1072
     33 C          -3.7653   -8.5366   -0.0288 C.ar    1  LIG1        0.1566
     34 C          -3.2499   -9.5604   -0.8735 C.ar    1  LIG1        0.0643
     35 C          -3.0484   -8.9933   -2.1137 C.ar    1  LIG1        0.0191
     36 N          -3.3979   -7.6883   -2.0371 N.ar    1  LIG1       -0.3555
     37 H          -3.4519   -7.0530   -2.8181 H       1  LIG1        0.1655
     38 H          -2.6932   -9.4426   -3.0248 H       1  LIG1        0.0819
     39 O          -4.0943   -8.6571    1.2809 O.3     1  LIG1       -0.5035
     40 H          -3.9980   -9.5872    1.5282 H       1  LIG1        0.2923
     41 S          -2.9985  -11.2345   -0.3767 S.3     1  LIG1       -0.1377
     42 H          -1.7217  -11.1206    0.0093 H       1  LIG1        0.1073
@<TRIPOS>BOND
     1    38    35    1
     2    37    36    1
     3    35    36   ar
     4    35    34   ar
     5    36    32   ar
     6    10    11    1
     7    10     3    1
     8    20    14    1
     9    20    21    1
    10    27    26    1
    11    19    18    1
    12    34    41    1
    13    34    33   ar
    14    32    25    1
    15    32    33   ar
    16    18    13    1
    17    14    13   ar
    18    14    15   ar
    19    26    25   ar
    20    26    22   ar
    21    41    42    1
    22    25    24   ar
    23    13    12   ar
    24     9     8    1
    25    15    22    1
    26    15    16   ar
    27    22    23   ar
    28     3     4   ar
    29     3     2   ar
    30    33    39    1
    31    12    16   ar
    32    12     4    1
    33    24    23   ar
    34    24    30    1
    35    16    17    1
    36    23    28    1
    37     8     2    1
    38     4     5   ar
    39    30    31    1
    40     2     1   ar
    41    28    29    1
    42    39    40    1
    43     5     1   ar
    44     5     6    1
    45     1     7    1
