@<TRIPOS>MOLECULE
mol_data/opt/m06hf/geoms/mol2/13fg13fg-13fg-13fg-.out
 42 45 0 0 0
SMALL
GASTEIGER

@<TRIPOS>ATOM
      1 C           1.2533    0.4707   -0.1746 C.ar    1  LIG1        0.0453
      2 C           0.6254    1.5505    0.3904 C.ar    1  LIG1        0.1478
      3 C          -0.7620    1.2466    0.4928 C.ar    1  LIG1        0.0732
      4 C          -0.9375   -0.0177   -0.0313 C.ar    1  LIG1        0.0835
      5 N           0.2858   -0.4736   -0.4245 N.ar    1  LIG1       -0.3555
      6 H           0.4229   -1.3170   -0.9567 H       1  LIG1        0.1655
      7 H           2.2896    0.3162   -0.4116 H       1  LIG1        0.0845
      8 O           1.2248    2.6980    0.7996 O.3     1  LIG1       -0.5042
      9 H           0.5307    3.3226    1.0490 H       1  LIG1        0.2923
     10 S          -1.9658    2.3088    1.2236 S.3     1  LIG1       -0.1370
     11 H          -2.7252    2.4527    0.1303 H       1  LIG1        0.1073
     12 C          -2.1700   -0.7708   -0.2266 C.ar    1  LIG1        0.1076
     13 C          -3.3685   -0.3698   -0.7663 C.ar    1  LIG1        0.1573
     14 C          -4.2594   -1.4784   -0.7416 C.ar    1  LIG1        0.0739
     15 C          -3.5749   -2.5312   -0.1682 C.ar    1  LIG1        0.0840
     16 N          -2.3153   -2.0984    0.1261 N.ar    1  LIG1       -0.3479
     17 H          -1.6875   -2.5776    0.7533 H       1  LIG1        0.1661
     18 O          -3.6325    0.8596   -1.2761 O.3     1  LIG1       -0.5035
     19 H          -4.5605    0.8763   -1.5494 H       1  LIG1        0.2923
     20 S          -5.8816   -1.4642   -1.4316 S.3     1  LIG1       -0.1370
     21 H          -6.5452   -1.6280   -0.2792 H       1  LIG1        0.1073
     22 C          -4.0499   -3.8701    0.1510 C.ar    1  LIG1        0.1077
     23 C          -5.2303   -4.2692    0.7330 C.ar    1  LIG1        0.1573
     24 C          -5.2164   -5.6879    0.8305 C.ar    1  LIG1        0.0739
     25 C          -4.0208   -6.1166    0.2909 C.ar    1  LIG1        0.0840
     26 N          -3.3219   -5.0151   -0.1055 N.ar    1  LIG1       -0.3479
     27 H          -2.5316   -5.0448   -0.7316 H       1  LIG1        0.1661
     28 O          -6.2063   -3.4428    1.1833 O.3     1  LIG1       -0.5035
     29 H          -6.9349   -3.9901    1.5082 H       1  LIG1        0.2923
     30 S          -6.4740   -6.6444    1.6112 S.3     1  LIG1       -0.1370
     31 H          -6.8585   -7.3221    0.5220 H       1  LIG1        0.1073
     32 C          -3.5507   -7.4792    0.0788 C.ar    1  LIG1        0.1072
     33 C          -4.2087   -8.5520   -0.4715 C.ar    1  LIG1        0.1566
     34 C          -3.3177   -9.6623   -0.4648 C.ar    1  LIG1        0.0643
     35 C          -2.1326   -9.2219    0.0836 C.ar    1  LIG1        0.0191
     36 N          -2.2823   -7.9151    0.4057 N.ar    1  LIG1       -0.3555
     37 H          -1.6138   -7.3580    0.9138 H       1  LIG1        0.1655
     38 H          -1.2165   -9.7588    0.2599 H       1  LIG1        0.0819
     39 O          -5.4764   -8.5350   -0.9541 O.3     1  LIG1       -0.5035
     40 H          -5.6132   -9.3394   -1.4736 H       1  LIG1        0.2923
     41 S          -3.6748  -11.2443   -1.1576 S.3     1  LIG1       -0.1377
     42 H          -4.2903  -11.7745   -0.0938 H       1  LIG1        0.1073
@<TRIPOS>BOND
     1    19    18    1
     2    40    39    1
     3    20    14    1
     4    20    21    1
     5    18    13    1
     6    41    34    1
     7    41    42    1
     8     6     5    1
     9    39    33    1
    10    13    14   ar
    11    13    12   ar
    12    14    15   ar
    13    27    26    1
    14    33    34   ar
    15    33    32   ar
    16    34    35   ar
    17     5     1   ar
    18     5     4   ar
    19     7     1    1
    20    12     4    1
    21    12    16   ar
    22     1     2   ar
    23    15    16   ar
    24    15    22    1
    25    26    22   ar
    26    26    25   ar
    27     4     3   ar
    28    32    25    1
    29    32    36   ar
    30    35    38    1
    31    35    36   ar
    32    16    17    1
    33    11    10    1
    34    22    23   ar
    35    25    24   ar
    36     2     3   ar
    37     2     8    1
    38    36    37    1
    39     3    10    1
    40    31    30    1
    41    23    24   ar
    42    23    28    1
    43     8     9    1
    44    24    30    1
    45    28    29    1
