@<TRIPOS>MOLECULE
mol_data/opt/m06hf/geoms/mol2/13fg.out
 12 12 0 0 0
SMALL
GASTEIGER

@<TRIPOS>ATOM
      1 C           1.1219   -0.3767   -0.1285 C.ar    1  LIG1        0.0448
      2 C           0.6185    0.8925   -0.0319 C.ar    1  LIG1        0.1472
      3 C          -0.7880    0.7860    0.1848 C.ar    1  LIG1        0.0636
      4 C          -1.0886   -0.5573    0.2241 C.ar    1  LIG1        0.0186
      5 N           0.0632   -1.2421    0.0285 N.ar    1  LIG1       -0.3630
      6 H           0.1404   -2.2454    0.0096 H       1  LIG1        0.1649
      7 H          -2.0338   -1.0474    0.3811 H       1  LIG1        0.0819
      8 H           2.1274   -0.7184   -0.2912 H       1  LIG1        0.0844
      9 O           1.3297    2.0451   -0.1320 O.3     1  LIG1       -0.5042
     10 H           0.7561    2.7747    0.1380 H       1  LIG1        0.2923
     11 S          -1.8709    2.1521    0.4498 S.3     1  LIG1       -0.1377
     12 H          -2.1584    2.4220   -0.8307 H       1  LIG1        0.1073
@<TRIPOS>BOND
     1    12    11    1
     2     8     1    1
     3     9     2    1
     4     9    10    1
     5     1     2   ar
     6     1     5   ar
     7     2     3   ar
     8     6     5    1
     9     5     4   ar
    10     3     4   ar
    11     3    11    1
    12     4     7    1
