@<TRIPOS>MOLECULE
mol_data/opt/m06hf/geoms/mol2/13fg13fg13fg-13fg.out
 42 45 0 0 0
SMALL
GASTEIGER

@<TRIPOS>ATOM
      1 C           0.5929    0.5525    2.0529 C.ar    1  LIG1        0.0453
      2 C           0.7782    1.2018    0.8593 C.ar    1  LIG1        0.1478
      3 C          -0.2574    0.7893   -0.0268 C.ar    1  LIG1        0.0732
      4 C          -1.0527   -0.0997    0.6661 C.ar    1  LIG1        0.0835
      5 N          -0.5261   -0.2341    1.9159 N.ar    1  LIG1       -0.3555
      6 H          -0.9833   -0.7237    2.6681 H       1  LIG1        0.1655
      7 H           1.1593    0.5984    2.9646 H       1  LIG1        0.0845
      8 O           1.7829    2.0678    0.5709 O.3     1  LIG1       -0.5042
      9 H           1.6101    2.4457   -0.3017 H       1  LIG1        0.2923
     10 S          -0.4068    1.3020   -1.7077 S.3     1  LIG1       -0.1370
     11 H          -1.5578    1.9757   -1.5746 H       1  LIG1        0.1073
     12 C          -2.2738   -0.7712    0.2370 C.ar    1  LIG1        0.1076
     13 C          -3.4114   -0.2464   -0.3325 C.ar    1  LIG1        0.1573
     14 C          -4.3204   -1.3128   -0.5640 C.ar    1  LIG1        0.0739
     15 C          -3.7079   -2.4688   -0.1187 C.ar    1  LIG1        0.0840
     16 N          -2.4816   -2.1267    0.3631 N.ar    1  LIG1       -0.3479
     17 H          -1.8198   -2.7681    0.7708 H       1  LIG1        0.1661
     18 O          -3.6112    1.0663   -0.6138 O.3     1  LIG1       -0.5035
     19 H          -4.5326    1.1781   -0.8863 H       1  LIG1        0.2923
     20 S          -5.9068   -1.1390   -1.3135 S.3     1  LIG1       -0.1370
     21 H          -6.6214   -1.5545   -0.2578 H       1  LIG1        0.1073
     22 C          -4.2342   -3.8277   -0.0859 C.ar    1  LIG1        0.1077
     23 C          -5.4242   -4.2908    0.4264 C.ar    1  LIG1        0.1573
     24 C          -5.4784   -5.6935    0.2158 C.ar    1  LIG1        0.0739
     25 C          -4.3052   -6.0519   -0.4215 C.ar    1  LIG1        0.0840
     26 N          -3.5670   -4.9222   -0.5913 N.ar    1  LIG1       -0.3479
     27 H          -2.6569   -4.8880   -1.0234 H       1  LIG1        0.1661
     28 O          -6.3671   -3.5243    1.0302 O.3     1  LIG1       -0.5035
     29 H          -7.0652   -4.1102    1.3548 H       1  LIG1        0.2923
     30 S          -6.8359   -6.7266    0.6616 S.3     1  LIG1       -0.1370
     31 H          -6.2167   -7.3928    1.6445 H       1  LIG1        0.1073
     32 C          -3.8496   -7.3746   -0.8317 C.ar    1  LIG1        0.1072
     33 C          -3.7648   -8.5359   -0.1037 C.ar    1  LIG1        0.1566
     34 C          -3.2508   -9.5515   -0.9592 C.ar    1  LIG1        0.0643
     35 C          -3.0516   -8.9725   -2.1942 C.ar    1  LIG1        0.0191
     36 N          -3.4011   -7.6683   -2.1045 N.ar    1  LIG1       -0.3555
     37 H          -3.4565   -7.0255   -2.8792 H       1  LIG1        0.1655
     38 H          -2.6980   -9.4130   -3.1102 H       1  LIG1        0.0819
     39 O          -4.0915   -8.6691    1.2053 O.3     1  LIG1       -0.5035
     40 H          -3.9946   -9.6015    1.4435 H       1  LIG1        0.2923
     41 S          -2.9984  -11.2303   -0.4789 S.3     1  LIG1       -0.1377
     42 H          -1.7209  -11.1200   -0.0942 H       1  LIG1        0.1073
@<TRIPOS>BOND
     1    38    35    1
     2    37    36    1
     3    35    36   ar
     4    35    34   ar
     5    36    32   ar
     6    10    11    1
     7    10     3    1
     8    20    14    1
     9    20    21    1
    10    27    26    1
    11    34    41    1
    12    34    33   ar
    13    19    18    1
    14    32    25    1
    15    32    33   ar
    16    18    13    1
    17    26    25   ar
    18    26    22   ar
    19    14    13   ar
    20    14    15   ar
    21    41    42    1
    22    25    24   ar
    23    13    12   ar
    24     9     8    1
    25    15    22    1
    26    15    16   ar
    27    33    39    1
    28    22    23   ar
    29     3     4   ar
    30     3     2   ar
    31    24    23   ar
    32    24    30    1
    33    12    16   ar
    34    12     4    1
    35    16    17    1
    36    23    28    1
    37     8     2    1
    38    30    31    1
    39     4     5   ar
    40     2     1   ar
    41    28    29    1
    42    39    40    1
    43     5     1   ar
    44     5     6    1
    45     1     7    1
