@<TRIPOS>MOLECULE
mol_data/opt/m06hf/geoms/mol2/13fg13fg-13fg.out
 32 34 0 0 0
SMALL
GASTEIGER

@<TRIPOS>ATOM
      1 C           1.2751    0.0104    0.2618 C.ar    1  LIG1        0.0453
      2 C           0.7776    1.0272   -0.5117 C.ar    1  LIG1        0.1478
      3 C          -0.6233    0.8191   -0.6606 C.ar    1  LIG1        0.0732
      4 C          -0.9385   -0.3230    0.0462 C.ar    1  LIG1        0.0835
      5 N           0.2155   -0.8009    0.5924 N.ar    1  LIG1       -0.3555
      6 H           0.2493   -1.5531    1.2605 H       1  LIG1        0.1655
      7 H           2.2789   -0.1854    0.5902 H       1  LIG1        0.0845
      8 O           1.4994    2.0393   -1.0572 O.3     1  LIG1       -0.5042
      9 H           0.8809    2.6634   -1.4596 H       1  LIG1        0.2923
     10 S          -1.6848    1.8317   -1.6399 S.3     1  LIG1       -0.1370
     11 H          -2.4941    2.2174   -0.6457 H       1  LIG1        0.1073
     12 C          -2.2392   -0.9419    0.2678 C.ar    1  LIG1        0.1076
     13 C          -3.4349   -0.3748    0.6385 C.ar    1  LIG1        0.1573
     14 C          -4.4060   -1.4103    0.7306 C.ar    1  LIG1        0.0739
     15 C          -3.7706   -2.5890    0.3977 C.ar    1  LIG1        0.0840
     16 N          -2.4654   -2.2975    0.1310 N.ar    1  LIG1       -0.3479
     17 H          -1.8369   -2.9169   -0.3577 H       1  LIG1        0.1661
     18 O          -3.6351    0.9386    0.9148 O.3     1  LIG1       -0.5035
     19 H          -4.5753    1.0627    1.1063 H       1  LIG1        0.2923
     20 S          -6.0591   -1.1734    1.2944 S.3     1  LIG1       -0.1370
     21 H          -6.6725   -1.4933    0.1465 H       1  LIG1        0.1073
     22 C          -4.3307   -3.9277    0.2672 C.ar    1  LIG1        0.1072
     23 C          -5.4732   -4.3421   -0.3738 C.ar    1  LIG1        0.1566
     24 C          -5.5718   -5.7538   -0.2227 C.ar    1  LIG1        0.0643
     25 C          -4.4835   -6.1554    0.5217 C.ar    1  LIG1        0.0191
     26 N          -3.7418   -5.0575    0.7991 N.ar    1  LIG1       -0.3555
     27 H          -2.9397   -5.0340    1.4082 H       1  LIG1        0.1655
     28 H          -4.2111   -7.1380    0.8659 H       1  LIG1        0.0819
     29 O          -6.3298   -3.5411   -1.0546 O.3     1  LIG1       -0.5035
     30 H          -7.0831   -4.0782   -1.3370 H       1  LIG1        0.2923
     31 S          -6.9024   -6.7358   -0.8387 S.3     1  LIG1       -0.1377
     32 H          -6.3880   -7.0049   -2.0462 H       1  LIG1        0.1073
@<TRIPOS>BOND
     1    32    31    1
     2    10     3    1
     3    10    11    1
     4     9     8    1
     5    30    29    1
     6     8     2    1
     7    29    23    1
     8    31    24    1
     9     3     2   ar
    10     3     4   ar
    11     2     1   ar
    12    23    24   ar
    13    23    22   ar
    14    17    16    1
    15    24    25   ar
    16     4    12    1
    17     4     5   ar
    18    16    12   ar
    19    16    15   ar
    20    21    20    1
    21     1     7    1
    22     1     5   ar
    23    22    15    1
    24    22    26   ar
    25    12    13   ar
    26    15    14   ar
    27    25    26   ar
    28    25    28    1
    29     5     6    1
    30    13    14   ar
    31    13    18    1
    32    14    20    1
    33    26    27    1
    34    18    19    1
