@<TRIPOS>MOLECULE
mol_data/opt/m06hf/geoms/mol2/13fg13fg13fg-13fg-.out
 42 45 0 0 0
SMALL
GASTEIGER

@<TRIPOS>ATOM
      1 C           0.7247    0.8479    1.5122 C.ar    1  LIG1        0.0453
      2 C           0.7054    1.4252    0.2685 C.ar    1  LIG1        0.1478
      3 C          -0.4237    0.9136   -0.4326 C.ar    1  LIG1        0.0732
      4 C          -1.0674    0.0401    0.4195 C.ar    1  LIG1        0.0835
      5 N          -0.3620    0.0082    1.5852 N.ar    1  LIG1       -0.3555
      6 H          -0.6889   -0.4390    2.4262 H       1  LIG1        0.1655
      7 H           1.4124    0.9771    2.3272 H       1  LIG1        0.0845
      8 O           1.6140    2.3098   -0.2157 O.3     1  LIG1       -0.5042
      9 H           1.2942    2.6222   -1.0727 H       1  LIG1        0.2923
     10 S          -0.8294    1.3053   -2.1038 S.3     1  LIG1       -0.1370
     11 H          -1.9816    1.9404   -1.8473 H       1  LIG1        0.1073
     12 C          -2.2963   -0.7138    0.2050 C.ar    1  LIG1        0.1076
     13 C          -3.5202   -0.2858   -0.2555 C.ar    1  LIG1        0.1573
     14 C          -4.3880   -1.4088   -0.3148 C.ar    1  LIG1        0.0739
     15 C          -3.6650   -2.5004    0.1286 C.ar    1  LIG1        0.0840
     16 N          -2.4127   -2.0668    0.4395 N.ar    1  LIG1       -0.3479
     17 H          -1.6720   -2.6498    0.7954 H       1  LIG1        0.1661
     18 O          -3.8277    0.9927   -0.5910 O.3     1  LIG1       -0.5035
     19 H          -4.7793    1.0385   -0.7589 H       1  LIG1        0.2923
     20 S          -6.0409   -1.3567   -0.9257 S.3     1  LIG1       -0.1370
     21 H          -6.6404   -1.7410    0.2081 H       1  LIG1        0.1073
     22 C          -4.0892   -3.8851    0.2863 C.ar    1  LIG1        0.1077
     23 C          -5.2290   -4.4000    0.8559 C.ar    1  LIG1        0.1573
     24 C          -5.1723   -5.8176    0.7536 C.ar    1  LIG1        0.0739
     25 C          -3.9928   -6.1277    0.1075 C.ar    1  LIG1        0.0840
     26 N          -3.3427   -4.9584   -0.1594 N.ar    1  LIG1       -0.3479
     27 H          -2.5897   -4.8721   -0.8258 H       1  LIG1        0.1661
     28 O          -6.2093   -3.6777    1.4549 O.3     1  LIG1       -0.5035
     29 H          -6.9274   -4.2841    1.6855 H       1  LIG1        0.2923
     30 S          -6.3845   -6.9091    1.4252 S.3     1  LIG1       -0.1370
     31 H          -6.7691   -7.4468    0.2593 H       1  LIG1        0.1073
     32 C          -3.4925   -7.4318   -0.3061 C.ar    1  LIG1        0.1072
     33 C          -4.1495   -8.4588   -0.9397 C.ar    1  LIG1        0.1566
     34 C          -3.2284   -9.5299   -1.1093 C.ar    1  LIG1        0.0643
     35 C          -2.0247   -9.1106   -0.5851 C.ar    1  LIG1        0.0191
     36 N          -2.1935   -7.8553   -0.1072 N.ar    1  LIG1       -0.3555
     37 H          -1.5068   -7.3301    0.4098 H       1  LIG1        0.1655
     38 H          -1.0838   -9.6297   -0.5256 H       1  LIG1        0.0819
     39 O          -5.4436   -8.4349   -1.3455 O.3     1  LIG1       -0.5035
     40 H          -5.6008   -9.2080   -1.9058 H       1  LIG1        0.2923
     41 S          -3.5988  -11.0497   -1.9271 S.3     1  LIG1       -0.1377
     42 H          -4.1038  -11.6989   -0.8708 H       1  LIG1        0.1073
@<TRIPOS>BOND
     1    10    11    1
     2    10     3    1
     3    41    34    1
     4    41    42    1
     5    40    39    1
     6    39    33    1
     7    34    33   ar
     8    34    35   ar
     9     9     8    1
    10    33    32   ar
    11    20    14    1
    12    20    21    1
    13    27    26    1
    14    19    18    1
    15    18    13    1
    16    35    38    1
    17    35    36   ar
    18     3     2   ar
    19     3     4   ar
    20    14    13   ar
    21    14    15   ar
    22    32    36   ar
    23    32    25    1
    24    13    12   ar
    25     8     2    1
    26    26    25   ar
    27    26    22   ar
    28    36    37    1
    29    25    24   ar
    30    15    22    1
    31    15    16   ar
    32    12     4    1
    33    12    16   ar
    34    31    30    1
    35     2     1   ar
    36    22    23   ar
    37     4     5   ar
    38    16    17    1
    39    24    23   ar
    40    24    30    1
    41    23    28    1
    42    28    29    1
    43     1     5   ar
    44     1     7    1
    45     5     6    1
