@<TRIPOS>MOLECULE
mol_data/opt/m06hf/geoms/mol2/13fg13fg-13fg13fg-.out
 42 45 0 0 0
SMALL
GASTEIGER

@<TRIPOS>ATOM
      1 C           0.5782    0.5908   -2.0352 C.ar    1  LIG1        0.0453
      2 C           0.7704    1.2191   -0.8315 C.ar    1  LIG1        0.1478
      3 C          -0.2597    0.7903    0.0534 C.ar    1  LIG1        0.0732
      4 C          -1.0586   -0.0869   -0.6502 C.ar    1  LIG1        0.0835
      5 N          -0.5395   -0.1989   -1.9053 N.ar    1  LIG1       -0.3555
      6 H          -1.0009   -0.6754   -2.6634 H       1  LIG1        0.1655
      7 H           1.1391    0.6532   -2.9493 H       1  LIG1        0.0845
      8 O           1.7762    2.0805   -0.5338 O.3     1  LIG1       -0.5042
      9 H           1.6085    2.4429    0.3463 H       1  LIG1        0.2923
     10 S          -0.3993    1.2732    1.7440 S.3     1  LIG1       -0.1370
     11 H          -1.5515    1.9483    1.6296 H       1  LIG1        0.1073
     12 C          -2.2768   -0.7667   -0.2257 C.ar    1  LIG1        0.1076
     13 C          -3.4112   -0.2527    0.3597 C.ar    1  LIG1        0.1573
     14 C          -4.3182   -1.3236    0.5778 C.ar    1  LIG1        0.0739
     15 C          -3.7078   -2.4711    0.1086 C.ar    1  LIG1        0.0840
     16 N          -2.4845   -2.1198   -0.3745 N.ar    1  LIG1       -0.3479
     17 H          -1.8249   -2.7536   -0.7974 H       1  LIG1        0.1661
     18 O          -3.6099    1.0547    0.6654 O.3     1  LIG1       -0.5035
     19 H          -4.5298    1.1611    0.9451 H       1  LIG1        0.2923
     20 S          -5.9003   -1.1641    1.3397 S.3     1  LIG1       -0.1370
     21 H          -6.6208   -1.5615    0.2811 H       1  LIG1        0.1073
     22 C          -4.2335   -3.8297    0.0549 C.ar    1  LIG1        0.1077
     23 C          -5.4264   -4.2843   -0.4584 C.ar    1  LIG1        0.1573
     24 C          -5.4786   -5.6906   -0.2722 C.ar    1  LIG1        0.0739
     25 C          -4.3015   -6.0594    0.3518 C.ar    1  LIG1        0.0840
     26 N          -3.5628   -4.9325    0.5371 N.ar    1  LIG1       -0.3479
     27 H          -2.6502   -4.9053    0.9643 H       1  LIG1        0.1661
     28 O          -6.3732   -3.5079   -1.0430 O.3     1  LIG1       -0.5035
     29 H          -7.0730   -4.0884   -1.3737 H       1  LIG1        0.2923
     30 S          -6.8382   -6.7165   -0.7281 S.3     1  LIG1       -0.1370
     31 H          -6.2246   -7.3649   -1.7262 H       1  LIG1        0.1073
     32 C          -3.8428   -7.3889    0.7359 C.ar    1  LIG1        0.1072
     33 C          -3.7617   -8.5372   -0.0129 C.ar    1  LIG1        0.1566
     34 C          -3.2422   -9.5673    0.8215 C.ar    1  LIG1        0.0643
     35 C          -3.0360   -9.0100    2.0653 C.ar    1  LIG1        0.0191
     36 N          -3.3867   -7.7047    2.0007 N.ar    1  LIG1       -0.3555
     37 H          -3.4379   -7.0757    2.7869 H       1  LIG1        0.1655
     38 H          -2.6767   -9.4664    2.9713 H       1  LIG1        0.0819
     39 O          -4.0961   -8.6475   -1.3221 O.3     1  LIG1       -0.5035
     40 H          -4.0001   -9.5755   -1.5772 H       1  LIG1        0.2923
     41 S          -2.9917  -11.2372    0.3103 S.3     1  LIG1       -0.1377
     42 H          -1.7166  -11.1194   -0.0801 H       1  LIG1        0.1073
@<TRIPOS>BOND
     1     7     1    1
     2     6     5    1
     3     1     5   ar
     4     1     2   ar
     5     5     4   ar
     6    31    30    1
     7    40    39    1
     8    29    28    1
     9    39    33    1
    10    28    23    1
    11     2     8    1
    12     2     3   ar
    13    17    16    1
    14    30    24    1
    15     4    12    1
    16     4     3   ar
    17     8     9    1
    18    23    24   ar
    19    23    22   ar
    20    16    12   ar
    21    16    15   ar
    22    24    25   ar
    23    12    13   ar
    24    42    41    1
    25    33    32   ar
    26    33    34   ar
    27     3    10    1
    28    22    15    1
    29    22    26   ar
    30    15    14   ar
    31    21    20    1
    32    41    34    1
    33    25    26   ar
    34    25    32    1
    35    13    14   ar
    36    13    18    1
    37    26    27    1
    38    14    20    1
    39    18    19    1
    40    32    36   ar
    41    34    35   ar
    42    11    10    1
    43    36    35   ar
    44    36    37    1
    45    35    38    1
