@<TRIPOS>MOLECULE
mol_data/opt/m06hf/geoms/mol2/13fg13fg.out
 22 23 0 0 0
SMALL
GASTEIGER

@<TRIPOS>ATOM
      1 C           1.1444   -0.2622    0.5971 C.ar    1  LIG1        0.0453
      2 C           0.7795    0.9428    0.0539 C.ar    1  LIG1        0.1478
      3 C          -0.5848    0.8483   -0.3420 C.ar    1  LIG1        0.0732
      4 C          -1.0141   -0.4211   -0.0135 C.ar    1  LIG1        0.0835
      5 N           0.0389   -1.0781    0.5489 N.ar    1  LIG1       -0.3555
      6 H          -0.0326   -1.9804    0.9899 H       1  LIG1        0.1655
      7 H           2.0852   -0.5848    1.0033 H       1  LIG1        0.0845
      8 O           1.5847    2.0248   -0.0989 O.3     1  LIG1       -0.5042
      9 H           1.0419    2.7563   -0.4232 H       1  LIG1        0.2923
     10 S          -1.4723    2.1230   -1.1752 S.3     1  LIG1       -0.1370
     11 H          -2.3815    2.3480   -0.2175 H       1  LIG1        0.1073
     12 C          -2.3401   -1.0103   -0.1567 C.ar    1  LIG1        0.1072
     13 C          -3.5687   -0.5110    0.2001 C.ar    1  LIG1        0.1566
     14 C          -4.5541   -1.4753   -0.1556 C.ar    1  LIG1        0.0643
     15 C          -3.8890   -2.5347   -0.7341 C.ar    1  LIG1        0.0191
     16 N          -2.5656   -2.2507   -0.7204 N.ar    1  LIG1       -0.3555
     17 H          -1.8461   -2.7990   -1.1645 H       1  LIG1        0.1655
     18 H          -4.2805   -3.4455   -1.1525 H       1  LIG1        0.0819
     19 O          -3.7908    0.6806    0.8111 O.3     1  LIG1       -0.5035
     20 H          -4.7467    0.8222    0.8521 H       1  LIG1        0.2923
     21 S          -6.2913   -1.2601    0.0562 S.3     1  LIG1       -0.1377
     22 H          -6.3909   -1.7515    1.2978 H       1  LIG1        0.1073
@<TRIPOS>BOND
     1    10     3    1
     2    10    11    1
     3    17    16    1
     4    18    15    1
     5    15    16   ar
     6    15    14   ar
     7    16    12   ar
     8     9     8    1
     9     3     4   ar
    10     3     2   ar
    11    12     4    1
    12    12    13   ar
    13    14    21    1
    14    14    13   ar
    15     8     2    1
    16     4     5   ar
    17     2     1   ar
    18    21    22    1
    19    13    19    1
    20     5     1   ar
    21     5     6    1
    22     1     7    1
    23    19    20    1
