@<TRIPOS>MOLECULE
mol_data/opt/m06hf/geoms/mol2/13fg13fg-13fg13fg.out
 42 45 0 0 0
SMALL
GASTEIGER

@<TRIPOS>ATOM
      1 C           1.2744    0.4006    0.1493 C.ar    1  LIG1        0.0453
      2 C           0.6472    1.5072   -0.3617 C.ar    1  LIG1        0.1478
      3 C          -0.7487    1.2311   -0.4224 C.ar    1  LIG1        0.0732
      4 C          -0.9291   -0.0453    0.0699 C.ar    1  LIG1        0.0835
      5 N           0.2985   -0.5335    0.4057 N.ar    1  LIG1       -0.3555
      6 H           0.4383   -1.3955    0.9064 H       1  LIG1        0.1655
      7 H           2.3153    0.2208    0.3445 H       1  LIG1        0.0845
      8 O           1.2526    2.6553   -0.7595 O.3     1  LIG1       -0.5042
      9 H           0.5610    3.2939   -0.9786 H       1  LIG1        0.2923
     10 S          -1.9557    2.3355   -1.0801 S.3     1  LIG1       -0.1370
     11 H          -2.6398    2.5176    0.0583 H       1  LIG1        0.1073
     12 C          -2.1643   -0.7894    0.2827 C.ar    1  LIG1        0.1076
     13 C          -3.3401   -0.3960    0.8753 C.ar    1  LIG1        0.1573
     14 C          -4.2396   -1.4979    0.8501 C.ar    1  LIG1        0.0739
     15 C          -3.5845   -2.5372    0.2213 C.ar    1  LIG1        0.0840
     16 N          -2.3316   -2.1049   -0.1038 N.ar    1  LIG1       -0.3479
     17 H          -1.7339   -2.5654   -0.7731 H       1  LIG1        0.1661
     18 O          -3.5765    0.8196    1.4297 O.3     1  LIG1       -0.5035
     19 H          -4.5023    0.8453    1.7095 H       1  LIG1        0.2923
     20 S          -5.8351   -1.4892    1.6000 S.3     1  LIG1       -0.1370
     21 H          -6.5333   -1.7329    0.4835 H       1  LIG1        0.1073
     22 C          -4.0840   -3.8583   -0.1335 C.ar    1  LIG1        0.1077
     23 C          -5.2834   -4.2220   -0.6993 C.ar    1  LIG1        0.1573
     24 C          -5.2825   -5.6338   -0.8691 C.ar    1  LIG1        0.0739
     25 C          -4.0756   -6.0960   -0.3850 C.ar    1  LIG1        0.0840
     26 N          -3.3577   -5.0192    0.0454 N.ar    1  LIG1       -0.3479
     27 H          -2.5501   -5.0832    0.6462 H       1  LIG1        0.1661
     28 O          -6.2677   -3.3694   -1.0792 O.3     1  LIG1       -0.5035
     29 H          -7.0072   -3.8964   -1.4133 H       1  LIG1        0.2923
     30 S          -6.5666   -6.5373   -1.6696 S.3     1  LIG1       -0.1370
     31 H          -6.9143   -7.2834   -0.6127 H       1  LIG1        0.1073
     32 C          -3.6082   -7.4704   -0.2605 C.ar    1  LIG1        0.1072
     33 C          -4.2626   -8.5764    0.2260 C.ar    1  LIG1        0.1566
     34 C          -3.3739   -9.6849    0.1382 C.ar    1  LIG1        0.0643
     35 C          -2.2012   -9.2166   -0.4142 C.ar    1  LIG1        0.0191
     36 N          -2.3476   -7.8893   -0.6380 N.ar    1  LIG1       -0.3555
     37 H          -1.6873   -7.3029   -1.1233 H       1  LIG1        0.1655
     38 H          -1.2987   -9.7479   -0.6627 H       1  LIG1        0.0819
     39 O          -5.5217   -8.5920    0.7299 O.3     1  LIG1       -0.5035
     40 H          -5.7499   -9.5094    0.9363 H       1  LIG1        0.2923
     41 S          -3.7925  -11.3373    0.5929 S.3     1  LIG1       -0.1377
     42 H          -3.4117  -11.2830    1.8763 H       1  LIG1        0.1073
@<TRIPOS>BOND
     1    30    24    1
     2    30    31    1
     3    29    28    1
     4    37    36    1
     5    10     3    1
     6    10    11    1
     7    28    23    1
     8     9     8    1
     9    24    23   ar
    10    24    25   ar
    11    17    16    1
    12     8     2    1
    13    23    22   ar
    14    38    35    1
    15    36    35   ar
    16    36    32   ar
    17     3     2   ar
    18     3     4   ar
    19    35    34   ar
    20    25    32    1
    21    25    26   ar
    22     2     1   ar
    23    32    33   ar
    24    22    26   ar
    25    22    15    1
    26    16    15   ar
    27    16    12   ar
    28    26    27    1
    29     4    12    1
    30     4     5   ar
    31    34    33   ar
    32    34    41    1
    33     1     7    1
    34     1     5   ar
    35    15    14   ar
    36    33    39    1
    37    12    13   ar
    38     5     6    1
    39    21    20    1
    40    41    42    1
    41    39    40    1
    42    14    13   ar
    43    14    20    1
    44    13    18    1
    45    18    19    1
