@<TRIPOS>MOLECULE
mol_data/opt/m06hf/geoms/mol2/13fg13fg-.out
 22 23 0 0 0
SMALL
GASTEIGER

@<TRIPOS>ATOM
      1 C           1.1415   -0.2595   -0.6079 C.ar    1  LIG1        0.0453
      2 C           0.7798    0.9421   -0.0553 C.ar    1  LIG1        0.1478
      3 C          -0.5827    0.8455    0.3464 C.ar    1  LIG1        0.0732
      4 C          -1.0141   -0.4215    0.0119 C.ar    1  LIG1        0.0835
      5 N           0.0360   -1.0753   -0.5598 N.ar    1  LIG1       -0.3555
      6 H          -0.0379   -1.9747   -1.0063 H       1  LIG1        0.1655
      7 H           2.0803   -0.5799   -1.0208 H       1  LIG1        0.0845
      8 O           1.5861    2.0228    0.1007 O.3     1  LIG1       -0.5042
      9 H           1.0451    2.7524    0.4320 H       1  LIG1        0.2923
     10 S          -1.4657    2.1152    1.1921 S.3     1  LIG1       -0.1370
     11 H          -2.3794    2.3467    0.2402 H       1  LIG1        0.1073
     12 C          -2.3396   -1.0111    0.1575 C.ar    1  LIG1        0.1072
     13 C          -3.5697   -0.5091   -0.1902 C.ar    1  LIG1        0.1566
     14 C          -4.5537   -1.4753    0.1640 C.ar    1  LIG1        0.0643
     15 C          -3.8863   -2.5387    0.7324 C.ar    1  LIG1        0.0191
     16 N          -2.5629   -2.2551    0.7142 N.ar    1  LIG1       -0.3555
     17 H          -1.8415   -2.8065    1.1514 H       1  LIG1        0.1655
     18 H          -4.2762   -3.4521    1.1468 H       1  LIG1        0.0819
     19 O          -3.7943    0.6865   -0.7923 O.3     1  LIG1       -0.5035
     20 H          -4.7503    0.8287   -0.8278 H       1  LIG1        0.2923
     21 S          -6.2918   -1.2581   -0.0381 S.3     1  LIG1       -0.1377
     22 H          -6.3976   -1.7414   -1.2823 H       1  LIG1        0.1073
@<TRIPOS>BOND
     1    22    21    1
     2     7     1    1
     3     6     5    1
     4    20    19    1
     5    19    13    1
     6     1     5   ar
     7     1     2   ar
     8     5     4   ar
     9    13    12   ar
    10    13    14   ar
    11     2     8    1
    12     2     3   ar
    13    21    14    1
    14     4    12    1
    15     4     3   ar
    16     8     9    1
    17    12    16   ar
    18    14    15   ar
    19    11    10    1
    20     3    10    1
    21    16    15   ar
    22    16    17    1
    23    15    18    1
