@<TRIPOS>MOLECULE
mol_data/opt/m06hf/geoms/mol2/13fg13fg13fg13fg.out
 42 45 0 0 0
SMALL
GASTEIGER

@<TRIPOS>ATOM
      1 C           1.2719    0.4153    0.1300 C.ar    1  LIG1        0.0453
      2 C           0.6321    1.5241   -0.3602 C.ar    1  LIG1        0.1478
      3 C          -0.7625    1.2396   -0.4095 C.ar    1  LIG1        0.0732
      4 C          -0.9294   -0.0440    0.0688 C.ar    1  LIG1        0.0835
      5 N           0.3048   -0.5284    0.3851 N.ar    1  LIG1       -0.3555
      6 H           0.4557   -1.3957    0.8733 H       1  LIG1        0.1655
      7 H           2.3160    0.2398    0.3118 H       1  LIG1        0.0845
      8 O           1.2255    2.6813   -0.7494 O.3     1  LIG1       -0.5042
      9 H           0.5274    3.3171   -0.9558 H       1  LIG1        0.2923
     10 S          -1.9844    2.3432   -1.0411 S.3     1  LIG1       -0.1370
     11 H          -2.6579    2.5046    0.1066 H       1  LIG1        0.1073
     12 C          -2.1588   -0.7972    0.2826 C.ar    1  LIG1        0.1076
     13 C          -3.3317   -0.4166    0.8893 C.ar    1  LIG1        0.1573
     14 C          -4.2304   -1.5187    0.8468 C.ar    1  LIG1        0.0739
     15 C          -3.5769   -2.5457    0.1959 C.ar    1  LIG1        0.0840
     16 N          -2.3272   -2.1056   -0.1274 N.ar    1  LIG1       -0.3479
     17 H          -1.7293   -2.5563   -0.8032 H       1  LIG1        0.1661
     18 O          -3.5669    0.7878    1.4673 O.3     1  LIG1       -0.5035
     19 H          -4.4836    0.7959    1.7768 H       1  LIG1        0.2923
     20 S          -5.8257   -1.5305    1.5968 S.3     1  LIG1       -0.1370
     21 H          -6.5330   -1.6285    0.4631 H       1  LIG1        0.1073
     22 C          -4.0755   -3.8625   -0.1756 C.ar    1  LIG1        0.1077
     23 C          -5.2746   -4.2184   -0.7466 C.ar    1  LIG1        0.1573
     24 C          -5.2766   -5.6291   -0.9261 C.ar    1  LIG1        0.0739
     25 C          -4.0720   -6.0978   -0.4425 C.ar    1  LIG1        0.0840
     26 N          -3.3521   -5.0261   -0.0034 N.ar    1  LIG1       -0.3479
     27 H          -2.5455   -5.0967    0.5981 H       1  LIG1        0.1661
     28 O          -6.2545   -3.3597   -1.1217 O.3     1  LIG1       -0.5035
     29 H          -6.9987   -3.8819   -1.4525 H       1  LIG1        0.2923
     30 S          -6.5627   -6.5254   -1.7315 S.3     1  LIG1       -0.1370
     31 H          -6.9094   -7.2787   -0.6794 H       1  LIG1        0.1073
     32 C          -3.6084   -7.4742   -0.3240 C.ar    1  LIG1        0.1072
     33 C          -4.2650   -8.5802    0.1593 C.ar    1  LIG1        0.1566
     34 C          -3.3784   -9.6902    0.0686 C.ar    1  LIG1        0.0643
     35 C          -2.2048   -9.2228   -0.4824 C.ar    1  LIG1        0.0191
     36 N          -2.3486   -7.8946   -0.7026 N.ar    1  LIG1       -0.3555
     37 H          -1.6871   -7.3080   -1.1860 H       1  LIG1        0.1655
     38 H          -1.3032   -9.7551   -0.7323 H       1  LIG1        0.0819
     39 O          -5.5242   -8.5945    0.6630 O.3     1  LIG1       -0.5035
     40 H          -5.7537   -9.5119    0.8685 H       1  LIG1        0.2923
     41 S          -3.8008  -11.3428    0.5196 S.3     1  LIG1       -0.1377
     42 H          -3.4159  -11.2938    1.8019 H       1  LIG1        0.1073
@<TRIPOS>BOND
     1    30    24    1
     2    30    31    1
     3    29    28    1
     4    37    36    1
     5    28    23    1
     6    10     3    1
     7    10    11    1
     8     9     8    1
     9    24    23   ar
    10    24    25   ar
    11    17    16    1
    12     8     2    1
    13    23    22   ar
    14    38    35    1
    15    36    35   ar
    16    36    32   ar
    17    35    34   ar
    18    25    32    1
    19    25    26   ar
    20     3     2   ar
    21     3     4   ar
    22     2     1   ar
    23    32    33   ar
    24    22    26   ar
    25    22    15    1
    26    16    15   ar
    27    16    12   ar
    28    26    27    1
    29    34    33   ar
    30    34    41    1
    31     4    12    1
    32     4     5   ar
    33     1     7    1
    34     1     5   ar
    35    33    39    1
    36    15    14   ar
    37    12    13   ar
    38     5     6    1
    39    21    20    1
    40    41    42    1
    41    39    40    1
    42    14    13   ar
    43    14    20    1
    44    13    18    1
    45    18    19    1
