@<TRIPOS>MOLECULE
mol_data/opt/m06hf/geoms/mol2/13fh13fh-13fh-13fh.out
 46 49 0 0 0
SMALL
GASTEIGER

@<TRIPOS>ATOM
      1 C           1.2149   -0.4541    1.2005 C.ar    1  LIG1        0.0461
      2 C           1.1414    0.6824    0.4372 C.ar    1  LIG1        0.1554
      3 C          -0.1678    0.7691   -0.1089 C.ar    1  LIG1        0.0938
      4 C          -0.8707   -0.3314    0.3435 C.ar    1  LIG1        0.0912
      5 N          -0.0171   -1.0620    1.1240 N.ar    1  LIG1       -0.3549
      6 H          -0.3133   -1.8561    1.6694 H       1  LIG1        0.1655
      7 H           2.0272   -0.8677    1.7687 H       1  LIG1        0.0845
      8 O           2.1176    1.5884    0.1813 O.3     1  LIG1       -0.5035
      9 H           1.7484    2.1844   -0.4889 H       1  LIG1        0.2923
     10 N          -0.5183    1.8147   -1.0108 N.pl3   1  LIG1       -0.3535
     11 H          -0.9502    1.4561   -1.8566 H       1  LIG1        0.1425
     12 H          -1.1412    2.4978   -0.5927 H       1  LIG1        0.1425
     13 C          -2.2286   -0.7906    0.0726 C.ar    1  LIG1        0.1092
     14 C          -2.6554   -2.0309   -0.3388 C.ar    1  LIG1        0.1650
     15 C          -4.0680   -1.9950   -0.4620 C.ar    1  LIG1        0.0945
     16 C          -4.4731   -0.7181   -0.1223 C.ar    1  LIG1        0.0916
     17 N          -3.3538    0.0021    0.1788 N.ar    1  LIG1       -0.3473
     18 H          -3.3593    0.9019    0.6318 H       1  LIG1        0.1662
     19 O          -1.9043   -3.1364   -0.6131 O.3     1  LIG1       -0.5030
     20 H          -0.9799   -2.8747   -0.7110 H       1  LIG1        0.2923
     21 N          -4.9365   -3.0516   -0.8809 N.pl3   1  LIG1       -0.3534
     22 H          -5.0177   -3.0799   -1.8956 H       1  LIG1        0.1425
     23 H          -4.5646   -3.9475   -0.5750 H       1  LIG1        0.1425
     24 C          -5.8174   -0.1755   -0.0643 C.ar    1  LIG1        0.1092
     25 C          -7.0149   -0.8441    0.1184 C.ar    1  LIG1        0.1650
     26 C          -8.0460    0.1349    0.1605 C.ar    1  LIG1        0.0945
     27 C          -7.4419    1.3644   -0.0011 C.ar    1  LIG1        0.0916
     28 N          -6.1037    1.1751   -0.1297 N.ar    1  LIG1       -0.3473
     29 H          -5.4716    1.9218   -0.3799 H       1  LIG1        0.1662
     30 O          -7.2264   -2.1695    0.2593 O.3     1  LIG1       -0.5030
     31 H          -6.4478   -2.6533   -0.1301 H       1  LIG1        0.2923
     32 N          -9.4524   -0.0577    0.3411 N.pl3   1  LIG1       -0.3534
     33 H          -9.7937   -0.7267   -0.3454 H       1  LIG1        0.1425
     34 H          -9.6280   -0.4683    1.2554 H       1  LIG1        0.1425
     35 C          -8.0376    2.6816   -0.0703 C.ar    1  LIG1        0.1087
     36 C          -7.4615    3.9151   -0.2501 C.ar    1  LIG1        0.1643
     37 C          -8.4901    4.8869   -0.2539 C.ar    1  LIG1        0.0849
     38 C          -9.6804    4.2047   -0.0740 C.ar    1  LIG1        0.0267
     39 N          -9.3890    2.8836    0.0335 N.ar    1  LIG1       -0.3549
     40 H         -10.0150    2.0958    0.1681 H       1  LIG1        0.1655
     41 H         -10.6917    4.5693   -0.0150 H       1  LIG1        0.0827
     42 O          -6.1317    4.1815   -0.4047 O.3     1  LIG1       -0.5031
     43 H          -6.0743    5.1438   -0.5149 H       1  LIG1        0.2923
     44 N          -8.1728    6.2689   -0.4238 N.pl3   1  LIG1       -0.3540
     45 H          -8.6007    6.6606   -1.2560 H       1  LIG1        0.1425
     46 H          -8.4478    6.8258    0.3781 H       1  LIG1        0.1425
@<TRIPOS>BOND
     1    22    21    1
     2    11    10    1
     3    45    44    1
     4    10    12    1
     5    10     3    1
     6    21    23    1
     7    21    15    1
     8    20    19    1
     9    19    14    1
    10    43    42    1
    11     9     8    1
    12    15    14   ar
    13    15    16   ar
    14    44    37    1
    15    44    46    1
    16    42    36    1
    17    29    28    1
    18    33    32    1
    19    14    13   ar
    20    37    36   ar
    21    37    38   ar
    22    36    35   ar
    23    31    30    1
    24    28    24   ar
    25    28    27   ar
    26    16    24    1
    27    16    17   ar
    28     3     4   ar
    29     3     2   ar
    30    38    41    1
    31    38    39   ar
    32    35    27    1
    33    35    39   ar
    34    24    25   ar
    35    27    26   ar
    36    39    40    1
    37    13    17   ar
    38    13     4    1
    39    25    26   ar
    40    25    30    1
    41    26    32    1
    42    17    18    1
    43     8     2    1
    44    32    34    1
    45     4     5   ar
    46     2     1   ar
    47     5     1   ar
    48     5     6    1
    49     1     7    1
