@<TRIPOS>MOLECULE
mol_data/opt/m06hf/geoms/mol2/13fh13fh.out
 24 25 0 0 0
SMALL
GASTEIGER

@<TRIPOS>ATOM
      1 C           1.2759   -0.2929   -0.4062 C.ar    1  LIG1        0.0461
      2 C           0.8638    0.9642   -0.0523 C.ar    1  LIG1        0.1554
      3 C          -0.5435    0.9326    0.1465 C.ar    1  LIG1        0.0938
      4 C          -0.9580   -0.3566   -0.1055 C.ar    1  LIG1        0.0911
      5 N           0.1497   -1.0908   -0.4279 N.ar    1  LIG1       -0.3549
      6 H           0.1176   -2.0189   -0.8148 H       1  LIG1        0.1655
      7 H           2.2526   -0.6731   -0.6407 H       1  LIG1        0.0845
      8 O           1.6086    2.0869    0.1137 O.3     1  LIG1       -0.5035
      9 H           0.9649    2.7892    0.2969 H       1  LIG1        0.2923
     10 N          -1.2716    2.0941    0.5316 N.pl3   1  LIG1       -0.3535
     11 H          -2.0855    2.2132   -0.0683 H       1  LIG1        0.1425
     12 H          -1.6034    2.0141    1.4893 H       1  LIG1        0.1425
     13 C          -2.3106   -0.8949   -0.0681 C.ar    1  LIG1        0.1087
     14 C          -3.4992   -0.3083   -0.4253 C.ar    1  LIG1        0.1643
     15 C          -4.5495   -1.2330   -0.1843 C.ar    1  LIG1        0.0849
     16 C          -3.9688   -2.3767    0.3186 C.ar    1  LIG1        0.0267
     17 N          -2.6254   -2.1616    0.3812 N.ar    1  LIG1       -0.3549
     18 H          -1.9585   -2.7791    0.8137 H       1  LIG1        0.1655
     19 H          -4.4095   -3.3068    0.6339 H       1  LIG1        0.0827
     20 O          -3.6934    0.9334   -0.9434 O.3     1  LIG1       -0.5031
     21 H          -4.6503    1.0018   -1.0925 H       1  LIG1        0.2923
     22 N          -5.8976   -0.8781   -0.4888 N.pl3   1  LIG1       -0.3540
     23 H          -6.2991   -1.4688   -1.2089 H       1  LIG1        0.1425
     24 H          -6.4972   -0.8988    0.3288 H       1  LIG1        0.1425
@<TRIPOS>BOND
     1    23    22    1
     2    21    20    1
     3    20    14    1
     4     6     5    1
     5     7     1    1
     6    22    15    1
     7    22    24    1
     8     5     1   ar
     9     5     4   ar
    10    14    15   ar
    11    14    13   ar
    12     1     2   ar
    13    15    16   ar
    14     4    13    1
    15     4     3   ar
    16    11    10    1
    17    13    17   ar
    18     2     8    1
    19     2     3   ar
    20     8     9    1
    21     3    10    1
    22    16    17   ar
    23    16    19    1
    24    17    18    1
    25    10    12    1
