@<TRIPOS>MOLECULE
mol_data/opt/m06hf/geoms/mol2/13fh13fh-.out
 24 25 0 0 0
SMALL
GASTEIGER

@<TRIPOS>ATOM
      1 C           1.2221   -0.2874    0.0983 C.ar    1  LIG1        0.0461
      2 C           0.8576    1.0308   -0.0010 C.ar    1  LIG1        0.1554
      3 C          -0.5599    1.0972   -0.0575 C.ar    1  LIG1        0.0938
      4 C          -1.0244   -0.2058    0.0098 C.ar    1  LIG1        0.0911
      5 N           0.0593   -1.0197    0.1031 N.ar    1  LIG1       -0.3549
      6 H          -0.0276   -2.0244    0.1647 H       1  LIG1        0.1655
      7 H           2.1913   -0.7446    0.1668 H       1  LIG1        0.0845
      8 O           1.6603    2.1257   -0.0458 O.3     1  LIG1       -0.5035
      9 H           1.0615    2.8790   -0.1622 H       1  LIG1        0.2923
     10 N          -1.2305    2.3493   -0.1776 N.pl3   1  LIG1       -0.3535
     11 H          -1.7968    2.4367   -1.0138 H       1  LIG1        0.1425
     12 H          -1.7509    2.6229    0.6486 H       1  LIG1        0.1425
     13 C          -2.3679   -0.7645   -0.0180 C.ar    1  LIG1        0.1087
     14 C          -2.7637   -2.0794   -0.0867 C.ar    1  LIG1        0.1643
     15 C          -4.1883   -2.1260   -0.0627 C.ar    1  LIG1        0.0849
     16 C          -4.6137   -0.8216    0.0142 C.ar    1  LIG1        0.0267
     17 N          -3.5126   -0.0148    0.0355 N.ar    1  LIG1       -0.3549
     18 H          -3.5194    0.9873    0.1169 H       1  LIG1        0.1655
     19 H          -5.6147   -0.4315    0.0626 H       1  LIG1        0.0827
     20 O          -1.9006   -3.1562   -0.1091 O.3     1  LIG1       -0.5031
     21 H          -2.0619   -3.6724   -0.9075 H       1  LIG1        0.2923
     22 N          -5.0225   -3.2775   -0.0962 N.pl3   1  LIG1       -0.3540
     23 H          -5.1496   -3.6324   -1.0385 H       1  LIG1        0.1425
     24 H          -4.6375   -4.0171    0.4824 H       1  LIG1        0.1425
@<TRIPOS>BOND
     1    23    22    1
     2    11    10    1
     3    21    20    1
     4    10     3    1
     5    10    12    1
     6     9     8    1
     7    20    14    1
     8    22    15    1
     9    22    24    1
    10    14    15   ar
    11    14    13   ar
    12    15    16   ar
    13     3     2   ar
    14     3     4   ar
    15     8     2    1
    16    13     4    1
    17    13    17   ar
    18     2     1   ar
    19     4     5   ar
    20    16    17   ar
    21    16    19    1
    22    17    18    1
    23     1     5   ar
    24     1     7    1
    25     5     6    1
