@<TRIPOS>MOLECULE
mol_data/opt/m06hf/geoms/mol2/13fh13fh13fh13fh.out
 46 49 0 0 0
SMALL
GASTEIGER

@<TRIPOS>ATOM
      1 C           0.9954    0.5006   -1.6825 C.ar    1  LIG1        0.0461
      2 C           0.8211    1.3982   -0.6629 C.ar    1  LIG1        0.1554
      3 C          -0.4051    1.0977   -0.0089 C.ar    1  LIG1        0.0938
      4 C          -0.9574    0.0178   -0.6621 C.ar    1  LIG1        0.0912
      5 N          -0.0984   -0.3420   -1.6640 N.ar    1  LIG1       -0.3549
      6 H          -0.3355   -0.9811   -2.4044 H       1  LIG1        0.1655
      7 H           1.7866    0.3984   -2.4020 H       1  LIG1        0.0845
      8 O           1.6366    2.4113   -0.2738 O.3     1  LIG1       -0.5035
      9 H           1.1506    2.8664    0.4320 H       1  LIG1        0.2923
     10 N          -0.8681    1.8573    1.1030 N.pl3   1  LIG1       -0.3535
     11 H          -1.8354    2.1391    0.9539 H       1  LIG1        0.1425
     12 H          -0.8369    1.3074    1.9575 H       1  LIG1        0.1425
     13 C          -2.2219   -0.6488   -0.3888 C.ar    1  LIG1        0.1092
     14 C          -3.4214   -0.1171    0.0215 C.ar    1  LIG1        0.1650
     15 C          -4.3524   -1.1724    0.1859 C.ar    1  LIG1        0.0945
     16 C          -3.6978   -2.3430   -0.1414 C.ar    1  LIG1        0.0916
     17 N          -2.4143   -2.0140   -0.4810 N.ar    1  LIG1       -0.3473
     18 H          -1.7130   -2.6629   -0.7977 H       1  LIG1        0.1662
     19 O          -3.7216    1.1902    0.2418 O.3     1  LIG1       -0.5030
     20 H          -4.6732    1.2032    0.4345 H       1  LIG1        0.2923
     21 N          -5.6941   -0.9265    0.5914 N.pl3   1  LIG1       -0.3534
     22 H          -6.3437   -1.3844   -0.0451 H       1  LIG1        0.1425
     23 H          -5.8669   -1.2936    1.5234 H       1  LIG1        0.1425
     24 C          -4.2298   -3.6965   -0.1633 C.ar    1  LIG1        0.1092
     25 C          -5.4777   -4.1384   -0.5354 C.ar    1  LIG1        0.1650
     26 C          -5.5290   -5.5441   -0.3683 C.ar    1  LIG1        0.0945
     27 C          -4.2913   -5.9398    0.0980 C.ar    1  LIG1        0.0916
     28 N          -3.5195   -4.8184    0.2209 N.ar    1  LIG1       -0.3473
     29 H          -2.5610   -4.8084    0.5281 H       1  LIG1        0.1662
     30 O          -6.5179   -3.3993   -1.0013 O.3     1  LIG1       -0.5030
     31 H          -7.1991   -4.0456   -1.2487 H       1  LIG1        0.2923
     32 N          -6.6964   -6.2899   -0.6912 N.pl3   1  LIG1       -0.3534
     33 H          -6.4582   -7.0783   -1.2900 H       1  LIG1        0.1425
     34 H          -7.1381   -6.6581    0.1471 H       1  LIG1        0.1425
     35 C          -3.8300   -7.2901    0.3847 C.ar    1  LIG1        0.1087
     36 C          -4.1110   -8.4615   -0.2741 C.ar    1  LIG1        0.1643
     37 C          -3.4415   -9.5239    0.3884 C.ar    1  LIG1        0.0849
     38 C          -2.7595   -8.9677    1.4480 C.ar    1  LIG1        0.0267
     39 N          -2.9977   -7.6269    1.4343 N.ar    1  LIG1       -0.3549
     40 H          -2.7270   -6.9856    2.1618 H       1  LIG1        0.1655
     41 H          -2.1372   -9.4249    2.1982 H       1  LIG1        0.0827
     42 O          -4.8746   -8.6301   -1.3845 O.3     1  LIG1       -0.5031
     43 H          -4.8184   -9.5769   -1.5924 H       1  LIG1        0.2923
     44 N          -3.5482  -10.8547   -0.1125 N.pl3   1  LIG1       -0.3540
     45 H          -2.6511  -11.2394   -0.3879 H       1  LIG1        0.1425
     46 H          -3.9914  -11.4847    0.5472 H       1  LIG1        0.1425
@<TRIPOS>BOND
     1     6     5    1
     2     7     1    1
     3     1     5   ar
     4     1     2   ar
     5     5     4   ar
     6    43    42    1
     7    42    36    1
     8    33    32    1
     9    31    30    1
    10    30    25    1
    11    18    17    1
    12    32    26    1
    13    32    34    1
    14     2     8    1
    15     2     3   ar
    16     4    13    1
    17     4     3   ar
    18    25    26   ar
    19    25    24   ar
    20    17    13   ar
    21    17    16   ar
    22    13    14   ar
    23    45    44    1
    24    26    27   ar
    25    36    35   ar
    26    36    37   ar
    27     8     9    1
    28    24    16    1
    29    24    28   ar
    30    16    15   ar
    31    44    37    1
    32    44    46    1
    33    22    21    1
    34     3    10    1
    35    14    15   ar
    36    14    19    1
    37    27    28   ar
    38    27    35    1
    39    15    21    1
    40    28    29    1
    41    19    20    1
    42    35    39   ar
    43    37    38   ar
    44    21    23    1
    45    11    10    1
    46    10    12    1
    47    39    38   ar
    48    39    40    1
    49    38    41    1
