@<TRIPOS>MOLECULE
mol_data/opt/m06hf/geoms/mol2/13fh13fh13fh-13fh.out
 46 49 0 0 0
SMALL
GASTEIGER

@<TRIPOS>ATOM
      1 C           1.3041   -0.0778    0.5573 C.ar    1  LIG1        0.0461
      2 C           0.7376    1.1465    0.7953 C.ar    1  LIG1        0.1554
      3 C          -0.6556    1.0530    0.5290 C.ar    1  LIG1        0.0938
      4 C          -0.9018   -0.2400    0.1188 C.ar    1  LIG1        0.0912
      5 N           0.2859   -0.9157    0.1499 N.ar    1  LIG1       -0.3549
      6 H           0.4243   -1.8360   -0.2317 H       1  LIG1        0.1655
      7 H           2.3211   -0.4125    0.6427 H       1  LIG1        0.0845
      8 O           1.3311    2.2886    1.2250 O.3     1  LIG1       -0.5035
      9 H           0.6241    2.9536    1.2234 H       1  LIG1        0.2923
     10 N          -1.5236    2.1675    0.7031 N.pl3   1  LIG1       -0.3535
     11 H          -2.1051    2.2996   -0.1214 H       1  LIG1        0.1425
     12 H          -2.1410    2.0294    1.4987 H       1  LIG1        0.1425
     13 C          -2.1654   -0.8339   -0.2889 C.ar    1  LIG1        0.1092
     14 C          -3.2328   -0.2658   -0.9388 C.ar    1  LIG1        0.1650
     15 C          -4.2529   -1.2446   -1.0803 C.ar    1  LIG1        0.0945
     16 C          -3.7794   -2.4075   -0.5079 C.ar    1  LIG1        0.0916
     17 N          -2.5118   -2.1516   -0.0484 N.ar    1  LIG1       -0.3473
     18 H          -2.0460   -2.7415    0.6258 H       1  LIG1        0.1662
     19 O          -3.3317    0.9939   -1.4372 O.3     1  LIG1       -0.5030
     20 H          -4.1447    1.0003   -1.9677 H       1  LIG1        0.2923
     21 N          -5.4457   -0.9556   -1.8020 N.pl3   1  LIG1       -0.3534
     22 H          -5.6664   -1.6815   -2.4768 H       1  LIG1        0.1425
     23 H          -6.2473   -0.8192   -1.1940 H       1  LIG1        0.1425
     24 C          -4.3666   -3.7350   -0.4067 C.ar    1  LIG1        0.1092
     25 C          -3.7656   -4.9622   -0.5962 C.ar    1  LIG1        0.1650
     26 C          -4.7510   -5.9691   -0.4252 C.ar    1  LIG1        0.0945
     27 C          -5.9332   -5.3116   -0.1434 C.ar    1  LIG1        0.0916
     28 N          -5.6947   -3.9759   -0.1399 N.ar    1  LIG1       -0.3473
     29 H          -6.3951   -3.2886    0.1025 H       1  LIG1        0.1662
     30 O          -2.4575   -5.2073   -0.9121 O.3     1  LIG1       -0.5030
     31 H          -2.0961   -4.4261   -1.3494 H       1  LIG1        0.2923
     32 N          -4.6241   -7.3900   -0.5234 N.pl3   1  LIG1       -0.3534
     33 H          -4.2317   -7.6437   -1.4266 H       1  LIG1        0.1425
     34 H          -3.9824   -7.7349    0.1863 H       1  LIG1        0.1425
     35 C          -7.2514   -5.8497    0.1164 C.ar    1  LIG1        0.1087
     36 C          -8.4275   -5.2059    0.4108 C.ar    1  LIG1        0.1643
     37 C          -9.4379   -6.1833    0.5742 C.ar    1  LIG1        0.0849
     38 C          -8.8359   -7.4125    0.3702 C.ar    1  LIG1        0.0267
     39 N          -7.5247   -7.1928    0.0966 N.ar    1  LIG1       -0.3549
     40 H          -6.7916   -7.8623   -0.1115 H       1  LIG1        0.1655
     41 H          -9.2500   -8.4053    0.4028 H       1  LIG1        0.0827
     42 O          -8.6110   -3.8602    0.5327 O.3     1  LIG1       -0.5031
     43 H          -9.5476   -3.7476    0.7599 H       1  LIG1        0.2923
     44 N         -10.7716   -5.7880    0.8932 N.pl3   1  LIG1       -0.3540
     45 H         -11.4356   -6.0526    0.1736 H       1  LIG1        0.1425
     46 H         -11.0830   -6.1631    1.7825 H       1  LIG1        0.1425
@<TRIPOS>BOND
     1    22    21    1
     2    20    19    1
     3    21    23    1
     4    21    15    1
     5    19    14    1
     6    33    32    1
     7    31    30    1
     8    15    14   ar
     9    15    16   ar
    10    14    13   ar
    11    30    25    1
    12    25    26   ar
    13    25    24   ar
    14    32    26    1
    15    32    34    1
    16    16    24    1
    17    16    17   ar
    18    26    27   ar
    19    24    28   ar
    20    13    17   ar
    21    13     4    1
    22     6     5    1
    23    27    28   ar
    24    27    35    1
    25    28    29    1
    26    11    10    1
    27    40    39    1
    28    17    18    1
    29    39    35   ar
    30    39    38   ar
    31    35    36   ar
    32     4     5   ar
    33     4     3   ar
    34     5     1   ar
    35    45    44    1
    36    38    41    1
    37    38    37   ar
    38    36    42    1
    39    36    37   ar
    40     3    10    1
    41     3     2   ar
    42    42    43    1
    43     1     7    1
    44     1     2   ar
    45    37    44    1
    46    10    12    1
    47     2     8    1
    48    44    46    1
    49     9     8    1
