@<TRIPOS>MOLECULE
mol_data/opt/m06hf/geoms/mol2/13fh13fh-13fh13fh-.out
 46 49 0 0 0
SMALL
GASTEIGER

@<TRIPOS>ATOM
      1 C          -6.4465   -0.8214   -0.0713 C.ar    1  LIG1        0.0461
      2 C          -6.2791    0.5383   -0.0167 C.ar    1  LIG1        0.1554
      3 C          -4.8865    0.8155    0.0112 C.ar    1  LIG1        0.0938
      4 C          -4.2357   -0.4060   -0.0260 C.ar    1  LIG1        0.0912
      5 N          -5.1872   -1.3749   -0.0761 N.ar    1  LIG1       -0.3549
      6 H          -4.9567   -2.3571   -0.1101 H       1  LIG1        0.1655
      7 H          -7.3389   -1.4181   -0.1087 H       1  LIG1        0.0845
      8 O          -7.2318    1.5072    0.0072 O.3     1  LIG1       -0.5035
      9 H          -6.7426    2.3425    0.0594 H       1  LIG1        0.2923
     10 N          -4.4053    2.1565    0.0731 N.pl3   1  LIG1       -0.3535
     11 H          -3.8663    2.3597    0.9083 H       1  LIG1        0.1425
     12 H          -3.8962    2.4475   -0.7550 H       1  LIG1        0.1425
     13 C          -2.8222   -0.7395   -0.0132 C.ar    1  LIG1        0.1092
     14 C          -2.2093   -1.9720   -0.0123 C.ar    1  LIG1        0.1650
     15 C          -0.8008   -1.7741    0.0033 C.ar    1  LIG1        0.0945
     16 C          -0.6054   -0.4066    0.0109 C.ar    1  LIG1        0.0916
     17 N          -1.8209    0.1986   -0.0019 N.ar    1  LIG1       -0.3473
     18 H          -1.9438    1.2009   -0.0074 H       1  LIG1        0.1662
     19 O          -2.8898   -3.1659   -0.0605 O.3     1  LIG1       -0.5030
     20 H          -2.3585   -3.8508    0.3595 H       1  LIG1        0.2923
     21 N           0.2559   -2.7340    0.0107 N.pl3   1  LIG1       -0.3534
     22 H           0.2916   -3.2729    0.8706 H       1  LIG1        0.1425
     23 H           0.2079   -3.3646   -0.7834 H       1  LIG1        0.1425
     24 C           0.6171    0.3661    0.0162 C.ar    1  LIG1        0.1092
     25 C           0.7837    1.7311    0.0298 C.ar    1  LIG1        0.1650
     26 C           2.1685    2.0110    0.0105 C.ar    1  LIG1        0.0945
     27 C           2.8188    0.7815   -0.0134 C.ar    1  LIG1        0.0916
     28 N           1.8689   -0.1878   -0.0093 N.ar    1  LIG1       -0.3473
     29 H           2.0394   -1.1889   -0.0404 H       1  LIG1        0.1662
     30 O          -0.2106    2.6660    0.0545 O.3     1  LIG1       -0.5030
     31 H           0.2345    3.5267    0.0726 H       1  LIG1        0.2923
     32 N           2.6450    3.3539    0.0252 N.pl3   1  LIG1       -0.3534
     33 H           3.2048    3.5861    0.8382 H       1  LIG1        0.1425
     34 H           3.1043    3.6411   -0.8318 H       1  LIG1        0.1425
     35 C           4.2320    0.4405   -0.0278 C.ar    1  LIG1        0.1087
     36 C           4.8312   -0.7961    0.0257 C.ar    1  LIG1        0.1643
     37 C           6.2433   -0.6167   -0.0342 C.ar    1  LIG1        0.0849
     38 C           6.4567    0.7383   -0.1207 C.ar    1  LIG1        0.0267
     39 N           5.2435    1.3622   -0.1126 N.ar    1  LIG1       -0.3549
     40 H           5.0887    2.3528   -0.1867 H       1  LIG1        0.1655
     41 H           7.3842    1.2779   -0.1940 H       1  LIG1        0.0827
     42 O           4.1505   -1.9919    0.0651 O.3     1  LIG1       -0.5031
     43 H           4.4780   -2.5171    0.8043 H       1  LIG1        0.2923
     44 N           7.2492   -1.6225   -0.0203 N.pl3   1  LIG1       -0.3540
     45 H           7.4502   -1.9544    0.9174 H       1  LIG1        0.1425
     46 H           6.9803   -2.4116   -0.5992 H       1  LIG1        0.1425
@<TRIPOS>BOND
     1    34    32    1
     2    23    21    1
     3    12    10    1
     4    46    44    1
     5    41    38    1
     6    40    39    1
     7    38    39   ar
     8    38    37   ar
     9    39    35   ar
    10     6     5    1
    11     7     1    1
    12     5     1   ar
    13     5     4   ar
    14     1     2   ar
    15    19    14    1
    16    19    20    1
    17    29    28    1
    18    37    44    1
    19    37    36   ar
    20    35    27    1
    21    35    36   ar
    22     4    13    1
    23     4     3   ar
    24    44    45    1
    25     2     8    1
    26     2     3   ar
    27    27    28   ar
    28    27    26   ar
    29    13    14   ar
    30    13    17   ar
    31    14    15   ar
    32    28    24   ar
    33    18    17    1
    34    17    16   ar
    35    15    21    1
    36    15    16   ar
    37     8     9    1
    38    26    32    1
    39    26    25   ar
    40    21    22    1
    41    16    24    1
    42     3    10    1
    43    24    25   ar
    44    32    33    1
    45    36    42    1
    46    25    30    1
    47    30    31    1
    48    42    43    1
    49    10    11    1
