@<TRIPOS>MOLECULE
mol_data/opt/m06hf/geoms/mol2/13fh13fh13fh-13fh-.out
 46 49 0 0 0
SMALL
GASTEIGER

@<TRIPOS>ATOM
      1 C           1.2829   -0.2559    0.7458 C.ar    1  LIG1        0.0461
      2 C           0.7781    0.9913    1.0024 C.ar    1  LIG1        0.1554
      3 C          -0.6107    0.9823    0.6985 C.ar    1  LIG1        0.0938
      4 C          -0.9153   -0.2844    0.2468 C.ar    1  LIG1        0.0912
      5 N           0.2326   -1.0254    0.2899 N.ar    1  LIG1       -0.3549
      6 H           0.3326   -1.9407   -0.1152 H       1  LIG1        0.1655
      7 H           2.2784   -0.6463    0.8459 H       1  LIG1        0.0845
      8 O           1.4246    2.0858    1.4757 O.3     1  LIG1       -0.5035
      9 H           0.7624    2.7951    1.4654 H       1  LIG1        0.2923
     10 N          -1.4188    2.1393    0.8792 N.pl3   1  LIG1       -0.3535
     11 H          -1.9841    2.3142    0.0515 H       1  LIG1        0.1425
     12 H          -2.0471    2.0291    1.6705 H       1  LIG1        0.1425
     13 C          -2.1928   -0.8007   -0.2208 C.ar    1  LIG1        0.1092
     14 C          -3.2107   -0.1619   -0.8858 C.ar    1  LIG1        0.1650
     15 C          -4.2582   -1.0935   -1.1159 C.ar    1  LIG1        0.0945
     16 C          -3.8529   -2.2992   -0.5797 C.ar    1  LIG1        0.0916
     17 N          -2.5981   -2.1112   -0.0552 N.ar    1  LIG1       -0.3473
     18 H          -2.1793   -2.7515    0.6036 H       1  LIG1        0.1662
     19 O          -3.2365    1.1225   -1.3263 O.3     1  LIG1       -0.5030
     20 H          -4.0049    1.1868   -1.9151 H       1  LIG1        0.2923
     21 N          -5.4018   -0.7320   -1.8829 N.pl3   1  LIG1       -0.3534
     22 H          -5.6173   -1.4283   -2.5894 H       1  LIG1        0.1425
     23 H          -6.2243   -0.5789   -1.3085 H       1  LIG1        0.1425
     24 C          -4.4808   -3.6137   -0.5649 C.ar    1  LIG1        0.1092
     25 C          -3.9250   -4.8323   -0.8752 C.ar    1  LIG1        0.1650
     26 C          -4.9197   -5.8288   -0.7040 C.ar    1  LIG1        0.0945
     27 C          -6.0700   -5.1866   -0.2905 C.ar    1  LIG1        0.0916
     28 N          -5.8017   -3.8482   -0.2357 N.ar    1  LIG1       -0.3473
     29 H          -6.3825   -3.1740    0.2367 H       1  LIG1        0.1662
     30 O          -2.6547   -5.0967   -1.2962 O.3     1  LIG1       -0.5030
     31 H          -2.2442   -4.2735   -1.5897 H       1  LIG1        0.2923
     32 N          -4.7980   -7.2351   -0.9252 N.pl3   1  LIG1       -0.3534
     33 H          -5.0605   -7.4834   -1.8768 H       1  LIG1        0.1425
     34 H          -3.8360   -7.5291   -0.7777 H       1  LIG1        0.1425
     35 C          -7.3503   -5.7762    0.0582 C.ar    1  LIG1        0.1087
     36 C          -7.6044   -7.0396    0.5510 C.ar    1  LIG1        0.1643
     37 C          -9.0106   -7.1385    0.7781 C.ar    1  LIG1        0.0849
     38 C          -9.5601   -5.9344    0.4135 C.ar    1  LIG1        0.0267
     39 N          -8.5579   -5.1072   -0.0034 N.ar    1  LIG1       -0.3549
     40 H          -8.7012   -4.2347   -0.4828 H       1  LIG1        0.1655
     41 H         -10.5915   -5.6283    0.4208 H       1  LIG1        0.0827
     42 O          -6.7276   -8.0334    0.8066 O.3     1  LIG1       -0.5031
     43 H          -5.9293   -7.9007    0.2291 H       1  LIG1        0.2923
     44 N          -9.7161   -8.2613    1.2948 N.pl3   1  LIG1       -0.3540
     45 H          -9.3272   -9.1103    0.8933 H       1  LIG1        0.1425
     46 H          -9.5807   -8.3268    2.3005 H       1  LIG1        0.1425
@<TRIPOS>BOND
     1    22    21    1
     2    20    19    1
     3    21    23    1
     4    21    15    1
     5    33    32    1
     6    31    30    1
     7    19    14    1
     8    30    25    1
     9    15    14   ar
    10    15    16   ar
    11    32    34    1
    12    32    26    1
    13    14    13   ar
    14    25    26   ar
    15    25    24   ar
    16    26    27   ar
    17    16    24    1
    18    16    17   ar
    19    24    28   ar
    20    40    39    1
    21    27    28   ar
    22    27    35    1
    23    28    29    1
    24    13    17   ar
    25    13     4    1
    26     6     5    1
    27    17    18    1
    28    39    35   ar
    29    39    38   ar
    30    11    10    1
    31    35    36   ar
    32    43    42    1
    33     4     5   ar
    34     4     3   ar
    35     5     1   ar
    36    38    41    1
    37    38    37   ar
    38    36    37   ar
    39    36    42    1
    40     3    10    1
    41     3     2   ar
    42     1     7    1
    43     1     2   ar
    44    37    44    1
    45    10    12    1
    46    45    44    1
    47     2     8    1
    48    44    46    1
    49     9     8    1
