@<TRIPOS>MOLECULE
mol_data/opt/m06hf/geoms/mol2/13fh13fh13fh13fh-.out
 46 49 0 0 0
SMALL
GASTEIGER

@<TRIPOS>ATOM
      1 C           0.9605    0.5042   -1.6139 C.ar    1  LIG1        0.0461
      2 C           0.8176    1.3199   -0.5233 C.ar    1  LIG1        0.1554
      3 C          -0.4068    0.9927    0.1211 C.ar    1  LIG1        0.0938
      4 C          -0.9891   -0.0203   -0.6082 C.ar    1  LIG1        0.0912
      5 N          -0.1499   -0.3162   -1.6473 N.ar    1  LIG1       -0.3549
      6 H          -0.4125   -0.8842   -2.4355 H       1  LIG1        0.1655
      7 H           1.7406    0.4442   -2.3498 H       1  LIG1        0.0845
      8 O           1.6589    2.2819   -0.0650 O.3     1  LIG1       -0.5035
      9 H           1.1956    2.6798    0.6892 H       1  LIG1        0.2923
     10 N          -0.8381    1.6682    1.2979 N.pl3   1  LIG1       -0.3535
     11 H          -1.8042    1.9732    1.1921 H       1  LIG1        0.1425
     12 H          -0.7963    1.0536    2.1066 H       1  LIG1        0.1425
     13 C          -2.2660   -0.6785   -0.3755 C.ar    1  LIG1        0.1092
     14 C          -3.4504   -0.1526    0.0831 C.ar    1  LIG1        0.1650
     15 C          -4.4033   -1.1966    0.1790 C.ar    1  LIG1        0.0945
     16 C          -3.7759   -2.3532   -0.2404 C.ar    1  LIG1        0.0916
     17 N          -2.4895   -2.0279   -0.5686 N.ar    1  LIG1       -0.3473
     18 H          -1.7963   -2.6746   -0.9076 H       1  LIG1        0.1662
     19 O          -3.7166    1.1415    0.4042 O.3     1  LIG1       -0.5030
     20 H          -4.6670    1.1646    0.6005 H       1  LIG1        0.2923
     21 N          -5.7339   -0.9549    0.6224 N.pl3   1  LIG1       -0.3534
     22 H          -6.4014   -1.3816   -0.0172 H       1  LIG1        0.1425
     23 H          -5.8881   -1.3591    1.5425 H       1  LIG1        0.1425
     24 C          -4.3305   -3.6936   -0.3444 C.ar    1  LIG1        0.1092
     25 C          -5.5983   -4.0935   -0.6951 C.ar    1  LIG1        0.1650
     26 C          -5.6603   -5.5087   -0.6325 C.ar    1  LIG1        0.0945
     27 C          -4.4045   -5.9455   -0.2411 C.ar    1  LIG1        0.0916
     28 N          -3.6225   -4.8457   -0.0744 N.ar    1  LIG1       -0.3473
     29 H          -2.6878   -4.8961    0.3078 H       1  LIG1        0.1662
     30 O          -6.6439   -3.3086   -1.0689 O.3     1  LIG1       -0.5030
     31 H          -7.3715   -3.9198   -1.2640 H       1  LIG1        0.2923
     32 N          -6.8601   -6.2003   -0.9640 N.pl3   1  LIG1       -0.3534
     33 H          -6.7926   -6.7813   -1.7918 H       1  LIG1        0.1425
     34 H          -7.2802   -6.7034   -0.1906 H       1  LIG1        0.1425
     35 C          -3.8675   -7.2712    0.0117 C.ar    1  LIG1        0.1087
     36 C          -2.6117   -7.6265    0.4403 C.ar    1  LIG1        0.1643
     37 C          -2.5566   -9.0445    0.5542 C.ar    1  LIG1        0.0849
     38 C          -3.7987   -9.5088    0.1848 C.ar    1  LIG1        0.0267
     39 N          -4.5750   -8.4402   -0.1379 N.ar    1  LIG1       -0.3549
     40 H          -5.5312   -8.4781   -0.4452 H       1  LIG1        0.1655
     41 H          -4.1561  -10.5223    0.1345 H       1  LIG1        0.0827
     42 O          -1.6063   -6.7311    0.6955 O.3     1  LIG1       -0.5031
     43 H          -0.8682   -7.1992    1.1015 H       1  LIG1        0.2923
     44 N          -1.4561   -9.8447    0.9636 N.pl3   1  LIG1       -0.3540
     45 H          -0.6417   -9.7447    0.3683 H       1  LIG1        0.1425
     46 H          -1.2031   -9.7221    1.9375 H       1  LIG1        0.1425
@<TRIPOS>BOND
     1     6     5    1
     2     7     1    1
     3    33    32    1
     4     5     1   ar
     5     5     4   ar
     6     1     2   ar
     7    31    30    1
     8    30    25    1
     9    32    26    1
    10    32    34    1
    11    18    17    1
    12    25    26   ar
    13    25    24   ar
    14    26    27   ar
    15     4    13    1
    16     4     3   ar
    17    17    13   ar
    18    17    16   ar
    19     2     8    1
    20     2     3   ar
    21    40    39    1
    22    13    14   ar
    23    24    16    1
    24    24    28   ar
    25    27    28   ar
    26    27    35    1
    27    16    15   ar
    28    39    35   ar
    29    39    38   ar
    30    28    29    1
    31     8     9    1
    32    22    21    1
    33    35    36   ar
    34    14    15   ar
    35    14    19    1
    36     3    10    1
    37    41    38    1
    38    15    21    1
    39    38    37   ar
    40    45    44    1
    41    19    20    1
    42    36    37   ar
    43    36    42    1
    44    37    44    1
    45    21    23    1
    46    42    43    1
    47    44    46    1
    48    11    10    1
    49    10    12    1
