@<TRIPOS>MOLECULE
mol_data/opt/m06hf/geoms/mol2/13fh13fh13fh.out
 35 37 0 0 0
SMALL
GASTEIGER

@<TRIPOS>ATOM
      1 C           1.2693   -0.0013   -0.9515 C.ar    1  LIG1        0.0461
      2 C           0.9120    1.1035   -0.2251 C.ar    1  LIG1        0.1554
      3 C          -0.4480    0.9605    0.1645 C.ar    1  LIG1        0.0938
      4 C          -0.8912   -0.2383   -0.3493 C.ar    1  LIG1        0.0912
      5 N           0.1567   -0.8166   -1.0117 N.ar    1  LIG1       -0.3549
      6 H           0.0634   -1.6034   -1.6322 H       1  LIG1        0.1655
      7 H           2.1996   -0.2666   -1.4183 H       1  LIG1        0.0845
      8 O           1.6698    2.1764    0.1172 O.3     1  LIG1       -0.5035
      9 H           1.0574    2.7839    0.5613 H       1  LIG1        0.2923
     10 N          -1.1135    1.9516    0.9402 N.pl3   1  LIG1       -0.3535
     11 H          -2.0094    2.1878    0.5181 H       1  LIG1        0.1425
     12 H          -1.2937    1.6161    1.8826 H       1  LIG1        0.1425
     13 C          -2.2195   -0.8245   -0.2527 C.ar    1  LIG1        0.1092
     14 C          -3.4503   -0.2133   -0.2800 C.ar    1  LIG1        0.1650
     15 C          -4.4521   -1.2038   -0.1273 C.ar    1  LIG1        0.0945
     16 C          -3.8042   -2.4178   -0.0197 C.ar    1  LIG1        0.0916
     17 N          -2.4604   -2.1754   -0.0930 N.ar    1  LIG1       -0.3473
     18 H          -1.7407   -2.8790   -0.0656 H       1  LIG1        0.1662
     19 O          -3.7171    1.1107   -0.4335 O.3     1  LIG1       -0.5030
     20 H          -4.6829    1.1691   -0.5153 H       1  LIG1        0.2923
     21 N          -5.8361   -0.8739   -0.1359 N.pl3   1  LIG1       -0.3534
     22 H          -6.3436   -1.4954   -0.7630 H       1  LIG1        0.1425
     23 H          -6.2409   -0.9697    0.7915 H       1  LIG1        0.1425
     24 C          -4.3898   -3.7428    0.1200 C.ar    1  LIG1        0.1087
     25 C          -5.5361   -4.2548   -0.4353 C.ar    1  LIG1        0.1643
     26 C          -5.6984   -5.5917    0.0157 C.ar    1  LIG1        0.0849
     27 C          -4.6329   -5.8661    0.8445 C.ar    1  LIG1        0.0267
     28 N          -3.8536   -4.7507    0.8969 N.ar    1  LIG1       -0.3549
     29 H          -3.0750   -4.6194    1.5216 H       1  LIG1        0.1655
     30 H          -4.3814   -6.7583    1.3919 H       1  LIG1        0.0827
     31 O          -6.3956   -3.6384   -1.2885 O.3     1  LIG1       -0.5031
     32 H          -7.0738   -4.3021   -1.4947 H       1  LIG1        0.2923
     33 N          -6.8103   -6.3652   -0.4313 N.pl3   1  LIG1       -0.3540
     34 H          -6.5258   -7.1837   -0.9581 H       1  LIG1        0.1425
     35 H          -7.4113   -6.6554    0.3325 H       1  LIG1        0.1425
@<TRIPOS>BOND
     1     6     5    1
     2    32    31    1
     3     7     1    1
     4    31    25    1
     5     5     1   ar
     6     5     4   ar
     7    34    33    1
     8     1     2   ar
     9    22    21    1
    10    20    19    1
    11    25    26   ar
    12    25    24   ar
    13    19    14    1
    14    33    26    1
    15    33    35    1
    16     4    13    1
    17     4     3   ar
    18    14    13   ar
    19    14    15   ar
    20    13    17   ar
    21     2     8    1
    22     2     3   ar
    23    21    15    1
    24    21    23    1
    25    15    16   ar
    26    17    18    1
    27    17    16   ar
    28    16    24    1
    29    26    27   ar
    30     8     9    1
    31    24    28   ar
    32     3    10    1
    33    11    10    1
    34    27    28   ar
    35    27    30    1
    36    28    29    1
    37    10    12    1
