@<TRIPOS>MOLECULE
mol_data/opt/m06hf/geoms/mol2/13fh13fh-13fh.out
 35 37 0 0 0
SMALL
GASTEIGER

@<TRIPOS>ATOM
      1 C           1.1963   -0.2603    0.7490 C.ar    1  LIG1        0.0461
      2 C           0.9584    0.9148    0.0859 C.ar    1  LIG1        0.1554
      3 C          -0.4126    0.9460   -0.2913 C.ar    1  LIG1        0.0938
      4 C          -0.9826   -0.2291    0.1587 C.ar    1  LIG1        0.0912
      5 N           0.0038   -0.9488    0.7739 N.ar    1  LIG1       -0.3549
      6 H          -0.1749   -1.7954    1.2907 H       1  LIG1        0.1655
      7 H           2.0961   -0.6514    1.1859 H       1  LIG1        0.0845
      8 O           1.8373    1.9030   -0.2179 O.3     1  LIG1       -0.5035
      9 H           1.3514    2.5109   -0.7968 H       1  LIG1        0.2923
     10 N          -0.9405    2.0257   -1.0567 N.pl3   1  LIG1       -0.3535
     11 H          -1.4765    1.7022   -1.8556 H       1  LIG1        0.1425
     12 H          -1.5165    2.6542   -0.5055 H       1  LIG1        0.1425
     13 C          -2.3287   -0.7680    0.0203 C.ar    1  LIG1        0.1092
     14 C          -2.7159   -2.0705   -0.2140 C.ar    1  LIG1        0.1650
     15 C          -4.1333   -2.1078   -0.2770 C.ar    1  LIG1        0.0945
     16 C          -4.5647   -0.8094   -0.0872 C.ar    1  LIG1        0.0916
     17 N          -3.4772   -0.0147    0.0831 N.ar    1  LIG1       -0.3473
     18 H          -3.5371    0.9721    0.2920 H       1  LIG1        0.1662
     19 O          -1.9055   -3.1653   -0.3677 O.3     1  LIG1       -0.5030
     20 H          -1.0780   -2.8819   -0.7769 H       1  LIG1        0.2923
     21 N          -5.0026   -3.2221   -0.4990 N.pl3   1  LIG1       -0.3534
     22 H          -4.7638   -3.6813   -1.3742 H       1  LIG1        0.1425
     23 H          -4.8844   -3.9109    0.2399 H       1  LIG1        0.1425
     24 C          -5.9123   -0.2808   -0.0563 C.ar    1  LIG1        0.1087
     25 C          -6.3600    1.0028    0.1358 C.ar    1  LIG1        0.1643
     26 C          -7.7741    0.9905    0.0781 C.ar    1  LIG1        0.0849
     27 C          -8.1498   -0.3210   -0.1524 C.ar    1  LIG1        0.0267
     28 N          -7.0200   -1.0694   -0.2297 N.ar    1  LIG1       -0.3549
     29 H          -6.9185   -2.0653   -0.3969 H       1  LIG1        0.1655
     30 H          -9.1278   -0.7570   -0.2629 H       1  LIG1        0.0827
     31 O          -5.5910    2.1092    0.3468 O.3     1  LIG1       -0.5031
     32 H          -6.2158    2.8429    0.4590 H       1  LIG1        0.2923
     33 N          -8.5120    2.2006    0.2515 N.pl3   1  LIG1       -0.3540
     34 H          -9.0604    2.4360   -0.5689 H       1  LIG1        0.1425
     35 H          -9.1281    2.1608    1.0566 H       1  LIG1        0.1425
@<TRIPOS>BOND
     1    11    10    1
     2    22    21    1
     3    10    12    1
     4    10     3    1
     5     9     8    1
     6    20    19    1
     7    34    33    1
     8    21    15    1
     9    21    23    1
    10    29    28    1
    11    19    14    1
    12     3     2   ar
    13     3     4   ar
    14    15    14   ar
    15    15    16   ar
    16    30    27    1
    17    28    27   ar
    18    28    24   ar
    19     8     2    1
    20    14    13   ar
    21    27    26   ar
    22    16    24    1
    23    16    17   ar
    24    24    25   ar
    25    13    17   ar
    26    13     4    1
    27    26    25   ar
    28    26    33    1
    29    17    18    1
    30     2     1   ar
    31    25    31    1
    32     4     5   ar
    33    33    35    1
    34    31    32    1
    35     1     5   ar
    36     1     7    1
    37     5     6    1
