@<TRIPOS>MOLECULE
mol_data/opt/m06hf/geoms/mol2/13fh13fh-13fh-13fh-.out
 46 49 0 0 0
SMALL
GASTEIGER

@<TRIPOS>ATOM
      1 C           1.1332   -0.4288    1.4764 C.ar    1  LIG1        0.0461
      2 C           1.2043    0.5917    0.5618 C.ar    1  LIG1        0.1554
      3 C          -0.0338    0.6546   -0.1298 C.ar    1  LIG1        0.0938
      4 C          -0.8429   -0.3382    0.3905 C.ar    1  LIG1        0.0912
      5 N          -0.1168   -0.9856    1.3520 N.ar    1  LIG1       -0.3549
      6 H          -0.5071   -1.6932    1.9541 H       1  LIG1        0.1655
      7 H           1.8584   -0.7913    2.1813 H       1  LIG1        0.0845
      8 O           2.2525    1.4101    0.2990 O.3     1  LIG1       -0.5035
      9 H           1.9814    1.9469   -0.4612 H       1  LIG1        0.2923
     10 N          -0.2377    1.5823   -1.1923 N.pl3   1  LIG1       -0.3535
     11 H          -0.5382    1.1175   -2.0434 H       1  LIG1        0.1425
     12 H          -0.9206    2.2939   -0.9557 H       1  LIG1        0.1425
     13 C          -2.1988   -0.7545    0.0379 C.ar    1  LIG1        0.1092
     14 C          -2.6380   -1.9703   -0.4272 C.ar    1  LIG1        0.1650
     15 C          -4.0408   -1.8900   -0.6214 C.ar    1  LIG1        0.0945
     16 C          -4.4281   -0.6124   -0.2673 C.ar    1  LIG1        0.0916
     17 N          -3.3063    0.0701    0.1072 N.ar    1  LIG1       -0.3473
     18 H          -3.3086    0.9432    0.6097 H       1  LIG1        0.1662
     19 O          -1.9100   -3.0890   -0.6968 O.3     1  LIG1       -0.5030
     20 H          -0.9706   -2.8889   -0.5973 H       1  LIG1        0.2923
     21 N          -4.9153   -2.9137   -1.1025 N.pl3   1  LIG1       -0.3534
     22 H          -5.0033   -2.8785   -2.1165 H       1  LIG1        0.1425
     23 H          -4.5452   -3.8281   -0.8539 H       1  LIG1        0.1425
     24 C          -5.7706   -0.0603   -0.2410 C.ar    1  LIG1        0.1092
     25 C          -6.9651   -0.7330   -0.0718 C.ar    1  LIG1        0.1650
     26 C          -8.0002    0.2382   -0.0611 C.ar    1  LIG1        0.0945
     27 C          -7.4167    1.4788   -0.2211 C.ar    1  LIG1        0.0916
     28 N          -6.0708    1.2862   -0.3439 N.ar    1  LIG1       -0.3473
     29 H          -5.3996    2.0255   -0.4633 H       1  LIG1        0.1662
     30 O          -7.1736   -2.0564    0.0849 O.3     1  LIG1       -0.5030
     31 H          -6.4041   -2.5432   -0.3252 H       1  LIG1        0.2923
     32 N          -9.4001    0.0016    0.1050 N.pl3   1  LIG1       -0.3534
     33 H          -9.8609   -0.1154   -0.7952 H       1  LIG1        0.1425
     34 H          -9.5340   -0.8564    0.6355 H       1  LIG1        0.1425
     35 C          -8.0665    2.7779   -0.2463 C.ar    1  LIG1        0.1087
     36 C          -9.2358    3.1549    0.3804 C.ar    1  LIG1        0.1643
     37 C          -9.4491    4.5393    0.0978 C.ar    1  LIG1        0.0849
     38 C          -8.4061    4.9518   -0.6925 C.ar    1  LIG1        0.0267
     39 N          -7.5623    3.8955   -0.8858 N.ar    1  LIG1       -0.3549
     40 H          -6.8345    3.8733   -1.5802 H       1  LIG1        0.1655
     41 H          -8.2245    5.9193   -1.1267 H       1  LIG1        0.0827
     42 O         -10.0564    2.4056    1.1457 O.3     1  LIG1       -0.5031
     43 H          -9.9403    1.4501    0.8835 H       1  LIG1        0.2923
     44 N         -10.5267    5.3500    0.5558 N.pl3   1  LIG1       -0.3540
     45 H         -11.3937    4.8259    0.4672 H       1  LIG1        0.1425
     46 H         -10.4114    5.5508    1.5460 H       1  LIG1        0.1425
@<TRIPOS>BOND
     1    22    21    1
     2    11    10    1
     3    40    39    1
     4    10    12    1
     5    10     3    1
     6    41    38    1
     7    21    23    1
     8    21    15    1
     9    39    38   ar
    10    39    35   ar
    11    33    32    1
    12    19    20    1
    13    19    14    1
    14    38    37   ar
    15    15    14   ar
    16    15    16   ar
    17    29    28    1
    18     9     8    1
    19    14    13   ar
    20    28    24   ar
    21    28    27   ar
    22    31    30    1
    23    16    24    1
    24    16    17   ar
    25    35    27    1
    26    35    36   ar
    27    24    25   ar
    28    27    26   ar
    29     3     4   ar
    30     3     2   ar
    31    25    26   ar
    32    25    30    1
    33    26    32    1
    34    13    17   ar
    35    13     4    1
    36    37    36   ar
    37    37    44    1
    38    32    34    1
    39    17    18    1
    40     8     2    1
    41    36    42    1
    42     4     5   ar
    43    45    44    1
    44    44    46    1
    45     2     1   ar
    46    43    42    1
    47     5     1   ar
    48     5     6    1
    49     1     7    1
