@<TRIPOS>MOLECULE
mol_data/opt/m06hf/geoms/mol2/13fh13fh-4fh13fh.out
 48 51 0 0 0
SMALL
GASTEIGER

@<TRIPOS>ATOM
      1 C           1.3590   -0.3517    0.4855 C.ar    1  LIG1        0.0461
      2 C           1.0037    0.9606    0.3040 C.ar    1  LIG1        0.1554
      3 C          -0.4001    1.0175    0.0988 C.ar    1  LIG1        0.0938
      4 C          -0.8652   -0.2840    0.1580 C.ar    1  LIG1        0.0912
      5 N           0.2042   -1.0919    0.3879 N.ar    1  LIG1       -0.3549
      6 H           0.1123   -2.0912    0.4988 H       1  LIG1        0.1655
      7 H           2.3172   -0.8003    0.6699 H       1  LIG1        0.0845
      8 O           1.8055    2.0575    0.3005 O.3     1  LIG1       -0.5035
      9 H           1.2252    2.7996    0.0724 H       1  LIG1        0.2923
     10 N          -1.0657    2.2563   -0.1378 N.pl3   1  LIG1       -0.3535
     11 H          -1.6105    2.2592   -0.9941 H       1  LIG1        0.1425
     12 H          -1.6441    2.5548    0.6413 H       1  LIG1        0.1425
     13 C          -2.2013   -0.8325    0.0004 C.ar    1  LIG1        0.1091
     14 C          -2.5976   -2.1414   -0.1790 C.ar    1  LIG1        0.1650
     15 C          -4.0092   -2.1725   -0.2824 C.ar    1  LIG1        0.0931
     16 C          -4.4459   -0.8585   -0.1692 C.ar    1  LIG1        0.0751
     17 N          -3.3307   -0.0791   -0.0104 N.ar    1  LIG1       -0.3485
     18 H          -3.3772    0.9249    0.0726 H       1  LIG1        0.1661
     19 O          -1.7582   -3.2409   -0.2045 O.3     1  LIG1       -0.5030
     20 H          -1.5396   -3.4430   -1.1229 H       1  LIG1        0.2923
     21 N          -4.8003   -3.3419   -0.4532 N.pl3   1  LIG1       -0.3535
     22 H          -5.0804   -3.4602   -1.4236 H       1  LIG1        0.1425
     23 H          -4.2614   -4.1553   -0.1709 H       1  LIG1        0.1425
     24 C          -6.0664    1.0742   -0.2833 C.ar    1  LIG1        0.1267
     25 C          -7.3623    1.5630   -0.2523 C.ar    1  LIG1       -0.0085
     26 C          -5.8055   -0.2988   -0.1665 C.ar    1  LIG1        0.0434
     27 C          -8.4586    0.7084   -0.1064 C.ar    1  LIG1        0.0260
     28 H          -7.5434    2.6299   -0.3279 H       1  LIG1        0.0661
     29 C          -6.9101   -1.1476   -0.0392 C.ar    1  LIG1       -0.0277
     30 C          -8.2150   -0.6721   -0.0164 C.ar    1  LIG1        0.0347
     31 H          -6.7205   -2.2120    0.0464 H       1  LIG1        0.0644
     32 O          -5.0045    1.9435   -0.4104 O.3     1  LIG1       -0.5061
     33 H          -5.3351    2.8427   -0.5078 H       1  LIG1        0.2922
     34 N          -9.3212   -1.5820    0.1091 N.pl3   1  LIG1       -0.3574
     35 H          -9.7755   -1.7072   -0.7942 H       1  LIG1        0.1423
     36 H          -9.0000   -2.4898    0.4294 H       1  LIG1        0.1423
     37 C          -9.7986    1.3000   -0.0248 C.ar    1  LIG1        0.0923
     38 C         -10.2226    2.5860   -0.2968 C.ar    1  LIG1        0.1629
     39 C         -11.5991    2.6813    0.0134 C.ar    1  LIG1        0.0848
     40 C         -11.9899    1.4393    0.4774 C.ar    1  LIG1        0.0267
     41 N         -10.9069    0.6292    0.4455 N.ar    1  LIG1       -0.3560
     42 H         -10.8322   -0.3391    0.7374 H       1  LIG1        0.1655
     43 H         -12.9501    1.0907    0.8173 H       1  LIG1        0.0827
     44 O          -9.4980    3.6345   -0.7725 O.3     1  LIG1       -0.5031
     45 H         -10.1351    4.3650   -0.8393 H       1  LIG1        0.2923
     46 N         -12.2898    3.9150   -0.1830 N.pl3   1  LIG1       -0.3540
     47 H         -13.0409    3.8339   -0.8597 H       1  LIG1        0.1425
     48 H         -12.6657    4.2879    0.6821 H       1  LIG1        0.1425
@<TRIPOS>BOND
     1    22    21    1
     2    20    19    1
     3    11    10    1
     4    47    46    1
     5    45    44    1
     6    35    34    1
     7    44    38    1
     8    33    32    1
     9    21    15    1
    10    21    23    1
    11    32    24    1
    12    28    25    1
    13    38    37   ar
    14    38    39   ar
    15    24    25   ar
    16    24    26   ar
    17    15    14   ar
    18    15    16   ar
    19    25    27   ar
    20    19    14    1
    21    46    39    1
    22    46    48    1
    23    14    13   ar
    24    16    26    1
    25    16    17   ar
    26    26    29   ar
    27    10     3    1
    28    10    12    1
    29    27    37    1
    30    27    30   ar
    31    29    30   ar
    32    29    31    1
    33    37    41   ar
    34    30    34    1
    35    17    13   ar
    36    17    18    1
    37    13     4    1
    38    39    40   ar
    39     9     8    1
    40     3     4   ar
    41     3     2   ar
    42    34    36    1
    43     4     5   ar
    44     8     2    1
    45     2     1   ar
    46     5     1   ar
    47     5     6    1
    48    41    40   ar
    49    41    42    1
    50    40    43    1
    51     1     7    1
