@<TRIPOS>MOLECULE
mol_data/opt/m06hf/geoms/mol2/13fi13fi.out
 26 27 0 0 0
SMALL
GASTEIGER

@<TRIPOS>ATOM
      1 C           1.0846   -0.2437   -0.7387 C.ar    1  LIG1        0.0445
      2 C           0.7184    0.9953   -0.2814 C.ar    1  LIG1        0.1376
      3 C          -0.6427    0.9437    0.1385 C.ar    1  LIG1        0.0178
      4 C          -1.0630   -0.3535   -0.0928 C.ar    1  LIG1        0.0730
      5 N          -0.0117   -1.0565   -0.6128 N.ar    1  LIG1       -0.3561
      6 H          -0.0808   -2.0032   -0.9475 H       1  LIG1        0.1655
      7 H           2.0263   -0.5903   -1.1242 H       1  LIG1        0.0844
      8 O           1.5584    2.0728   -0.1949 O.3     1  LIG1       -0.5050
      9 H           1.0428    2.8827   -0.2690 H       1  LIG1        0.2922
     10 C          -1.4301    2.0597    0.7800 C.3     1  LIG1       -0.0342
     11 H          -2.3545    1.6605    1.1979 H       1  LIG1        0.0279
     12 H          -1.6923    2.8425    0.0625 H       1  LIG1        0.0279
     13 H          -0.8478    2.5138    1.5844 H       1  LIG1        0.0279
     14 C          -2.3862   -0.9385    0.1103 C.ar    1  LIG1        0.1055
     15 C          -3.5967   -0.4712   -0.3449 C.ar    1  LIG1        0.1463
     16 C          -4.6235   -1.3554    0.0856 C.ar    1  LIG1        0.0090
     17 C          -3.9863   -2.3456    0.7975 C.ar    1  LIG1        0.0087
     18 N          -2.6453   -2.0999    0.8042 N.ar    1  LIG1       -0.3563
     19 H          -1.9567   -2.6081    1.3334 H       1  LIG1        0.1655
     20 H          -4.4008   -3.2050    1.2970 H       1  LIG1        0.0811
     21 O          -3.8106    0.6414   -1.1031 O.3     1  LIG1       -0.5043
     22 H          -2.9514    0.9827   -1.3852 H       1  LIG1        0.2922
     23 C          -6.0930   -1.2090   -0.2125 C.3     1  LIG1       -0.0348
     24 H          -6.6517   -2.0349    0.2279 H       1  LIG1        0.0279
     25 H          -6.2640   -1.2028   -1.2898 H       1  LIG1        0.0279
     26 H          -6.4722   -0.2710    0.1947 H       1  LIG1        0.0279
@<TRIPOS>BOND
     1    22    21    1
     2    25    23    1
     3     7     1    1
     4    21    15    1
     5     6     5    1
     6     1     5   ar
     7     1     2   ar
     8     5     4   ar
     9    15    16   ar
    10    15    14   ar
    11     2     8    1
    12     2     3   ar
    13     9     8    1
    14    23    16    1
    15    23    26    1
    16    23    24    1
    17     4    14    1
    18     4     3   ar
    19    12    10    1
    20    16    17   ar
    21    14    18   ar
    22     3    10    1
    23    10    11    1
    24    10    13    1
    25    17    18   ar
    26    17    20    1
    27    18    19    1
