@<TRIPOS>MOLECULE
mol_data/opt/m06hf/geoms/mol2/13fi13fi-13fi.out
 38 40 0 0 0
SMALL
GASTEIGER

@<TRIPOS>ATOM
      1 C           1.2111   -0.2241   -0.3683 C.ar    1  LIG1        0.0445
      2 C           0.8407    1.0442    0.0060 C.ar    1  LIG1        0.1376
      3 C          -0.5674    1.0698    0.2138 C.ar    1  LIG1        0.0178
      4 C          -1.0059   -0.2128   -0.0569 C.ar    1  LIG1        0.0730
      5 N           0.0729   -0.9773   -0.3973 N.ar    1  LIG1       -0.3561
      6 H          -0.0123   -1.9561   -0.6314 H       1  LIG1        0.1655
      7 H           2.1814   -0.6265   -0.5958 H       1  LIG1        0.0844
      8 O           1.7010    2.0991    0.2098 O.3     1  LIG1       -0.5050
      9 H           1.4872    2.8006   -0.4150 H       1  LIG1        0.2922
     10 C          -1.3661    2.2606    0.6823 C.3     1  LIG1       -0.0342
     11 H          -2.0915    1.9666    1.4436 H       1  LIG1        0.0279
     12 H          -1.9011    2.7475   -0.1381 H       1  LIG1        0.0279
     13 H          -0.6853    2.9885    1.1253 H       1  LIG1        0.0279
     14 C          -2.3337   -0.8096   -0.0195 C.ar    1  LIG1        0.1060
     15 C          -2.6906   -2.1424   -0.0078 C.ar    1  LIG1        0.1470
     16 C          -4.1050   -2.2478    0.0012 C.ar    1  LIG1        0.0185
     17 C          -4.5706   -0.9438    0.0040 C.ar    1  LIG1        0.0735
     18 N          -3.4971   -0.0995   -0.0100 N.ar    1  LIG1       -0.3486
     19 H          -3.5987    0.9059   -0.0624 H       1  LIG1        0.1661
     20 O          -1.7921   -3.1942   -0.0524 O.3     1  LIG1       -0.5043
     21 H          -1.6445   -3.5166    0.8449 H       1  LIG1        0.2922
     22 C          -4.8856   -3.5378   -0.0224 C.3     1  LIG1       -0.0342
     23 H          -4.2018   -4.3552   -0.2515 H       1  LIG1        0.0279
     24 H          -5.6557   -3.5151   -0.7972 H       1  LIG1        0.0279
     25 H          -5.3551   -3.7492    0.9425 H       1  LIG1        0.0279
     26 C          -5.9146   -0.3835    0.0038 C.ar    1  LIG1        0.1055
     27 C          -6.3058    0.9252   -0.1704 C.ar    1  LIG1        0.1463
     28 C          -7.7224    1.0047   -0.0746 C.ar    1  LIG1        0.0090
     29 C          -8.1491   -0.2814    0.1572 C.ar    1  LIG1        0.0087
     30 N          -7.0596   -1.1045    0.2073 N.ar    1  LIG1       -0.3563
     31 H          -7.0802   -2.0888    0.4155 H       1  LIG1        0.1655
     32 H          -9.1458   -0.6638    0.2961 H       1  LIG1        0.0811
     33 O          -5.4270    1.9766   -0.3498 O.3     1  LIG1       -0.5043
     34 H          -5.6276    2.4210   -1.1818 H       1  LIG1        0.2922
     35 C          -8.5486    2.2591   -0.2000 C.3     1  LIG1       -0.0348
     36 H          -9.5941    2.0440    0.0182 H       1  LIG1        0.0279
     37 H          -8.4904    2.6715   -1.2100 H       1  LIG1        0.0279
     38 H          -8.1939    3.0167    0.5000 H       1  LIG1        0.0279
@<TRIPOS>BOND
     1    37    35    1
     2    34    33    1
     3    24    22    1
     4     6     5    1
     5     7     1    1
     6     9     8    1
     7     5     1   ar
     8     5     4   ar
     9     1     2   ar
    10    33    27    1
    11    23    22    1
    12    35    28    1
    13    35    36    1
    14    35    38    1
    15    27    28   ar
    16    27    26   ar
    17    12    10    1
    18    28    29   ar
    19    19    18    1
    20     4    14    1
    21     4     3   ar
    22    20    15    1
    23    20    21    1
    24    22    16    1
    25    22    25    1
    26    14    18   ar
    27    14    15   ar
    28    18    17   ar
    29    15    16   ar
    30    16    17   ar
    31    26    17    1
    32    26    30   ar
    33     2     8    1
    34     2     3   ar
    35    29    30   ar
    36    29    32    1
    37    30    31    1
    38     3    10    1
    39    10    13    1
    40    10    11    1
