@<TRIPOS>MOLECULE
mol_data/opt/m06hf/geoms/mol2/13fi13fi13fi-13fi.out
 50 53 0 0 0
SMALL
GASTEIGER

@<TRIPOS>ATOM
      1 C           0.8940    0.2616   -1.4447 C.ar    1  LIG1        0.0445
      2 C           0.7385    1.1783   -0.4379 C.ar    1  LIG1        0.1376
      3 C          -0.5225    0.9586    0.1907 C.ar    1  LIG1        0.0178
      4 C          -1.1006   -0.1039   -0.4810 C.ar    1  LIG1        0.0730
      5 N          -0.2339   -0.5159   -1.4545 N.ar    1  LIG1       -0.3561
      6 H          -0.4524   -1.2239   -2.1363 H       1  LIG1        0.1655
      7 H           1.7120    0.1102   -2.1252 H       1  LIG1        0.0844
      8 O           1.6840    2.0982   -0.0676 O.3     1  LIG1       -0.5050
      9 H           1.2429    2.8939    0.2473 H       1  LIG1        0.2922
     10 C          -1.0596    1.6812    1.4017 C.3     1  LIG1       -0.0342
     11 H          -1.9057    1.1294    1.8118 H       1  LIG1        0.0279
     12 H          -1.3988    2.6928    1.1614 H       1  LIG1        0.0279
     13 H          -0.2819    1.7546    2.1644 H       1  LIG1        0.0279
     14 C          -2.4079   -0.7217   -0.2813 C.ar    1  LIG1        0.1060
     15 C          -3.6368   -0.1040   -0.1825 C.ar    1  LIG1        0.1470
     16 C          -4.6405   -1.0918   -0.0189 C.ar    1  LIG1        0.0185
     17 C          -3.9695   -2.3049   -0.0342 C.ar    1  LIG1        0.0735
     18 N          -2.6381   -2.0723   -0.1979 N.ar    1  LIG1       -0.3486
     19 H          -1.9472   -2.8103   -0.1707 H       1  LIG1        0.1661
     20 O          -3.8801    1.2371   -0.2455 O.3     1  LIG1       -0.5043
     21 H          -3.0762    1.6720   -0.5583 H       1  LIG1        0.2922
     22 C          -6.1183   -0.8304    0.1312 C.3     1  LIG1       -0.0342
     23 H          -6.5194   -1.3305    1.0157 H       1  LIG1        0.0279
     24 H          -6.6773   -1.1652   -0.7470 H       1  LIG1        0.0279
     25 H          -6.2757    0.2421    0.2403 H       1  LIG1        0.0279
     26 C          -4.4473   -3.6724    0.0998 C.ar    1  LIG1        0.1060
     27 C          -3.7197   -4.8335    0.2655 C.ar    1  LIG1        0.1470
     28 C          -4.6062   -5.9388    0.3117 C.ar    1  LIG1        0.0185
     29 C          -5.8744   -5.3972    0.1830 C.ar    1  LIG1        0.0735
     30 N          -5.7585   -4.0434    0.0535 N.ar    1  LIG1       -0.3486
     31 H          -6.5581   -3.4443   -0.1053 H       1  LIG1        0.1661
     32 O          -2.3377   -4.8854    0.3129 O.3     1  LIG1       -0.5043
     33 H          -2.0630   -5.1202    1.2071 H       1  LIG1        0.2922
     34 C          -4.1974   -7.3856    0.4268 C.3     1  LIG1       -0.0342
     35 H          -3.1349   -7.4700    0.1964 H       1  LIG1        0.0279
     36 H          -4.7460   -8.0008   -0.2899 H       1  LIG1        0.0279
     37 H          -4.3589   -7.7815    1.4335 H       1  LIG1        0.0279
     38 C          -7.1965   -6.0052    0.1420 C.ar    1  LIG1        0.1055
     39 C          -8.3954   -5.4385   -0.2280 C.ar    1  LIG1        0.1463
     40 C          -9.4289   -6.4056   -0.0939 C.ar    1  LIG1        0.0090
     41 C          -8.8098   -7.5461    0.3603 C.ar    1  LIG1        0.0087
     42 N          -7.4744   -7.2961    0.5023 N.ar    1  LIG1       -0.3563
     43 H          -6.7959   -7.9398    0.8730 H       1  LIG1        0.1655
     44 H          -9.2264   -8.5100    0.5976 H       1  LIG1        0.0811
     45 O          -8.5388   -4.1171   -0.6041 O.3     1  LIG1       -0.5043
     46 H          -8.9090   -4.0756   -1.4934 H       1  LIG1        0.2922
     47 C         -10.8899   -6.1869   -0.3945 C.3     1  LIG1       -0.0348
     48 H         -11.4796   -7.0268   -0.0289 H       1  LIG1        0.0279
     49 H         -11.0632   -6.0913   -1.4689 H       1  LIG1        0.0279
     50 H         -11.2400   -5.2755    0.0917 H       1  LIG1        0.0279
@<TRIPOS>BOND
     1     6     5    1
     2     7     1    1
     3    46    45    1
     4    49    47    1
     5     5     1   ar
     6     5     4   ar
     7     1     2   ar
     8    24    22    1
     9    45    39    1
    10    21    20    1
    11     4    14    1
    12     4     3   ar
    13     2     8    1
    14     2     3   ar
    15    47    40    1
    16    47    48    1
    17    47    50    1
    18    36    34    1
    19    14    18   ar
    20    14    15   ar
    21    20    15    1
    22    39    40   ar
    23    39    38   ar
    24    18    19    1
    25    18    17   ar
    26    15    16   ar
    27    31    30    1
    28    40    41   ar
    29     8     9    1
    30    17    16   ar
    31    17    26    1
    32    16    22    1
    33    30    26   ar
    34    30    29   ar
    35    26    27   ar
    36    22    25    1
    37    22    23    1
    38    38    29    1
    39    38    42   ar
    40    29    28   ar
    41     3    10    1
    42    35    34    1
    43    27    28   ar
    44    27    32    1
    45    28    34    1
    46    32    33    1
    47    41    42   ar
    48    41    44    1
    49    34    37    1
    50    42    43    1
    51    12    10    1
    52    10    11    1
    53    10    13    1
