@<TRIPOS>MOLECULE
mol_data/opt/m06hf/geoms/mol2/13fi13ee4hl-12ii-.out
 55 58 0 0 0
SMALL
GASTEIGER

@<TRIPOS>ATOM
      1 C           1.1210   -0.3547    0.4183 C.ar    1  LIG1        0.0444
      2 C           0.6430    0.7360    1.0976 C.ar    1  LIG1        0.1376
      3 C          -0.7748    0.7796    0.9616 C.ar    1  LIG1        0.0177
      4 C          -1.1072   -0.3069    0.1810 C.ar    1  LIG1        0.0706
      5 N           0.0389   -0.9950   -0.1222 N.ar    1  LIG1       -0.3562
      6 H           0.0844   -1.7542   -0.7821 H       1  LIG1        0.1655
      7 H           2.1285   -0.7086    0.2945 H       1  LIG1        0.0844
      8 O           1.4120    1.5957    1.8381 O.3     1  LIG1       -0.5050
      9 H           1.1200    2.4990    1.6746 H       1  LIG1        0.2922
     10 C          -1.6962    1.7859    1.5999 C.3     1  LIG1       -0.0342
     11 H          -2.7065    1.3812    1.6609 H       1  LIG1        0.0279
     12 H          -1.7429    2.7059    1.0134 H       1  LIG1        0.0279
     13 H          -1.3425    2.0190    2.6056 H       1  LIG1        0.0279
     14 C          -2.4144   -0.7760   -0.2700 C.ar    1  LIG1        0.0805
     15 C          -3.4644   -0.0960   -0.8549 C.ar    1  LIG1        0.0673
     16 C          -4.5086   -1.0533   -1.0869 C.ar    1  LIG1        0.0660
     17 C          -4.0544   -2.2809   -0.6374 C.ar    1  LIG1        0.0656
     18 N          -2.7912   -2.0853   -0.1586 N.ar    1  LIG1       -0.3510
     19 H          -2.2711   -2.7862    0.3488 H       1  LIG1        0.1660
     20 C          -3.4806    1.2894   -1.2102 C.1     1  LIG1       -0.0662
     21 C          -3.4987    2.4523   -1.5129 C.1     1  LIG1       -0.1138
     22 H          -3.5160    3.4804   -1.7903 H       1  LIG1        0.1232
     23 C          -5.7680   -0.7967   -1.7155 C.1     1  LIG1       -0.0663
     24 C          -6.8384   -0.5934   -2.2243 C.1     1  LIG1       -0.1138
     25 H          -7.7760   -0.4109   -2.6958 H       1  LIG1        0.1232
     26 C          -5.9281   -3.8795   -0.0897 C.ar    1  LIG1        0.0347
     27 C          -6.3988   -5.1999   -0.0992 C.ar    1  LIG1       -0.0262
     28 C          -4.6544   -3.6316   -0.6344 C.ar    1  LIG1        0.0236
     29 C          -5.6416   -6.2554   -0.5973 C.ar    1  LIG1        0.0609
     30 H          -7.3923   -5.4077    0.2809 H       1  LIG1        0.0644
     31 C          -3.8989   -4.6935   -1.1415 C.ar    1  LIG1       -0.0083
     32 C          -4.3672   -5.9964   -1.1248 C.ar    1  LIG1        0.1315
     33 H          -2.9281   -4.5082   -1.5852 H       1  LIG1        0.0661
     34 N          -6.6830   -2.8778    0.5046 N.pl3   1  LIG1       -0.3574
     35 H          -6.5469   -1.9463    0.1363 H       1  LIG1        0.1423
     36 H          -7.6609   -3.1035    0.6176 H       1  LIG1        0.1423
     37 O          -3.5744   -6.9844   -1.6490 O.3     1  LIG1       -0.4944
     38 C          -3.0697   -7.9118   -0.6931 C.3     1  LIG1        0.0788
     39 H          -2.4187   -8.5871   -1.2435 H       1  LIG1        0.0660
     40 H          -2.4997   -7.3831    0.0749 H       1  LIG1        0.0660
     41 H          -3.8808   -8.4769   -0.2290 H       1  LIG1        0.0660
     42 C          -6.1830   -7.6261   -0.5448 C.ar    1  LIG1        0.1415
     43 C          -6.8127   -8.3138    0.4496 C.ar    1  LIG1       -0.0017
     44 C          -7.0626   -9.6337   -0.0852 C.ar    1  LIG1       -0.0092
     45 C          -6.5576   -9.6173   -1.3424 C.ar    1  LIG1        0.0957
     46 O          -6.0239   -8.4148   -1.6326 O.2     1  LIG1       -0.4623
     47 H          -6.5142  -10.3619   -2.1187 H       1  LIG1        0.1032
     48 C          -7.1478   -7.8456    1.8426 C.3     1  LIG1       -0.0359
     49 H          -6.8837   -8.6175    2.5672 H       1  LIG1        0.0279
     50 H          -8.2167   -7.6428    1.9387 H       1  LIG1        0.0279
     51 H          -6.5951   -6.9376    2.0832 H       1  LIG1        0.0279
     52 C          -7.7394  -10.7769    0.6251 C.3     1  LIG1       -0.0365
     53 H          -7.7967  -11.6472   -0.0282 H       1  LIG1        0.0279
     54 H          -8.7515  -10.4964    0.9208 H       1  LIG1        0.0279
     55 H          -7.1847  -11.0542    1.5233 H       1  LIG1        0.0279
@<TRIPOS>BOND
     1    25    24    1
     2    24    23    3
     3    47    45    1
     4    22    21    1
     5    23    16    1
     6    37    32    1
     7    37    38    1
     8    46    45   ar
     9    46    42   ar
    10    33    31    1
    11    21    20    3
    12    45    44   ar
    13    39    38    1
    14    20    15    1
    15    31    32   ar
    16    31    28   ar
    17    32    29   ar
    18    16    15   ar
    19    16    17   ar
    20    15    14   ar
    21     6     5    1
    22    38    41    1
    23    38    40    1
    24    17    28    1
    25    17    18   ar
    26    28    26   ar
    27    29    42    1
    28    29    27   ar
    29    42    43   ar
    30    14    18   ar
    31    14     4    1
    32    18    19    1
    33     5     4   ar
    34     5     1   ar
    35    27    26   ar
    36    27    30    1
    37    26    34    1
    38    44    43   ar
    39    44    52    1
    40    53    52    1
    41    35    34    1
    42     4     3   ar
    43     7     1    1
    44     1     2   ar
    45    43    48    1
    46    34    36    1
    47    52    54    1
    48    52    55    1
    49     3     2   ar
    50     3    10    1
    51    12    10    1
    52     2     8    1
    53    10    11    1
    54    10    13    1
    55     9     8    1
    56    48    50    1
    57    48    51    1
    58    48    49    1
