@<TRIPOS>MOLECULE
mol_data/opt/m06hf/geoms/mol2/13fi13fi-13fi13fi-.out
 50 53 0 0 0
SMALL
GASTEIGER

@<TRIPOS>ATOM
      1 C           1.3055   -0.1973   -0.0653 C.ar    1  LIG1        0.0445
      2 C           0.9091    1.0337    0.3978 C.ar    1  LIG1        0.1376
      3 C          -0.5120    1.0617    0.4712 C.ar    1  LIG1        0.0178
      4 C          -0.9305   -0.1811    0.0328 C.ar    1  LIG1        0.0730
      5 N           0.1707   -0.9244   -0.2798 N.ar    1  LIG1       -0.3561
      6 H           0.0995   -1.8753   -0.6130 H       1  LIG1        0.1655
      7 H           2.2911   -0.5893   -0.2387 H       1  LIG1        0.0844
      8 O           1.7514    2.0509    0.7884 O.3     1  LIG1       -0.5050
      9 H           1.6639    2.7838    0.1691 H       1  LIG1        0.2922
     10 C          -1.3419    2.2141    0.9794 C.3     1  LIG1       -0.0342
     11 H          -2.0852    1.8709    1.7019 H       1  LIG1        0.0279
     12 H          -1.8575    2.7411    0.1712 H       1  LIG1        0.0279
     13 H          -0.6833    2.9227    1.4829 H       1  LIG1        0.0279
     14 C          -2.2595   -0.7566   -0.1154 C.ar    1  LIG1        0.1060
     15 C          -2.6227   -2.0691   -0.3397 C.ar    1  LIG1        0.1470
     16 C          -4.0353   -2.1543   -0.4408 C.ar    1  LIG1        0.0185
     17 C          -4.4934   -0.8606   -0.2606 C.ar    1  LIG1        0.0735
     18 N          -3.4180   -0.0393   -0.0721 N.ar    1  LIG1       -0.3486
     19 H          -3.5107    0.9609    0.0467 H       1  LIG1        0.1661
     20 O          -1.7223   -3.1085   -0.4945 O.3     1  LIG1       -0.5043
     21 H          -1.7639   -3.6753    0.2848 H       1  LIG1        0.2922
     22 C          -4.8279   -3.4063   -0.7214 C.3     1  LIG1       -0.0342
     23 H          -4.1564   -4.1669   -1.1209 H       1  LIG1        0.0279
     24 H          -5.6063   -3.2150   -1.4627 H       1  LIG1        0.0279
     25 H          -5.2969   -3.8044    0.1824 H       1  LIG1        0.0279
     26 C          -5.8324   -0.2934   -0.2594 C.ar    1  LIG1        0.1060
     27 C          -6.2098    1.0311   -0.3504 C.ar    1  LIG1        0.1470
     28 C          -7.6230    1.1205   -0.2789 C.ar    1  LIG1        0.0185
     29 C          -8.0676   -0.1850   -0.1538 C.ar    1  LIG1        0.0735
     30 N          -6.9832   -1.0149   -0.1417 N.ar    1  LIG1       -0.3486
     31 H          -7.0677   -2.0132   -0.0021 H       1  LIG1        0.1661
     32 O          -5.3248    2.0915   -0.4424 O.3     1  LIG1       -0.5043
     33 H          -5.2665    2.3725   -1.3636 H       1  LIG1        0.2922
     34 C          -8.4218    2.3993   -0.2999 C.3     1  LIG1       -0.0342
     35 H          -9.1322    2.4292    0.5294 H       1  LIG1        0.0279
     36 H          -8.9637    2.5282   -1.2410 H       1  LIG1        0.0279
     37 H          -7.7373    3.2401   -0.1865 H       1  LIG1        0.0279
     38 C          -9.4005   -0.7569   -0.0277 C.ar    1  LIG1        0.1055
     39 C          -9.7590   -2.0521    0.2719 C.ar    1  LIG1        0.1463
     40 C         -11.1768   -2.1554    0.2698 C.ar    1  LIG1        0.0090
     41 C         -11.6376   -0.8964   -0.0348 C.ar    1  LIG1        0.0087
     42 N         -10.5673   -0.0672   -0.2161 N.ar    1  LIG1       -0.3563
     43 H         -10.6158    0.8993   -0.4907 H       1  LIG1        0.1655
     44 H         -12.6473   -0.5388   -0.1408 H       1  LIG1        0.0811
     45 O          -8.8516   -3.0733    0.4820 O.3     1  LIG1       -0.5043
     46 H          -9.0166   -3.4715    1.3444 H       1  LIG1        0.2922
     47 C         -11.9740   -3.4047    0.5452 C.3     1  LIG1       -0.0348
     48 H         -11.8551   -3.7289    1.5818 H       1  LIG1        0.0279
     49 H         -11.6447   -4.2150   -0.1069 H       1  LIG1        0.0279
     50 H         -13.0332   -3.2218    0.3673 H       1  LIG1        0.0279
@<TRIPOS>BOND
     1    24    22    1
     2    33    32    1
     3    36    34    1
     4    23    22    1
     5    22    16    1
     6    22    25    1
     7     6     5    1
     8    20    15    1
     9    20    21    1
    10    43    42    1
    11    32    27    1
    12    16    15   ar
    13    16    17   ar
    14    27    28   ar
    15    27    26   ar
    16    15    14   ar
    17    34    28    1
    18    34    37    1
    19    34    35    1
    20     5     1   ar
    21     5     4   ar
    22    28    29   ar
    23    17    26    1
    24    17    18   ar
    25    26    30   ar
    26     7     1    1
    27    42    41   ar
    28    42    38   ar
    29    29    30   ar
    30    29    38    1
    31    30    31    1
    32    44    41    1
    33    14    18   ar
    34    14     4    1
    35    49    47    1
    36    18    19    1
    37     1     2   ar
    38    41    40   ar
    39    38    39   ar
    40     4     3   ar
    41     9     8    1
    42    12    10    1
    43    40    39   ar
    44    40    47    1
    45    39    45    1
    46    50    47    1
    47     2     3   ar
    48     2     8    1
    49     3    10    1
    50    45    46    1
    51    47    48    1
    52    10    13    1
    53    10    11    1
