@<TRIPOS>MOLECULE
mol_data/opt/m06hf/geoms/mol2/13fi13fi-13fi-13fi.out
 50 53 0 0 0
SMALL
GASTEIGER

@<TRIPOS>ATOM
      1 C           1.1781   -0.7515   -1.3347 C.ar    1  LIG1        0.0445
      2 C           1.0824    0.5680   -0.9727 C.ar    1  LIG1        0.1376
      3 C          -0.2170    0.8052   -0.4390 C.ar    1  LIG1        0.0178
      4 C          -0.8810   -0.4039   -0.5100 C.ar    1  LIG1        0.0730
      5 N          -0.0248   -1.3331   -1.0361 N.ar    1  LIG1       -0.3561
      6 H          -0.2980   -2.2782   -1.2560 H       1  LIG1        0.1655
      7 H           1.9998   -1.2976   -1.7606 H       1  LIG1        0.0844
      8 O           2.1049    1.4767   -1.0536 O.3     1  LIG1       -0.5050
      9 H           1.7434    2.3381   -1.2869 H       1  LIG1        0.2922
     10 C          -0.7181    2.1050    0.1385 C.3     1  LIG1       -0.0342
     11 H          -1.5793    1.9188    0.7811 H       1  LIG1        0.0279
     12 H          -1.0162    2.8102   -0.6420 H       1  LIG1        0.0279
     13 H           0.0660    2.5701    0.7390 H       1  LIG1        0.0279
     14 C          -2.2296   -0.7930   -0.1074 C.ar    1  LIG1        0.1060
     15 C          -2.6392   -1.9220    0.5669 C.ar    1  LIG1        0.1470
     16 C          -4.0497   -1.8796    0.7267 C.ar    1  LIG1        0.0185
     17 C          -4.4604   -0.7012    0.1250 C.ar    1  LIG1        0.0735
     18 N          -3.3581   -0.0541   -0.3616 N.ar    1  LIG1       -0.3486
     19 H          -3.3865    0.7542   -0.9633 H       1  LIG1        0.1661
     20 O          -1.8396   -2.9287    1.0403 O.3     1  LIG1       -0.5043
     21 H          -0.9765   -2.5592    1.2651 H       1  LIG1        0.2922
     22 C          -4.8896   -2.8735    1.4884 C.3     1  LIG1       -0.0342
     23 H          -4.4012   -3.1107    2.4338 H       1  LIG1        0.0279
     24 H          -5.0106   -3.8068    0.9346 H       1  LIG1        0.0279
     25 H          -5.8747   -2.4502    1.6864 H       1  LIG1        0.0279
     26 C          -5.8094   -0.1765   -0.0527 C.ar    1  LIG1        0.1060
     27 C          -6.9299   -0.8369   -0.5109 C.ar    1  LIG1        0.1470
     28 C          -8.0114    0.0766   -0.5725 C.ar    1  LIG1        0.0185
     29 C          -7.4960    1.2912   -0.1471 C.ar    1  LIG1        0.0735
     30 N          -6.1781    1.1297    0.1528 N.ar    1  LIG1       -0.3486
     31 H          -5.6150    1.8678    0.5538 H       1  LIG1        0.1661
     32 O          -7.0166   -2.1484   -0.8742 O.3     1  LIG1       -0.5043
     33 H          -6.1226   -2.5116   -0.9220 H       1  LIG1        0.2922
     34 C          -9.4108   -0.2597   -1.0228 C.3     1  LIG1       -0.0342
     35 H          -9.4691   -1.3315   -1.2081 H       1  LIG1        0.0279
     36 H          -9.6680    0.2549   -1.9530 H       1  LIG1        0.0279
     37 H         -10.1465   -0.0060   -0.2551 H       1  LIG1        0.0279
     38 C          -8.1115    2.5998    0.0215 C.ar    1  LIG1        0.1055
     39 C          -7.5768    3.7448    0.5679 C.ar    1  LIG1        0.1463
     40 C          -8.5413    4.7870    0.5020 C.ar    1  LIG1        0.0090
     41 C          -9.6495    4.2263   -0.0890 C.ar    1  LIG1        0.0087
     42 N          -9.3806    2.9198   -0.3787 N.ar    1  LIG1       -0.3563
     43 H         -10.0101    2.2787   -0.8313 H       1  LIG1        0.1655
     44 H         -10.6014    4.6688   -0.3284 H       1  LIG1        0.0811
     45 O          -6.2838    3.8382    1.0463 O.3     1  LIG1       -0.5043
     46 H          -6.3040    4.1849    1.9457 H       1  LIG1        0.2922
     47 C          -8.3523    6.2030    0.9840 C.3     1  LIG1       -0.0348
     48 H          -9.2009    6.8175    0.6857 H       1  LIG1        0.0279
     49 H          -7.4449    6.6306    0.5552 H       1  LIG1        0.0279
     50 H          -8.2708    6.2443    2.0730 H       1  LIG1        0.0279
@<TRIPOS>BOND
     1    36    34    1
     2     7     1    1
     3     1     5   ar
     4     1     2   ar
     5     9     8    1
     6     6     5    1
     7    35    34    1
     8     8     2    1
     9     5     4   ar
    10    34    28    1
    11    34    37    1
    12     2     3   ar
    13    19    18    1
    14    33    32    1
    15    32    27    1
    16    43    42    1
    17    12    10    1
    18    28    27   ar
    19    28    29   ar
    20    27    26   ar
    21     4     3   ar
    22     4    14    1
    23     3    10    1
    24    42    41   ar
    25    42    38   ar
    26    18    14   ar
    27    18    17   ar
    28    44    41    1
    29    29    38    1
    30    29    30   ar
    31    14    15   ar
    32    41    40   ar
    33    26    17    1
    34    26    30   ar
    35    38    39   ar
    36    17    16   ar
    37    10    13    1
    38    10    11    1
    39    30    31    1
    40    40    39   ar
    41    40    47    1
    42    49    47    1
    43    15    16   ar
    44    15    20    1
    45    39    45    1
    46    48    47    1
    47    16    22    1
    48    24    22    1
    49    47    50    1
    50    20    21    1
    51    45    46    1
    52    22    25    1
    53    22    23    1
