@<TRIPOS>MOLECULE
mol_data/opt/m06hf/geoms/mol2/13fi13fi-13fi-13fi-.out
 50 53 0 0 0
SMALL
GASTEIGER

@<TRIPOS>ATOM
      1 C           1.3978   -0.6406   -0.5528 C.ar    1  LIG1        0.0445
      2 C           1.1130    0.6809   -0.7999 C.ar    1  LIG1        0.1376
      3 C          -0.2842    0.8882   -0.6289 C.ar    1  LIG1        0.0178
      4 C          -0.8037   -0.3462   -0.2838 C.ar    1  LIG1        0.0730
      5 N           0.2189   -1.2492   -0.2404 N.ar    1  LIG1       -0.3561
      6 H           0.0748   -2.2160    0.0169 H       1  LIG1        0.1655
      7 H           2.3360   -1.1654   -0.5690 H       1  LIG1        0.0844
      8 O           2.0311    1.6598   -1.1065 O.3     1  LIG1       -0.5050
      9 H           1.9558    1.8793   -2.0418 H       1  LIG1        0.2922
     10 C          -0.9866    2.2158   -0.7644 C.3     1  LIG1       -0.0342
     11 H          -1.6426    2.4010    0.0892 H       1  LIG1        0.0279
     12 H          -1.5727    2.2808   -1.6857 H       1  LIG1        0.0279
     13 H          -0.2333    3.0036   -0.7866 H       1  LIG1        0.0279
     14 C          -2.1605   -0.7791    0.0213 C.ar    1  LIG1        0.1060
     15 C          -2.5942   -1.9825    0.5341 C.ar    1  LIG1        0.1470
     16 C          -4.0094   -1.9592    0.6471 C.ar    1  LIG1        0.0185
     17 C          -4.4020   -0.7162    0.1847 C.ar    1  LIG1        0.0735
     18 N          -3.2789   -0.0226   -0.1910 N.ar    1  LIG1       -0.3486
     19 H          -3.2918    0.8611   -0.6747 H       1  LIG1        0.1661
     20 O          -1.7559   -3.0357    0.8387 O.3     1  LIG1       -0.5043
     21 H          -1.8574   -3.2674    1.7694 H       1  LIG1        0.2922
     22 C          -4.8800   -3.0553    1.2091 C.3     1  LIG1       -0.0342
     23 H          -4.6468   -3.2324    2.2614 H       1  LIG1        0.0279
     24 H          -4.7192   -3.9874    0.6647 H       1  LIG1        0.0279
     25 H          -5.9304   -2.7751    1.1318 H       1  LIG1        0.0279
     26 C          -5.7475   -0.1654    0.0385 C.ar    1  LIG1        0.1060
     27 C          -6.8231   -0.7081   -0.6281 C.ar    1  LIG1        0.1470
     28 C          -7.9348    0.1663   -0.5008 C.ar    1  LIG1        0.0185
     29 C          -7.4843    1.2427    0.2458 C.ar    1  LIG1        0.0735
     30 N          -6.1710    1.0351    0.5614 N.ar    1  LIG1       -0.3486
     31 H          -5.5931    1.6809    1.0749 H       1  LIG1        0.1661
     32 O          -6.8601   -1.8953   -1.2944 O.3     1  LIG1       -0.5043
     33 H          -5.9595   -2.2401   -1.3613 H       1  LIG1        0.2922
     34 C          -9.3257   -0.0732   -1.0310 C.3     1  LIG1       -0.0342
     35 H          -9.6566   -1.0745   -0.7544 H       1  LIG1        0.0279
     36 H          -9.3505   -0.0032   -2.1205 H       1  LIG1        0.0279
     37 H         -10.0124    0.6626   -0.6120 H       1  LIG1        0.0279
     38 C          -8.2011    2.4535    0.6380 C.ar    1  LIG1        0.1055
     39 C          -8.9136    3.3196   -0.1580 C.ar    1  LIG1        0.1463
     40 C          -9.4239    4.3727    0.6501 C.ar    1  LIG1        0.0090
     41 C          -8.9930    4.1030    1.9286 C.ar    1  LIG1        0.0087
     42 N          -8.2518    2.9590    1.9190 N.ar    1  LIG1       -0.3563
     43 H          -7.9061    2.4765    2.7314 H       1  LIG1        0.1655
     44 H          -9.1681    4.6492    2.8402 H       1  LIG1        0.0811
     45 O          -9.1066    3.2308   -1.5037 O.3     1  LIG1       -0.5043
     46 H          -8.5843    2.4915   -1.8409 H       1  LIG1        0.2922
     47 C         -10.2487    5.5354    0.1629 C.3     1  LIG1       -0.0348
     48 H         -11.1705    5.1806   -0.2994 H       1  LIG1        0.0279
     49 H          -9.6960    6.1093   -0.5818 H       1  LIG1        0.0279
     50 H         -10.5024    6.1912    0.9957 H       1  LIG1        0.0279
@<TRIPOS>BOND
     1    36    34    1
     2     9     8    1
     3    46    45    1
     4    12    10    1
     5    45    39    1
     6    33    32    1
     7    32    27    1
     8     8     2    1
     9    34    35    1
    10    34    37    1
    11    34    28    1
    12     2     3   ar
    13     2     1   ar
    14    13    10    1
    15    10     3    1
    16    10    11    1
    17    19    18    1
    18     3     4   ar
    19    27    28   ar
    20    27    26   ar
    21    49    47    1
    22     7     1    1
    23     1     5   ar
    24    28    29   ar
    25    48    47    1
    26     4     5   ar
    27     4    14    1
    28     5     6    1
    29    18    14   ar
    30    18    17   ar
    31    39    38   ar
    32    39    40   ar
    33    14    15   ar
    34    26    17    1
    35    26    30   ar
    36    47    40    1
    37    47    50    1
    38    17    16   ar
    39    29    30   ar
    40    29    38    1
    41    15    16   ar
    42    15    20    1
    43    30    31    1
    44    38    42   ar
    45    16    22    1
    46    40    41   ar
    47    24    22    1
    48    20    21    1
    49    25    22    1
    50    22    23    1
    51    42    41   ar
    52    42    43    1
    53    41    44    1
