@<TRIPOS>MOLECULE
mol_data/opt/m06hf/geoms/mol2/13fi13fi13fi.out
 38 40 0 0 0
SMALL
GASTEIGER

@<TRIPOS>ATOM
      1 C           1.0629   -0.0665   -1.2209 C.ar    1  LIG1        0.0445
      2 C           0.8556    0.9974   -0.3827 C.ar    1  LIG1        0.1376
      3 C          -0.4693    0.9220    0.1390 C.ar    1  LIG1        0.0178
      4 C          -1.0306   -0.2050   -0.4210 C.ar    1  LIG1        0.0730
      5 N          -0.0944   -0.8023   -1.2239 N.ar    1  LIG1       -0.3561
      6 H          -0.2948   -1.5661   -1.8485 H       1  LIG1        0.1655
      7 H           1.9317   -0.3457   -1.7884 H       1  LIG1        0.0844
      8 O           1.8034    1.9346   -0.0624 O.3     1  LIG1       -0.5050
      9 H           1.3695    2.7854    0.0603 H       1  LIG1        0.2922
     10 C          -1.1077    1.8687    1.1218 C.3     1  LIG1       -0.0342
     11 H          -1.9213    1.3630    1.6415 H       1  LIG1        0.0279
     12 H          -1.5303    2.7386    0.6159 H       1  LIG1        0.0279
     13 H          -0.3702    2.2014    1.8553 H       1  LIG1        0.0279
     14 C          -2.3637   -0.7729   -0.2447 C.ar    1  LIG1        0.1060
     15 C          -3.6053   -0.1787   -0.2670 C.ar    1  LIG1        0.1470
     16 C          -4.6004   -1.1737   -0.0571 C.ar    1  LIG1        0.0185
     17 C          -3.9200   -2.3666    0.0771 C.ar    1  LIG1        0.0735
     18 N          -2.5793   -2.1134   -0.0291 N.ar    1  LIG1       -0.3486
     19 H          -1.8504   -2.8053    0.0412 H       1  LIG1        0.1661
     20 O          -3.8140    1.1656   -0.4270 O.3     1  LIG1       -0.5043
     21 H          -4.5904    1.2992   -0.9815 H       1  LIG1        0.2922
     22 C          -6.0892   -0.9581    0.0164 C.3     1  LIG1       -0.0342
     23 H          -6.5544   -1.7948    0.5372 H       1  LIG1        0.0279
     24 H          -6.5310   -0.9048   -0.9806 H       1  LIG1        0.0279
     25 H          -6.3056   -0.0337    0.5554 H       1  LIG1        0.0279
     26 C          -4.4337   -3.7105    0.3215 C.ar    1  LIG1        0.1055
     27 C          -5.4858   -4.3831   -0.2538 C.ar    1  LIG1        0.1463
     28 C          -5.5752   -5.6811    0.3283 C.ar    1  LIG1        0.0090
     29 C          -4.5569   -5.7511    1.2494 C.ar    1  LIG1        0.0087
     30 N          -3.8765   -4.5701    1.2409 N.ar    1  LIG1       -0.3563
     31 H          -3.1709   -4.2978    1.9061 H       1  LIG1        0.1655
     32 H          -4.2808   -6.5547    1.9108 H       1  LIG1        0.0811
     33 O          -6.3086   -3.8550   -1.2120 O.3     1  LIG1       -0.5043
     34 H          -6.5724   -4.5514   -1.8231 H       1  LIG1        0.2922
     35 C          -6.5905   -6.7397   -0.0209 C.3     1  LIG1       -0.0348
     36 H          -6.4774   -7.5991    0.6394 H       1  LIG1        0.0279
     37 H          -6.4658   -7.0889   -1.0493 H       1  LIG1        0.0279
     38 H          -7.6036   -6.3496    0.0905 H       1  LIG1        0.0279
@<TRIPOS>BOND
     1     6     5    1
     2    34    33    1
     3     7     1    1
     4     5     1   ar
     5     5     4   ar
     6     1     2   ar
     7    33    27    1
     8    37    35    1
     9    21    20    1
    10    24    22    1
    11    20    15    1
    12     4    14    1
    13     4     3   ar
    14     2     8    1
    15     2     3   ar
    16    15    14   ar
    17    15    16   ar
    18    27    26   ar
    19    27    28   ar
    20    14    18   ar
    21     8     9    1
    22    16    22    1
    23    16    17   ar
    24    18    19    1
    25    18    17   ar
    26    35    38    1
    27    35    28    1
    28    35    36    1
    29    22    23    1
    30    22    25    1
    31    17    26    1
    32     3    10    1
    33    26    30   ar
    34    28    29   ar
    35    12    10    1
    36    10    11    1
    37    10    13    1
    38    30    29   ar
    39    30    31    1
    40    29    32    1
