@<TRIPOS>MOLECULE
mol_data/opt/m06hf/geoms/mol2/13fi13fi13fi13fi.out
 50 53 0 0 0
SMALL
GASTEIGER

@<TRIPOS>ATOM
      1 C           0.5629    0.4486   -2.1938 C.ar    1  LIG1        0.0445
      2 C           0.6898    1.2098   -1.0614 C.ar    1  LIG1        0.1376
      3 C          -0.4036    0.9267   -0.1918 C.ar    1  LIG1        0.0178
      4 C          -1.1747   -0.0081   -0.8475 C.ar    1  LIG1        0.0730
      5 N          -0.5755   -0.3021   -2.0434 N.ar    1  LIG1       -0.3561
      6 H          -1.0040   -0.8554   -2.7668 H       1  LIG1        0.1655
      7 H           1.1887    0.3886   -3.0657 H       1  LIG1        0.0844
      8 O           1.7363    2.0555   -0.8040 O.3     1  LIG1       -0.5050
      9 H           1.4320    2.7582   -0.2204 H       1  LIG1        0.2922
     10 C          -0.6481    1.5154    1.1734 C.3     1  LIG1       -0.0342
     11 H          -1.3234    0.8690    1.7335 H       1  LIG1        0.0279
     12 H          -1.1172    2.4988    1.1024 H       1  LIG1        0.0279
     13 H           0.2935    1.6048    1.7200 H       1  LIG1        0.0279
     14 C          -2.4151   -0.6551   -0.4293 C.ar    1  LIG1        0.1060
     15 C          -3.5613   -0.1266    0.1202 C.ar    1  LIG1        0.1470
     16 C          -4.4988   -1.1746    0.3356 C.ar    1  LIG1        0.0185
     17 C          -3.8851   -2.3288   -0.1070 C.ar    1  LIG1        0.0735
     18 N          -2.6326   -2.0067   -0.5552 N.ar    1  LIG1       -0.3486
     19 H          -1.9662   -2.6596   -0.9347 H       1  LIG1        0.1661
     20 O          -3.7243    1.1957    0.4371 O.3     1  LIG1       -0.5043
     21 H          -4.6349    1.4512    0.2533 H       1  LIG1        0.2922
     22 C          -5.8757   -1.0431    0.9317 C.3     1  LIG1       -0.0342
     23 H          -6.2283   -2.0222    1.2556 H       1  LIG1        0.0279
     24 H          -6.5892   -0.6619    0.1980 H       1  LIG1        0.0279
     25 H          -5.8501   -0.3683    1.7896 H       1  LIG1        0.0279
     26 C          -4.3839   -3.7007   -0.1141 C.ar    1  LIG1        0.1060
     27 C          -5.5876   -4.2078   -0.5485 C.ar    1  LIG1        0.1470
     28 C          -5.5994   -5.6151   -0.3429 C.ar    1  LIG1        0.0185
     29 C          -4.3741   -5.9268    0.2106 C.ar    1  LIG1        0.0735
     30 N          -3.6556   -4.7714    0.3499 N.ar    1  LIG1       -0.3486
     31 H          -2.7267   -4.7113    0.7344 H       1  LIG1        0.1661
     32 O          -6.6032   -3.4420   -1.0526 O.3     1  LIG1       -0.5043
     33 H          -7.0878   -3.9533   -1.7094 H       1  LIG1        0.2922
     34 C          -6.7261   -6.5657   -0.6530 C.3     1  LIG1       -0.0342
     35 H          -6.6116   -7.4724   -0.0589 H       1  LIG1        0.0279
     36 H          -6.7195   -6.8587   -1.7046 H       1  LIG1        0.0279
     37 H          -7.6849   -6.1012   -0.4135 H       1  LIG1        0.0279
     38 C          -3.8499   -7.2214    0.6351 C.ar    1  LIG1        0.1055
     39 C          -3.8587   -8.4380   -0.0043 C.ar    1  LIG1        0.1463
     40 C          -3.2183   -9.4001    0.8298 C.ar    1  LIG1        0.0090
     41 C          -2.8347   -8.7197    1.9620 C.ar    1  LIG1        0.0087
     42 N          -3.2134   -7.4173    1.8403 N.ar    1  LIG1       -0.3563
     43 H          -3.1698   -6.7259    2.5711 H       1  LIG1        0.1655
     44 H          -2.3314   -9.0797    2.8435 H       1  LIG1        0.0811
     45 O          -4.4169   -8.6516   -1.2344 O.3     1  LIG1       -0.5043
     46 H          -3.9937   -9.4105   -1.6492 H       1  LIG1        0.2922
     47 C          -3.0147  -10.8597    0.5091 C.3     1  LIG1       -0.0348
     48 H          -2.5662  -11.3703    1.3607 H       1  LIG1        0.0279
     49 H          -2.3500  -10.9913   -0.3488 H       1  LIG1        0.0279
     50 H          -3.9687  -11.3409    0.2849 H       1  LIG1        0.0279
@<TRIPOS>BOND
     1     7     1    1
     2     6     5    1
     3     1     5   ar
     4     1     2   ar
     5     5     4   ar
     6    33    32    1
     7    36    34    1
     8    46    45    1
     9    45    39    1
    10     2     8    1
    11     2     3   ar
    12    32    27    1
    13    19    18    1
    14     4    14    1
    15     4     3   ar
    16     8     9    1
    17    34    37    1
    18    34    28    1
    19    34    35    1
    20    18    14   ar
    21    18    17   ar
    22    27    28   ar
    23    27    26   ar
    24    14    15   ar
    25    49    47    1
    26    28    29   ar
    27     3    10    1
    28    26    17    1
    29    26    30   ar
    30    17    16   ar
    31    39    38   ar
    32    39    40   ar
    33    15    16   ar
    34    15    20    1
    35    24    22    1
    36    29    30   ar
    37    29    38    1
    38    21    20    1
    39    50    47    1
    40    16    22    1
    41    30    31    1
    42    47    40    1
    43    47    48    1
    44    38    42   ar
    45    40    41   ar
    46    22    23    1
    47    22    25    1
    48    12    10    1
    49    10    13    1
    50    10    11    1
    51    42    41   ar
    52    42    43    1
    53    41    44    1
