@<TRIPOS>MOLECULE
mol_data/opt/m06hf/geoms/mol2/13fi6el13ef4al-.out
 54 57 0 0 0
SMALL
GASTEIGER

@<TRIPOS>ATOM
      1 C           1.3652   -0.2150   -0.5376 C.ar    1  LIG1        0.0444
      2 C           0.9646    1.0077   -0.0543 C.ar    1  LIG1        0.1375
      3 C          -0.4388    0.9746    0.1596 C.ar    1  LIG1        0.0163
      4 C          -0.8498   -0.2970   -0.2144 C.ar    1  LIG1        0.0558
      5 N           0.2531   -0.9932   -0.6233 N.ar    1  LIG1       -0.3573
      6 H           0.2310   -1.9637   -0.8966 H       1  LIG1        0.1655
      7 H           2.3447   -0.5702   -0.8020 H       1  LIG1        0.0844
      8 O           1.8000    2.0572    0.2439 O.3     1  LIG1       -0.5050
      9 H           1.5491    2.8204   -0.2879 H       1  LIG1        0.2922
     10 C          -1.2288    2.1073    0.7682 C.3     1  LIG1       -0.0342
     11 H          -2.0617    1.7260    1.3604 H       1  LIG1        0.0279
     12 H          -1.6241    2.7895    0.0096 H       1  LIG1        0.0279
     13 H          -0.5668    2.6756    1.4230 H       1  LIG1        0.0279
     14 C          -2.4998   -2.2210    0.0017 C.ar    1  LIG1        0.1232
     15 C          -2.2057   -0.8661   -0.2131 C.ar    1  LIG1        0.0360
     16 C          -3.2926   -0.0148   -0.4548 C.ar    1  LIG1       -0.0060
     17 C          -4.5869   -0.5062   -0.4195 C.ar    1  LIG1        0.1481
     18 C          -4.7785   -1.8705   -0.1144 C.ar    1  LIG1        0.1313
     19 N          -3.7500   -2.6876    0.0455 N.ar    1  LIG1       -0.2326
     20 H          -3.1009    1.0170   -0.7125 H       1  LIG1        0.0662
     21 C          -1.4624   -3.2134    0.2144 C.1     1  LIG1       -0.0491
     22 C          -0.6177   -4.0524    0.3827 C.1     1  LIG1       -0.1124
     23 H           0.1162   -4.8048    0.5603 H       1  LIG1        0.1232
     24 O          -5.6845    0.2064   -0.7006 O.3     1  LIG1       -0.4929
     25 C          -5.5990    1.6192   -0.7171 C.3     1  LIG1        0.0789
     26 H          -6.6256    1.9675   -0.7791 H       1  LIG1        0.0660
     27 H          -5.1342    1.9809    0.2038 H       1  LIG1        0.0660
     28 H          -5.0325    1.9611   -1.5868 H       1  LIG1        0.0660
     29 C          -6.1103   -2.4911   -0.0078 C.ar    1  LIG1        0.0883
     30 C          -7.3941   -2.0377    0.3010 C.ar    1  LIG1        0.0935
     31 C          -8.2297   -3.1874    0.2788 C.ar    1  LIG1        0.1581
     32 C          -7.4559   -4.2889   -0.0279 C.ar    1  LIG1        0.0903
     33 N          -6.1767   -3.8328   -0.1781 N.ar    1  LIG1       -0.3489
     34 H          -5.3553   -4.3796   -0.3989 H       1  LIG1        0.1661
     35 C          -7.8570   -0.7452    0.7074 C.1     1  LIG1       -0.0638
     36 C          -8.3167    0.2973    1.0931 C.1     1  LIG1       -0.1137
     37 H          -8.7366    1.2101    1.4462 H       1  LIG1        0.1232
     38 O          -9.5639   -3.1609    0.5488 O.3     1  LIG1       -0.5035
     39 H          -9.8203   -3.9959    0.9590 H       1  LIG1        0.2923
     40 C          -9.1152   -6.0236   -0.6630 C.ar    1  LIG1       -0.0523
     41 C          -9.4883   -7.3547   -0.7668 C.ar    1  LIG1       -0.0577
     42 C          -7.8485   -5.7009   -0.1504 C.ar    1  LIG1        0.0054
     43 C          -8.6229   -8.3820   -0.3873 C.ar    1  LIG1       -0.0199
     44 H         -10.4619   -7.6090   -1.1649 H       1  LIG1        0.0619
     45 C          -6.9829   -6.7169    0.2421 C.ar    1  LIG1       -0.0107
     46 C          -7.3625   -8.0549    0.1130 C.ar    1  LIG1        0.1207
     47 H          -6.0134   -6.5028    0.6738 H       1  LIG1        0.0661
     48 H          -8.9373   -9.4106   -0.4874 H       1  LIG1        0.0654
     49 H          -9.7716   -5.2328   -1.0027 H       1  LIG1        0.0624
     50 O          -6.4415   -8.9672    0.5135 O.3     1  LIG1       -0.4951
     51 C          -6.7557  -10.3380    0.3670 C.3     1  LIG1        0.0788
     52 H          -5.8866  -10.8819    0.7264 H       1  LIG1        0.0660
     53 H          -7.6296  -10.6027    0.9680 H       1  LIG1        0.0660
     54 H          -6.9386  -10.5829   -0.6824 H       1  LIG1        0.0660
@<TRIPOS>BOND
     1    28    25    1
     2    44    41    1
     3    49    40    1
     4     6     5    1
     5     7     1    1
     6    26    25    1
     7    41    40   ar
     8    41    43   ar
     9    25    24    1
    10    25    27    1
    11    20    16    1
    12    24    17    1
    13    54    51    1
    14    40    42   ar
    15     5     1   ar
    16     5     4   ar
    17     1     2   ar
    18    48    43    1
    19    16    17   ar
    20    16    15   ar
    21    17    18   ar
    22    34    33    1
    23    43    46   ar
    24     9     8    1
    25     4    15    1
    26     4     3   ar
    27    15    14   ar
    28    33    32   ar
    29    33    29   ar
    30    42    32    1
    31    42    45   ar
    32    18    29    1
    33    18    19   ar
    34     2     3   ar
    35     2     8    1
    36    32    31   ar
    37    29    30   ar
    38    14    19   ar
    39    14    21    1
    40    12    10    1
    41    46    45   ar
    42    46    50    1
    43     3    10    1
    44    21    22    3
    45    45    47    1
    46    31    30   ar
    47    31    38    1
    48    30    35    1
    49    51    50    1
    50    51    52    1
    51    51    53    1
    52    22    23    1
    53    38    39    1
    54    35    36    3
    55    10    11    1
    56    10    13    1
    57    36    37    1
