@<TRIPOS>MOLECULE
mol_data/opt/m06hf/geoms/mol2/13fi13ad4dd12ii-.out
 48 51 0 0 0
SMALL
GASTEIGER

@<TRIPOS>ATOM
      1 C           1.2217    0.0054    0.5538 C.ar    1  LIG1        0.0444
      2 C           0.6030    1.1384    1.0162 C.ar    1  LIG1        0.1376
      3 C          -0.7873    1.0586    0.7139 C.ar    1  LIG1        0.0177
      4 C          -0.9594   -0.1423    0.0588 C.ar    1  LIG1        0.0694
      5 N           0.2522   -0.7769   -0.0145 N.ar    1  LIG1       -0.3562
      6 H           0.4245   -1.6116   -0.5511 H       1  LIG1        0.1655
      7 H           2.2550   -0.2876    0.5950 H       1  LIG1        0.0844
      8 O           1.2266    2.1378    1.7120 O.3     1  LIG1       -0.5050
      9 H           0.8306    2.9844    1.4794 H       1  LIG1        0.2922
     10 C          -1.8378    2.0700    1.0953 C.3     1  LIG1       -0.0342
     11 H          -2.8271    1.6141    1.0566 H       1  LIG1        0.0279
     12 H          -1.8298    2.9286    0.4195 H       1  LIG1        0.0279
     13 H          -1.6565    2.4259    2.1109 H       1  LIG1        0.0279
     14 C          -2.1782   -0.7514   -0.4738 C.ar    1  LIG1        0.0649
     15 C          -3.1736   -0.2275   -1.2654 C.ar    1  LIG1       -0.0169
     16 C          -4.1379   -1.2567   -1.4512 C.ar    1  LIG1        0.0776
     17 C          -3.6978   -2.3803   -0.7735 C.ar    1  LIG1        0.0658
     18 N          -2.5083   -2.0554   -0.1983 N.ar    1  LIG1       -0.3519
     19 H          -2.0188   -2.6323    0.4711 H       1  LIG1        0.1660
     20 H          -3.1963    0.7623   -1.6877 H       1  LIG1        0.0652
     21 N          -6.2508   -1.1861   -2.9358 N.1     1  LIG1       -0.1908
     22 C          -5.3146   -1.2086   -2.2717 C.1     1  LIG1        0.1013
     23 C          -5.6164   -3.9337   -0.2943 C.ar    1  LIG1        0.0616
     24 C          -6.1626   -5.2138   -0.2445 C.ar    1  LIG1       -0.0318
     25 C          -4.2801   -3.7302   -0.6699 C.ar    1  LIG1        0.0182
     26 C          -5.3811   -6.3360   -0.5197 C.ar    1  LIG1        0.0361
     27 H          -7.2093   -5.3338   -0.0020 H       1  LIG1        0.0638
     28 C          -3.5002   -4.8491   -0.9538 C.ar    1  LIG1       -0.0333
     29 C          -4.0350   -6.1326   -0.8659 C.ar    1  LIG1        0.0631
     30 H          -2.4705   -4.7255   -1.2624 H       1  LIG1        0.0637
     31 N          -7.1359   -1.9575    0.4300 N.1     1  LIG1       -0.1908
     32 C          -6.4550   -2.8158    0.0899 C.1     1  LIG1        0.0998
     33 N          -2.3715   -8.0755   -1.3077 N.1     1  LIG1       -0.1908
     34 C          -3.1393   -7.2444   -1.1207 C.1     1  LIG1        0.0999
     35 C          -5.9735   -7.6774   -0.4485 C.ar    1  LIG1        0.1392
     36 C          -6.8847   -8.2362    0.3981 C.ar    1  LIG1       -0.0018
     37 C          -7.0556   -9.5942   -0.0637 C.ar    1  LIG1       -0.0092
     38 C          -6.2325   -9.7236   -1.1335 C.ar    1  LIG1        0.0957
     39 O          -5.5738   -8.5752   -1.3760 O.2     1  LIG1       -0.4624
     40 H          -6.0223  -10.5449   -1.7967 H       1  LIG1        0.1032
     41 C          -7.5600   -7.6251    1.5995 C.3     1  LIG1       -0.0359
     42 H          -7.6098   -8.3601    2.4035 H       1  LIG1        0.0279
     43 H          -8.5794   -7.3168    1.3573 H       1  LIG1        0.0279
     44 H          -7.0047   -6.7597    1.9609 H       1  LIG1        0.0279
     45 C          -7.9560  -10.6391    0.5423 C.3     1  LIG1       -0.0365
     46 H          -7.9145  -11.5570   -0.0429 H       1  LIG1        0.0279
     47 H          -8.9881  -10.2866    0.5650 H       1  LIG1        0.0279
     48 H          -7.6464  -10.8654    1.5640 H       1  LIG1        0.0279
@<TRIPOS>BOND
     1    21    22    3
     2    22    16    1
     3    40    38    1
     4    20    15    1
     5    16    15   ar
     6    16    17   ar
     7    39    38   ar
     8    39    35   ar
     9    33    34    3
    10    15    14   ar
    11    30    28    1
    12    38    37   ar
    13    34    29    1
    14    28    29   ar
    15    28    25   ar
    16    29    26   ar
    17    17    25    1
    18    17    18   ar
    19    25    23   ar
    20     6     5    1
    21    26    35    1
    22    26    24   ar
    23    14    18   ar
    24    14     4    1
    25    35    36   ar
    26    23    24   ar
    27    23    32    1
    28    24    27    1
    29    18    19    1
    30    37    36   ar
    31    37    45    1
    32    46    45    1
    33     5     4   ar
    34     5     1   ar
    35     4     3   ar
    36    32    31    3
    37    36    41    1
    38    12    10    1
    39    45    47    1
    40    45    48    1
    41     1     7    1
    42     1     2   ar
    43     3     2   ar
    44     3    10    1
    45     2     8    1
    46    11    10    1
    47    10    13    1
    48    43    41    1
    49     9     8    1
    50    41    44    1
    51    41    42    1
