@<TRIPOS>MOLECULE
mol_data/opt/m06hf/geoms/mol2/13fi13fi13fi13fi-.out
 50 53 0 0 0
SMALL
GASTEIGER

@<TRIPOS>ATOM
      1 C           0.4219    0.6406   -2.2106 C.ar    1  LIG1        0.0445
      2 C           0.5500    1.3519   -1.0456 C.ar    1  LIG1        0.1376
      3 C          -0.5087    0.9869   -0.1641 C.ar    1  LIG1        0.0178
      4 C          -1.2604    0.0549   -0.8455 C.ar    1  LIG1        0.0730
      5 N          -0.6819   -0.1583   -2.0702 N.ar    1  LIG1       -0.3561
      6 H          -1.0980   -0.7077   -2.8039 H       1  LIG1        0.1655
      7 H           1.0285    0.6433   -3.0977 H       1  LIG1        0.0844
      8 O           1.5755    2.2192   -0.7639 O.3     1  LIG1       -0.5050
      9 H           1.2076    3.0174   -0.3694 H       1  LIG1        0.2922
     10 C          -0.7271    1.4971    1.2362 C.3     1  LIG1       -0.0342
     11 H          -1.2992    0.7671    1.8086 H       1  LIG1        0.0279
     12 H          -1.2929    2.4305    1.2329 H       1  LIG1        0.0279
     13 H           0.2355    1.6610    1.7236 H       1  LIG1        0.0279
     14 C          -2.4632   -0.6596   -0.4277 C.ar    1  LIG1        0.1060
     15 C          -3.6072   -0.2005    0.1849 C.ar    1  LIG1        0.1470
     16 C          -4.4956   -1.2947    0.3837 C.ar    1  LIG1        0.0185
     17 C          -3.8541   -2.4056   -0.1374 C.ar    1  LIG1        0.0735
     18 N          -2.6368   -2.0093   -0.6172 N.ar    1  LIG1       -0.3486
     19 H          -1.9476   -2.6278   -1.0150 H       1  LIG1        0.1661
     20 O          -3.8072    1.0969    0.5766 O.3     1  LIG1       -0.5043
     21 H          -4.7063    1.3615    0.3529 H       1  LIG1        0.2922
     22 C          -5.8249   -1.2520    1.0962 C.3     1  LIG1       -0.0342
     23 H          -6.1439   -2.2663    1.3378 H       1  LIG1        0.0279
     24 H          -6.6056   -0.7840    0.4899 H       1  LIG1        0.0279
     25 H          -5.7260   -0.6808    2.0207 H       1  LIG1        0.0279
     26 C          -4.3290   -3.7820   -0.2309 C.ar    1  LIG1        0.1060
     27 C          -5.5382   -4.2315   -0.7172 C.ar    1  LIG1        0.1470
     28 C          -5.5648   -5.6469   -0.6563 C.ar    1  LIG1        0.0185
     29 C          -4.3374   -6.0174   -0.1280 C.ar    1  LIG1        0.0735
     30 N          -3.6052   -4.8962    0.1151 N.ar    1  LIG1       -0.3486
     31 H          -2.7015   -4.9237    0.5689 H       1  LIG1        0.1661
     32 O          -6.5571   -3.4649   -1.2026 O.3     1  LIG1       -0.5043
     33 H          -6.2304   -2.5612   -1.3040 H       1  LIG1        0.2922
     34 C          -6.7162   -6.5167   -1.0948 C.3     1  LIG1       -0.0342
     35 H          -7.0649   -7.1553   -0.2790 H       1  LIG1        0.0279
     36 H          -6.4445   -7.1410   -1.9506 H       1  LIG1        0.0279
     37 H          -7.5417   -5.8747   -1.3995 H       1  LIG1        0.0279
     38 C          -3.7730   -7.3215    0.1897 C.ar    1  LIG1        0.1055
     39 C          -2.5841   -7.6210    0.8164 C.ar    1  LIG1        0.1463
     40 C          -2.4433   -9.0328    0.8983 C.ar    1  LIG1        0.0090
     41 C          -3.5746   -9.5503    0.3122 C.ar    1  LIG1        0.0087
     42 N          -4.3613   -8.5195   -0.1143 N.ar    1  LIG1       -0.3563
     43 H          -5.2391   -8.6137   -0.5964 H       1  LIG1        0.1655
     44 H          -3.8670  -10.5760    0.1644 H       1  LIG1        0.0811
     45 O          -1.6757   -6.6693    1.2377 O.3     1  LIG1       -0.5043
     46 H          -1.4636   -6.8229    2.1657 H       1  LIG1        0.2922
     47 C          -1.2768   -9.7745    1.5002 C.3     1  LIG1       -0.0348
     48 H          -1.2068   -9.5977    2.5763 H       1  LIG1        0.0279
     49 H          -0.3430   -9.4506    1.0382 H       1  LIG1        0.0279
     50 H          -1.3909  -10.8462    1.3409 H       1  LIG1        0.0279
@<TRIPOS>BOND
     1     7     1    1
     2     6     5    1
     3     1     5   ar
     4     1     2   ar
     5     5     4   ar
     6    36    34    1
     7    37    34    1
     8    33    32    1
     9    32    27    1
    10    34    28    1
    11    34    35    1
    12     2     8    1
    13     2     3   ar
    14    19    18    1
    15     4    14    1
    16     4     3   ar
    17     8     9    1
    18    27    28   ar
    19    27    26   ar
    20    28    29   ar
    21    18    14   ar
    22    18    17   ar
    23    43    42    1
    24    14    15   ar
    25    26    17    1
    26    26    30   ar
    27     3    10    1
    28    17    16   ar
    29    29    30   ar
    30    29    38    1
    31    42    38   ar
    32    42    41   ar
    33    30    31    1
    34    44    41    1
    35    15    16   ar
    36    15    20    1
    37    38    39   ar
    38    41    40   ar
    39    21    20    1
    40    16    22    1
    41    24    22    1
    42    39    40   ar
    43    39    45    1
    44    40    47    1
    45    49    47    1
    46    22    23    1
    47    22    25    1
    48    12    10    1
    49    10    13    1
    50    10    11    1
    51    45    46    1
    52    50    47    1
    53    47    48    1
