@<TRIPOS>MOLECULE
mol_data/opt/m06hf/geoms/mol2/13fi13fi-.out
 26 27 0 0 0
SMALL
GASTEIGER

@<TRIPOS>ATOM
      1 C           1.1814   -0.2611   -0.2144 C.ar    1  LIG1        0.0445
      2 C           0.8114    1.0454   -0.0076 C.ar    1  LIG1        0.1376
      3 C          -0.6067    1.1098    0.0950 C.ar    1  LIG1        0.0178
      4 C          -1.0511   -0.1891   -0.0679 C.ar    1  LIG1        0.0730
      5 N           0.0335   -0.9972   -0.2484 N.ar    1  LIG1       -0.3561
      6 H          -0.0553   -1.9982   -0.3591 H       1  LIG1        0.1655
      7 H           2.1569   -0.6987   -0.3258 H       1  LIG1        0.0844
      8 O           1.6698    2.1133    0.1350 O.3     1  LIG1       -0.5050
      9 H           1.6122    2.6658   -0.6522 H       1  LIG1        0.2922
     10 C          -1.4011    2.3603    0.3754 C.3     1  LIG1       -0.0342
     11 H          -2.1430    2.1844    1.1579 H       1  LIG1        0.0279
     12 H          -1.9074    2.7375   -0.5181 H       1  LIG1        0.0279
     13 H          -0.7176    3.1330    0.7284 H       1  LIG1        0.0279
     14 C          -2.3879   -0.7695   -0.0627 C.ar    1  LIG1        0.1055
     15 C          -2.7604   -2.0938   -0.0200 C.ar    1  LIG1        0.1463
     16 C          -4.1798   -2.1803   -0.0545 C.ar    1  LIG1        0.0090
     17 C          -4.6269   -0.8818   -0.1152 C.ar    1  LIG1        0.0087
     18 N          -3.5470   -0.0450   -0.1244 N.ar    1  LIG1       -0.3563
     19 H          -3.5845    0.9568   -0.2101 H       1  LIG1        0.1655
     20 H          -5.6317   -0.4980   -0.1592 H       1  LIG1        0.0811
     21 O          -1.8662   -3.1477   -0.0056 O.3     1  LIG1       -0.5043
     22 H          -2.0045   -3.6677    0.7945 H       1  LIG1        0.2922
     23 C          -4.9906   -3.4510   -0.0339 C.3     1  LIG1       -0.0348
     24 H          -4.8977   -3.9647    0.9258 H       1  LIG1        0.0279
     25 H          -4.6507   -4.1279   -0.8187 H       1  LIG1        0.0279
     26 H          -6.0443   -3.2273   -0.1980 H       1  LIG1        0.0279
@<TRIPOS>BOND
     1    25    23    1
     2     9     8    1
     3    12    10    1
     4     6     5    1
     5     7     1    1
     6     5     1   ar
     7     5     4   ar
     8     1     2   ar
     9    19    18    1
    10    26    23    1
    11    20    17    1
    12    18    17   ar
    13    18    14   ar
    14    17    16   ar
    15     4    14    1
    16     4     3   ar
    17    14    15   ar
    18    16    23    1
    19    16    15   ar
    20    23    24    1
    21    15    21    1
    22     2     3   ar
    23     2     8    1
    24    21    22    1
    25     3    10    1
    26    10    13    1
    27    10    11    1
