@<TRIPOS>MOLECULE
mol_data/opt/m06hf/geoms/mol2/13fi13he13ie-12el-.out
 52 55 0 0 0
SMALL
GASTEIGER

@<TRIPOS>ATOM
      1 C           1.2319    0.1210   -0.2871 C.ar    1  LIG1        0.0444
      2 C           0.7356    1.2106    0.3811 C.ar    1  LIG1        0.1376
      3 C          -0.6785    1.0725    0.4953 C.ar    1  LIG1        0.0177
      4 C          -0.9947   -0.1185   -0.1291 C.ar    1  LIG1        0.0713
      5 N           0.1627   -0.6816   -0.5918 N.ar    1  LIG1       -0.3562
      6 H           0.1974   -1.5049   -1.1696 H       1  LIG1        0.1655
      7 H           2.2418   -0.1251   -0.5591 H       1  LIG1        0.0844
      8 O           1.4978    2.2416    0.8538 O.3     1  LIG1       -0.5050
      9 H           0.9520    2.8152    1.4007 H       1  LIG1        0.2922
     10 C          -1.6217    2.0122    1.2049 C.3     1  LIG1       -0.0342
     11 H          -2.6407    1.6318    1.1375 H       1  LIG1        0.0279
     12 H          -1.6024    3.0061    0.7507 H       1  LIG1        0.0279
     13 H          -1.3534    2.1073    2.2603 H       1  LIG1        0.0279
     14 C          -2.2981   -0.7484   -0.3249 C.ar    1  LIG1        0.0859
     15 C          -3.4602   -0.2145   -0.8333 C.ar    1  LIG1        0.0679
     16 C          -4.4454   -1.2525   -0.8206 C.ar    1  LIG1        0.0726
     17 C          -3.8439   -2.3848   -0.2934 C.ar    1  LIG1        0.0811
     18 N          -2.5512   -2.0723   -0.0130 N.ar    1  LIG1       -0.3494
     19 H          -1.9416   -2.6412    0.5550 H       1  LIG1        0.1661
     20 N          -3.6711    1.0978   -1.2606 N.pl3   1  LIG1       -0.3553
     21 H          -2.8200    1.5471   -1.5789 H       1  LIG1        0.1424
     22 H          -4.4169    1.1672   -1.9425 H       1  LIG1        0.1424
     23 C          -5.7724   -1.1365   -1.3392 C.1     1  LIG1       -0.0656
     24 C          -6.8783   -1.0006   -1.7930 C.1     1  LIG1       -0.1138
     25 H          -7.8595   -0.8920   -2.1923 H       1  LIG1        0.1232
     26 C          -4.3885   -3.7173   -0.0467 C.ar    1  LIG1        0.0688
     27 C          -5.5748   -4.1081    0.5364 C.ar    1  LIG1       -0.0076
     28 C          -5.5642   -5.5372    0.5520 C.ar    1  LIG1        0.0565
     29 C          -4.3755   -5.9557   -0.0261 C.ar    1  LIG1        0.0997
     30 N          -3.6740   -4.8425   -0.3706 N.ar    1  LIG1       -0.3494
     31 H          -2.8079   -4.8558   -0.8875 H       1  LIG1        0.1661
     32 C          -6.6564   -3.2315    1.1074 C.3     1  LIG1       -0.0365
     33 H          -7.0198   -3.6650    2.0393 H       1  LIG1        0.0279
     34 H          -7.4898   -3.1532    0.4080 H       1  LIG1        0.0279
     35 H          -6.2689   -2.2304    1.2938 H       1  LIG1        0.0279
     36 C          -6.5595   -6.3648    1.1624 C.1     1  LIG1       -0.0672
     37 C          -7.3994   -7.0345    1.7033 C.1     1  LIG1       -0.1138
     38 H          -8.1341   -7.6439    2.1759 H       1  LIG1        0.1232
     39 C          -3.8176   -7.2767   -0.2612 C.ar    1  LIG1        0.1711
     40 C          -4.3636   -8.4887   -0.5771 C.ar    1  LIG1        0.1134
     41 C          -3.2366   -9.3956   -0.6835 C.ar    1  LIG1        0.1736
     42 C          -2.1257   -8.6643   -0.4393 C.ar    1  LIG1        0.1354
     43 O          -2.4722   -7.3758   -0.1920 O.2     1  LIG1       -0.4564
     44 H          -1.0803   -8.9114   -0.4258 H       1  LIG1        0.1068
     45 C          -5.7273   -8.7890   -0.8782 C.1     1  LIG1       -0.0621
     46 C          -6.8673   -9.0535   -1.1519 C.1     1  LIG1       -0.1137
     47 H          -7.8821   -9.2607   -1.4015 H       1  LIG1        0.1232
     48 O          -3.2816  -10.7098   -1.0040 O.3     1  LIG1       -0.4907
     49 C          -3.9747  -11.5114   -0.0457 C.3     1  LIG1        0.0790
     50 H          -3.9279  -12.5311   -0.4181 H       1  LIG1        0.0660
     51 H          -3.4784  -11.4390    0.9241 H       1  LIG1        0.0660
     52 H          -5.0130  -11.1889    0.0396 H       1  LIG1        0.0660
@<TRIPOS>BOND
     1    25    24    1
     2    22    20    1
     3    24    23    3
     4    21    20    1
     5    47    46    1
     6    23    16    1
     7    20    15    1
     8     6     5    1
     9    46    45    3
    10    48    41    1
    11    48    49    1
    12    31    30    1
    13    45    40    1
    14    15    16   ar
    15    15    14   ar
    16    16    17   ar
    17    41    40   ar
    18    41    42   ar
    19     5     1   ar
    20     5     4   ar
    21    40    39   ar
    22     7     1    1
    23    42    44    1
    24    42    43   ar
    25    50    49    1
    26    30    26   ar
    27    30    29   ar
    28    14     4    1
    29    14    18   ar
    30    17    26    1
    31    17    18   ar
    32     1     2   ar
    33    39    43   ar
    34    39    29    1
    35     4     3   ar
    36    26    27   ar
    37    49    52    1
    38    49    51    1
    39    29    28   ar
    40    18    19    1
    41     2     3   ar
    42     2     8    1
    43    34    32    1
    44     3    10    1
    45    27    28   ar
    46    27    32    1
    47    28    36    1
    48    12    10    1
    49     8     9    1
    50    32    35    1
    51    32    33    1
    52    11    10    1
    53    36    37    3
    54    10    13    1
    55    37    38    1
