@<TRIPOS>MOLECULE
mol_data/opt/m06hf/geoms/mol2/13fi13fi13fi-13fi-.out
 50 53 0 0 0
SMALL
GASTEIGER

@<TRIPOS>ATOM
      1 C          -5.8809   -1.6140    1.0275 C.ar    1  LIG1        0.0445
      2 C          -6.4319   -0.7312    0.1353 C.ar    1  LIG1        0.1376
      3 C          -5.4032    0.1267   -0.3531 C.ar    1  LIG1        0.0178
      4 C          -4.2417   -0.2740    0.2828 C.ar    1  LIG1        0.0730
      5 N          -4.5469   -1.3170    1.1121 N.ar    1  LIG1       -0.3561
      6 H          -3.8910   -1.7335    1.7529 H       1  LIG1        0.1655
      7 H          -6.3386   -2.4049    1.5935 H       1  LIG1        0.0844
      8 O          -7.7592   -0.6885   -0.1978 O.3     1  LIG1       -0.5050
      9 H          -7.8497   -0.3907   -1.1090 H       1  LIG1        0.2922
     10 C          -5.5533    1.1999   -1.4036 C.3     1  LIG1       -0.0342
     11 H          -4.5862    1.6616   -1.6028 H       1  LIG1        0.0279
     12 H          -6.2523    1.9743   -1.0798 H       1  LIG1        0.0279
     13 H          -5.9248    0.7758   -2.3403 H       1  LIG1        0.0279
     14 C          -2.8957    0.2869    0.1996 C.ar    1  LIG1        0.1060
     15 C          -2.5063    1.6014    0.3441 C.ar    1  LIG1        0.1470
     16 C          -1.0960    1.6817    0.2295 C.ar    1  LIG1        0.0185
     17 C          -0.6667    0.3794    0.0224 C.ar    1  LIG1        0.0735
     18 N          -1.7500   -0.4452    0.0130 N.ar    1  LIG1       -0.3486
     19 H          -1.6865   -1.4322   -0.1987 H       1  LIG1        0.1661
     20 O          -3.3171    2.6741    0.5739 O.3     1  LIG1       -0.5043
     21 H          -4.1957    2.3455    0.8057 H       1  LIG1        0.2922
     22 C          -0.2841    2.9482    0.3346 C.3     1  LIG1       -0.0342
     23 H           0.3212    3.1086   -0.5614 H       1  LIG1        0.0279
     24 H           0.3677    2.9353    1.2127 H       1  LIG1        0.0279
     25 H          -0.9659    3.7915    0.4384 H       1  LIG1        0.0279
     26 C           0.6629   -0.1764   -0.1761 C.ar    1  LIG1        0.1060
     27 C           1.0299   -1.4776   -0.4416 C.ar    1  LIG1        0.1470
     28 C           2.4439   -1.5517   -0.5496 C.ar    1  LIG1        0.0185
     29 C           2.9033   -0.2636   -0.3356 C.ar    1  LIG1        0.0735
     30 N           1.8231    0.5470   -0.1093 N.ar    1  LIG1       -0.3486
     31 H           1.8878    1.5083    0.1849 H       1  LIG1        0.1661
     32 O           0.1290   -2.5144   -0.5501 O.3     1  LIG1       -0.5043
     33 H           0.3960   -3.0991   -1.2683 H       1  LIG1        0.2922
     34 C           3.2598   -2.7756   -0.8852 C.3     1  LIG1       -0.0342
     35 H           2.9643   -3.1863   -1.8541 H       1  LIG1        0.0279
     36 H           3.1264   -3.5530   -0.1303 H       1  LIG1        0.0279
     37 H           4.3160   -2.5107   -0.9358 H       1  LIG1        0.0279
     38 C           4.2770    0.2297   -0.2836 C.ar    1  LIG1        0.1055
     39 C           5.3274   -0.2467    0.4658 C.ar    1  LIG1        0.1463
     40 C           6.4744    0.5538    0.2117 C.ar    1  LIG1        0.0090
     41 C           6.0696    1.5064   -0.6949 C.ar    1  LIG1        0.0087
     42 N           4.7512    1.3173   -0.9837 N.ar    1  LIG1       -0.3563
     43 H           4.2243    1.8109   -1.6848 H       1  LIG1        0.1655
     44 H           6.6335    2.3038   -1.1492 H       1  LIG1        0.0811
     45 O           5.3079   -1.2992    1.3322 O.3     1  LIG1       -0.5043
     46 H           4.3898   -1.5675    1.4681 H       1  LIG1        0.2922
     47 C           7.8288    0.3747    0.8466 C.3     1  LIG1       -0.0348
     48 H           8.2367   -0.6076    0.6056 H       1  LIG1        0.0279
     49 H           7.7512    0.4521    1.9319 H       1  LIG1        0.0279
     50 H           8.5173    1.1395    0.4875 H       1  LIG1        0.0279
@<TRIPOS>BOND
     1    13    10    1
     2    35    34    1
     3    43    42    1
     4    11    10    1
     5    10    12    1
     6    10     3    1
     7    33    32    1
     8    44    41    1
     9     9     8    1
    10    42    41   ar
    11    42    38   ar
    12    37    34    1
    13    34    28    1
    14    34    36    1
    15    41    40   ar
    16    23    22    1
    17    32    27    1
    18    28    27   ar
    19    28    29   ar
    20    27    26   ar
    21     3     2   ar
    22     3     4   ar
    23    29    38    1
    24    29    30   ar
    25    38    39   ar
    26    19    18    1
    27     8     2    1
    28    26    30   ar
    29    26    17    1
    30    30    31    1
    31    18    17   ar
    32    18    14   ar
    33    17    16   ar
    34     2     1   ar
    35    14     4    1
    36    14    15   ar
    37    40    39   ar
    38    40    47    1
    39    16    22    1
    40    16    15   ar
    41     4     5   ar
    42    22    25    1
    43    22    24    1
    44    15    20    1
    45    39    45    1
    46    50    47    1
    47    20    21    1
    48    48    47    1
    49    47    49    1
    50     1     5   ar
    51     1     7    1
    52     5     6    1
    53    45    46    1
