@<TRIPOS>MOLECULE
mol_data/opt/m06hf/geoms/mol2/13fi13fi-4fi13fi.out
 52 55 0 0 0
SMALL
GASTEIGER

@<TRIPOS>ATOM
      1 C           1.3647   -0.3002   -0.1944 C.ar    1  LIG1        0.0445
      2 C           1.0053    0.9926    0.1020 C.ar    1  LIG1        0.1376
      3 C          -0.4104    1.0572    0.2310 C.ar    1  LIG1        0.0178
      4 C          -0.8637   -0.2277   -0.0038 C.ar    1  LIG1        0.0730
      5 N           0.2133   -1.0286   -0.2533 N.ar    1  LIG1       -0.3561
      6 H           0.1153   -2.0139   -0.4558 H       1  LIG1        0.1655
      7 H           2.3360   -0.7333   -0.3516 H       1  LIG1        0.0844
      8 O           1.8730    2.0457    0.2948 O.3     1  LIG1       -0.5050
      9 H           1.8389    2.6203   -0.4780 H       1  LIG1        0.2922
     10 C          -1.2036    2.2887    0.5885 C.3     1  LIG1       -0.0342
     11 H          -1.9055    2.0794    1.3987 H       1  LIG1        0.0279
     12 H          -1.7619    2.6792   -0.2677 H       1  LIG1        0.0279
     13 H          -0.5132    3.0613    0.9279 H       1  LIG1        0.0279
     14 C          -2.2054   -0.7913   -0.0225 C.ar    1  LIG1        0.1059
     15 C          -2.5983   -2.1124   -0.0979 C.ar    1  LIG1        0.1469
     16 C          -4.0115   -2.1771   -0.1421 C.ar    1  LIG1        0.0170
     17 C          -4.4504   -0.8592   -0.0765 C.ar    1  LIG1        0.0570
     18 N          -3.3461   -0.0530   -0.0115 N.ar    1  LIG1       -0.3498
     19 H          -3.4015    0.9537   -0.0559 H       1  LIG1        0.1661
     20 O          -1.7218   -3.1797   -0.1874 O.3     1  LIG1       -0.5043
     21 H          -1.7609   -3.6875    0.6317 H       1  LIG1        0.2922
     22 C          -4.7875   -3.4599   -0.3109 C.3     1  LIG1       -0.0342
     23 H          -4.1278   -4.2034   -0.7604 H       1  LIG1        0.0279
     24 H          -5.6436   -3.3102   -0.9700 H       1  LIG1        0.0279
     25 H          -5.1472   -3.8542    0.6433 H       1  LIG1        0.0279
     26 C          -6.1063    1.0095   -0.4480 C.ar    1  LIG1        0.1266
     27 C          -7.4108    1.4737   -0.4742 C.ar    1  LIG1       -0.0100
     28 C          -5.8168   -0.3113   -0.0699 C.ar    1  LIG1        0.0404
     29 C          -8.4793    0.6521   -0.1037 C.ar    1  LIG1        0.0083
     30 H          -7.6171    2.4940   -0.7774 H       1  LIG1        0.0661
     31 C          -6.8967   -1.0988    0.3382 C.ar    1  LIG1       -0.0456
     32 C          -8.2182   -0.6565    0.3322 C.ar    1  LIG1       -0.0404
     33 H          -6.6888   -2.0939    0.7092 H       1  LIG1        0.0628
     34 O          -5.0648    1.8323   -0.7965 O.3     1  LIG1       -0.5061
     35 H          -5.3985    2.6931   -1.0704 H       1  LIG1        0.2922
     36 C          -9.3067   -1.5856    0.8455 C.3     1  LIG1       -0.0391
     37 H          -8.8737   -2.3033    1.5418 H       1  LIG1        0.0278
     38 H          -9.7653   -2.1560    0.0318 H       1  LIG1        0.0278
     39 H         -10.0840   -1.0221    1.3621 H       1  LIG1        0.0278
     40 C          -9.8325    1.2338   -0.1663 C.ar    1  LIG1        0.0891
     41 C         -10.2429    2.5311    0.0621 C.ar    1  LIG1        0.1449
     42 C         -11.6432    2.6256   -0.1669 C.ar    1  LIG1        0.0089
     43 C         -12.0446    1.3649   -0.5414 C.ar    1  LIG1        0.0087
     44 N         -10.9592    0.5416   -0.5371 N.ar    1  LIG1       -0.3575
     45 H         -10.9536   -0.4141   -0.8516 H       1  LIG1        0.1655
     46 H         -13.0215    1.0046   -0.8158 H       1  LIG1        0.0811
     47 O          -9.4103    3.5699    0.4046 O.3     1  LIG1       -0.5044
     48 H          -9.7347    3.9887    1.2099 H       1  LIG1        0.2922
     49 C         -12.4762    3.8734   -0.0211 C.3     1  LIG1       -0.0348
     50 H         -13.4639    3.7219   -0.4553 H       1  LIG1        0.0279
     51 H         -11.9930    4.7064   -0.5338 H       1  LIG1        0.0279
     52 H         -12.6054    4.1452    1.0293 H       1  LIG1        0.0279
@<TRIPOS>BOND
     1    35    34    1
     2    24    22    1
     3    45    44    1
     4    46    43    1
     5    34    26    1
     6    30    27    1
     7    23    22    1
     8    43    44   ar
     9    43    42   ar
    10    44    40   ar
    11    51    49    1
    12     9     8    1
    13    27    26   ar
    14    27    29   ar
    15     6     5    1
    16    50    49    1
    17    26    28   ar
    18     7     1    1
    19    22    16    1
    20    22    25    1
    21    12    10    1
    22     5     1   ar
    23     5     4   ar
    24     1     2   ar
    25    20    15    1
    26    20    21    1
    27    42    49    1
    28    42    41   ar
    29    40    29    1
    30    40    41   ar
    31    16    15   ar
    32    16    17   ar
    33    29    32   ar
    34    15    14   ar
    35    17    28    1
    36    17    18   ar
    37    28    31   ar
    38    19    18    1
    39    14    18   ar
    40    14     4    1
    41    49    52    1
    42     4     3   ar
    43    38    36    1
    44    41    47    1
    45     2     3   ar
    46     2     8    1
    47     3    10    1
    48    32    31   ar
    49    32    36    1
    50    31    33    1
    51    47    48    1
    52    10    13    1
    53    10    11    1
    54    36    39    1
    55    36    37    1
