@<TRIPOS>MOLECULE
mol_data/opt/m06hf/geoms/mol2/13fi13hf6ae-4el-.out
 54 57 0 0 0
SMALL
GASTEIGER

@<TRIPOS>ATOM
      1 C           0.8745    0.1994    1.7709 C.ar    1  LIG1        0.0455
      2 C           0.8071    1.1629    0.8018 C.ar    1  LIG1        0.1521
      3 C          -0.4408    1.0005    0.1265 C.ar    1  LIG1        0.1197
      4 C          -1.1007   -0.0656    0.7192 C.ar    1  LIG1        0.0845
      5 N          -0.2909   -0.5313    1.6990 N.ar    1  LIG1       -0.3554
      6 H          -0.5647   -1.2513    2.3499 H       1  LIG1        0.1655
      7 H           1.6457   -0.0067    2.4893 H       1  LIG1        0.0845
      8 O           1.7637    2.0850    0.5386 O.3     1  LIG1       -0.5040
      9 H           1.4879    2.6472   -0.1950 H       1  LIG1        0.2923
     10 N          -1.1774    2.4162   -1.8977 N.1     1  LIG1       -0.1907
     11 C          -0.8747    1.7672   -0.9982 C.1     1  LIG1        0.1050
     12 C          -2.4057   -0.6497    0.4250 C.ar    1  LIG1        0.0712
     13 C          -3.6175   -0.0297    0.1783 C.ar    1  LIG1        0.0186
     14 C          -4.5479   -1.0828   -0.0007 C.ar    1  LIG1        0.1489
     15 C          -3.8939   -2.2981    0.1404 C.ar    1  LIG1        0.0946
     16 N          -2.5869   -2.0020    0.4070 N.ar    1  LIG1       -0.3497
     17 H          -1.8657   -2.7091    0.4292 H       1  LIG1        0.1661
     18 C          -3.9387    1.4428    0.1693 C.3     1  LIG1       -0.0341
     19 H          -4.9790    1.5769    0.4667 H       1  LIG1        0.0279
     20 H          -3.7905    1.8752   -0.8214 H       1  LIG1        0.0279
     21 H          -3.2935    1.9727    0.8710 H       1  LIG1        0.0279
     22 O          -5.8835   -0.9217   -0.2421 O.3     1  LIG1       -0.4927
     23 C          -6.1804   -0.6693   -1.6177 C.3     1  LIG1        0.0789
     24 H          -7.2601   -0.5589   -1.6834 H       1  LIG1        0.0660
     25 H          -5.6864    0.2459   -1.9475 H       1  LIG1        0.0660
     26 H          -5.8456   -1.5085   -2.2311 H       1  LIG1        0.0660
     27 C          -3.6158   -4.8153   -0.0101 C.ar    1  LIG1        0.2246
     28 C          -4.4303   -3.6596    0.0554 C.ar    1  LIG1        0.0646
     29 C          -5.7985   -3.8876    0.0219 C.ar    1  LIG1       -0.0279
     30 C          -6.2915   -5.1933   -0.0749 C.ar    1  LIG1        0.0786
     31 C          -5.3949   -6.2596   -0.1235 C.ar    1  LIG1        0.0934
     32 N          -4.0769   -6.0425   -0.1038 N.ar    1  LIG1       -0.2110
     33 H          -6.4784   -3.0471    0.0711 H       1  LIG1        0.0639
     34 O          -2.2783   -4.6468    0.0316 O.3     1  LIG1       -0.4792
     35 C          -1.4726   -5.8288   -0.0200 C.3     1  LIG1        0.0804
     36 H          -0.4470   -5.4768    0.0424 H       1  LIG1        0.0660
     37 H          -1.7180   -6.4821    0.8154 H       1  LIG1        0.0660
     38 H          -1.6464   -6.3551   -0.9568 H       1  LIG1        0.0660
     39 N          -8.8556   -5.5118   -0.2862 N.1     1  LIG1       -0.1908
     40 C          -7.7188   -5.3981   -0.1795 C.1     1  LIG1        0.1013
     41 C          -6.6816   -8.2706    0.7034 C.ar    1  LIG1        0.0341
     42 C          -7.0607   -9.6087    0.5308 C.ar    1  LIG1       -0.0423
     43 C          -5.8364   -7.6805   -0.2437 C.ar    1  LIG1        0.0205
     44 C          -6.6095  -10.3436   -0.5506 C.ar    1  LIG1       -0.0190
     45 H          -7.7131  -10.0614    1.2646 H       1  LIG1        0.0631
     46 C          -5.3611   -8.4248   -1.3211 C.ar    1  LIG1       -0.0098
     47 C          -5.7522   -9.7498   -1.4791 C.ar    1  LIG1        0.1176
     48 H          -4.6898   -7.9557   -2.0313 H       1  LIG1        0.0661
     49 H          -6.8986  -11.3747   -0.6985 H       1  LIG1        0.0654
     50 C          -7.1312   -7.5511    1.8709 C.1     1  LIG1       -0.0690
     51 C          -7.5088   -6.9771    2.8568 C.1     1  LIG1       -0.1139
     52 H          -7.8505   -6.4594    3.7229 H       1  LIG1        0.1232
     53 O          -5.3338  -10.5176   -2.5173 O.3     1  LIG1       -0.5067
     54 H          -4.7623  -10.0161   -3.1082 H       1  LIG1        0.2921
@<TRIPOS>BOND
     1    54    53    1
     2    53    47    1
     3    26    23    1
     4    48    46    1
     5    25    23    1
     6    10    11    3
     7    24    23    1
     8    23    22    1
     9    47    46   ar
    10    47    44   ar
    11    46    43   ar
    12    11     3    1
    13    38    35    1
    14    20    18    1
    15    49    44    1
    16    44    42   ar
    17    39    40    3
    18    43    31    1
    19    43    41   ar
    20    22    14    1
    21     9     8    1
    22    40    30    1
    23    31    32   ar
    24    31    30   ar
    25    32    27   ar
    26    30    29   ar
    27    35    34    1
    28    35    36    1
    29    35    37    1
    30    27    34    1
    31    27    28   ar
    32    14    15   ar
    33    14    13   ar
    34    29    28   ar
    35    29    33    1
    36    28    15    1
    37     3     4   ar
    38     3     2   ar
    39    15    16   ar
    40    18    13    1
    41    18    19    1
    42    18    21    1
    43    13    12   ar
    44    16    12   ar
    45    16    17    1
    46    12     4    1
    47    42    41   ar
    48    42    45    1
    49     8     2    1
    50    41    50    1
    51     4     5   ar
    52     2     1   ar
    53     5     1   ar
    54     5     6    1
    55     1     7    1
    56    50    51    3
    57    51    52    1
