@<TRIPOS>MOLECULE
mol_data/opt/m06hf/geoms/mol2/13fl13fl13fl.out
 41 43 0 0 0
SMALL
GASTEIGER

@<TRIPOS>ATOM
      1 C           0.9444   -0.4035   -1.4400 C.ar    1  LIG1        0.0480
      2 C           0.9192    0.7784   -0.7460 C.ar    1  LIG1        0.1769
      3 C          -0.3775    0.9095   -0.1725 C.ar    1  LIG1        0.1882
      4 C          -1.1083   -0.2025   -0.5332 C.ar    1  LIG1        0.1126
      5 N          -0.2888   -0.9900   -1.2923 N.ar    1  LIG1       -0.3534
      6 H          -0.6001   -1.8047   -1.7940 H       1  LIG1        0.1656
      7 H           1.7302   -0.8651   -2.0115 H       1  LIG1        0.0845
      8 O           1.9084    1.7055   -0.5685 O.3     1  LIG1       -0.5023
      9 H           2.6793    1.4665   -1.0926 H       1  LIG1        0.2923
     10 O          -0.8230    1.9413    0.6182 O.3     1  LIG1       -0.4895
     11 C          -0.7490    3.2183   -0.0358 C.3     1  LIG1        0.0791
     12 H          -1.1000    3.9480    0.6904 H       1  LIG1        0.0660
     13 H           0.2820    3.4247   -0.3176 H       1  LIG1        0.0660
     14 H          -1.3976    3.2096   -0.9134 H       1  LIG1        0.0660
     15 C          -2.4776   -0.5725   -0.2085 C.ar    1  LIG1        0.1129
     16 C          -3.5307    0.2367    0.1722 C.ar    1  LIG1        0.1866
     17 C          -4.6709   -0.6007    0.3141 C.ar    1  LIG1        0.1889
     18 C          -4.2769   -1.8867    0.0183 C.ar    1  LIG1        0.1131
     19 N          -2.9533   -1.8594   -0.3046 N.ar    1  LIG1       -0.3458
     20 H          -2.4130   -2.7064   -0.4137 H       1  LIG1        0.1662
     21 O          -3.5099    1.5811    0.3823 O.3     1  LIG1       -0.5019
     22 H          -2.6095    1.8131    0.6777 H       1  LIG1        0.2924
     23 O          -5.9497   -0.2541    0.6612 O.3     1  LIG1       -0.4895
     24 C          -6.0169    0.4411    1.9085 C.3     1  LIG1        0.0791
     25 H          -7.0681    0.6595    2.0823 H       1  LIG1        0.0660
     26 H          -5.6230   -0.1942    2.7048 H       1  LIG1        0.0660
     27 H          -5.4413    1.3642    1.8454 H       1  LIG1        0.0660
     28 C          -5.0442   -3.1138    0.0306 C.ar    1  LIG1        0.1124
     29 C          -4.6309   -4.4047   -0.1874 C.ar    1  LIG1        0.1859
     30 C          -5.7661   -5.2424   -0.0606 C.ar    1  LIG1        0.1793
     31 C          -6.8466   -4.4360    0.2315 C.ar    1  LIG1        0.0482
     32 N          -6.3858   -3.1487    0.2803 N.ar    1  LIG1       -0.3534
     33 H          -6.9172   -2.3064    0.4466 H       1  LIG1        0.1656
     34 H          -7.8808   -4.6753    0.3991 H       1  LIG1        0.0845
     35 O          -3.3455   -4.7845   -0.4784 O.3     1  LIG1       -0.5019
     36 H          -3.3056   -5.7483   -0.4571 H       1  LIG1        0.2924
     37 O          -5.6630   -6.5923   -0.2167 O.3     1  LIG1       -0.4900
     38 C          -6.8781   -7.2993   -0.0653 C.3     1  LIG1        0.0790
     39 H          -6.6480   -8.3506   -0.2179 H       1  LIG1        0.0660
     40 H          -7.2816   -7.1467    0.9396 H       1  LIG1        0.0660
     41 H          -7.6047   -6.9634   -0.8100 H       1  LIG1        0.0660
@<TRIPOS>BOND
     1     7     1    1
     2     6     5    1
     3     1     5   ar
     4     1     2   ar
     5     5     4   ar
     6     9     8    1
     7    14    11    1
     8    41    38    1
     9     2     8    1
    10     2     3   ar
    11     4    15    1
    12     4     3   ar
    13    35    36    1
    14    35    29    1
    15    20    19    1
    16    13    11    1
    17    19    15   ar
    18    19    18   ar
    19    39    38    1
    20    37    38    1
    21    37    30    1
    22    15    16   ar
    23    29    30   ar
    24    29    28   ar
    25     3    10    1
    26    38    40    1
    27    30    31   ar
    28    11    10    1
    29    11    12    1
    30    18    28    1
    31    18    17   ar
    32    28    32   ar
    33    16    17   ar
    34    16    21    1
    35    31    32   ar
    36    31    34    1
    37    32    33    1
    38    17    23    1
    39    21    22    1
    40    23    24    1
    41    27    24    1
    42    24    25    1
    43    24    26    1
