@<TRIPOS>MOLECULE
mol_data/opt/m06hf/geoms/mol2/13fl13fl-13fl13fl-.out
 54 57 0 0 0
SMALL
GASTEIGER

@<TRIPOS>ATOM
      1 C           1.4458   -0.3119   -0.4593 C.ar    1  LIG1        0.0480
      2 C           1.0618    1.0051   -0.5205 C.ar    1  LIG1        0.1769
      3 C          -0.3564    1.0359   -0.4645 C.ar    1  LIG1        0.1882
      4 C          -0.7957   -0.2655   -0.3699 C.ar    1  LIG1        0.1126
      5 N           0.3038   -1.0670   -0.3636 N.ar    1  LIG1       -0.3534
      6 H           0.2428   -2.0718   -0.2900 H       1  LIG1        0.1656
      7 H           2.4284   -0.7463   -0.4717 H       1  LIG1        0.0845
      8 O           1.8801    2.0998   -0.5899 O.3     1  LIG1       -0.5023
      9 H           1.4119    2.7865   -1.0793 H       1  LIG1        0.2923
     10 O          -1.1491    2.1586   -0.4972 O.3     1  LIG1       -0.4895
     11 C          -1.2524    2.7872    0.7841 C.3     1  LIG1        0.0791
     12 H          -1.8952    3.6546    0.6515 H       1  LIG1        0.0660
     13 H          -1.6965    2.0937    1.5008 H       1  LIG1        0.0660
     14 H          -0.2632    3.0927    1.1295 H       1  LIG1        0.0660
     15 C          -2.1531   -0.7643   -0.2912 C.ar    1  LIG1        0.1129
     16 C          -2.6257   -2.0468   -0.1292 C.ar    1  LIG1        0.1866
     17 C          -4.0404   -1.9763   -0.1018 C.ar    1  LIG1        0.1889
     18 C          -4.3882   -0.6484   -0.2494 C.ar    1  LIG1        0.1131
     19 N          -3.2368    0.0688   -0.3574 N.ar    1  LIG1       -0.3458
     20 H          -3.1814    1.0680   -0.5159 H       1  LIG1        0.1662
     21 O          -1.8401   -3.1657    0.0037 O.3     1  LIG1       -0.5019
     22 H          -2.3071   -3.9105   -0.3941 H       1  LIG1        0.2924
     23 O          -4.9079   -3.0301    0.0391 O.3     1  LIG1       -0.4895
     24 C          -5.1038   -3.4001    1.4077 C.3     1  LIG1        0.0791
     25 H          -5.7765   -4.2550    1.4029 H       1  LIG1        0.0660
     26 H          -4.1478   -3.6678    1.8610 H       1  LIG1        0.0660
     27 H          -5.5530   -2.5687    1.9537 H       1  LIG1        0.0660
     28 C          -5.7039   -0.0485   -0.2980 C.ar    1  LIG1        0.1129
     29 C          -6.0670    1.2788   -0.3534 C.ar    1  LIG1        0.1866
     30 C          -7.4834    1.3276   -0.3631 C.ar    1  LIG1        0.1889
     31 C          -7.9404    0.0265   -0.3129 C.ar    1  LIG1        0.1131
     32 N          -6.8528   -0.7910   -0.2707 N.ar    1  LIG1       -0.3458
     33 H          -6.8832   -1.8043   -0.2798 H       1  LIG1        0.1662
     34 O          -5.1890    2.3373   -0.3512 O.3     1  LIG1       -0.5019
     35 H          -5.4919    2.9868   -0.9972 H       1  LIG1        0.2924
     36 O          -8.2694    2.4539   -0.4049 O.3     1  LIG1       -0.4895
     37 C          -8.3426    3.1023    0.8684 C.3     1  LIG1        0.0791
     38 H          -8.9509    3.9935    0.7296 H       1  LIG1        0.0660
     39 H          -8.8047    2.4328    1.5965 H       1  LIG1        0.0660
     40 H          -7.3406    3.3763    1.2026 H       1  LIG1        0.0660
     41 C          -9.3024   -0.4649   -0.3148 C.ar    1  LIG1        0.1124
     42 C          -9.7794   -1.7402   -0.1448 C.ar    1  LIG1        0.1859
     43 C         -11.1927   -1.6806   -0.2408 C.ar    1  LIG1        0.1793
     44 C         -11.5411   -0.3661   -0.4671 C.ar    1  LIG1        0.0482
     45 N         -10.3796    0.3567   -0.5030 N.ar    1  LIG1       -0.3534
     46 H         -10.2750    1.3413   -0.6982 H       1  LIG1        0.1656
     47 H         -12.5015    0.0956   -0.6053 H       1  LIG1        0.0845
     48 O          -9.0116   -2.8503    0.0770 O.3     1  LIG1       -0.5019
     49 H          -9.5940   -3.6194    0.0912 H       1  LIG1        0.2924
     50 O         -11.9507   -2.8057   -0.1164 O.3     1  LIG1       -0.4900
     51 C         -13.3404   -2.6063   -0.2875 C.3     1  LIG1        0.0790
     52 H         -13.8117   -3.5781   -0.1662 H       1  LIG1        0.0660
     53 H         -13.7173   -1.9116    0.4684 H       1  LIG1        0.0660
     54 H         -13.5445   -2.2119   -1.2864 H       1  LIG1        0.0660
@<TRIPOS>BOND
     1    54    51    1
     2     9     8    1
     3    35    34    1
     4    46    45    1
     5    47    44    1
     6     8     2    1
     7     2     3   ar
     8     2     1   ar
     9    20    19    1
    10    45    44   ar
    11    45    41   ar
    12    10     3    1
    13    10    11    1
    14     7     1    1
    15    44    43   ar
    16     3     4   ar
    17     1     5   ar
    18    36    30    1
    19    36    37    1
    20    22    21    1
    21     4     5   ar
    22     4    15    1
    23     5     6    1
    24    30    29   ar
    25    30    31   ar
    26    19    15   ar
    27    19    18   ar
    28    29    34    1
    29    29    28   ar
    30    41    31    1
    31    41    42   ar
    32    31    32   ar
    33    28    32   ar
    34    28    18    1
    35    15    16   ar
    36    51    52    1
    37    51    50    1
    38    51    53    1
    39    33    32    1
    40    18    17   ar
    41    43    42   ar
    42    43    50    1
    43    42    48    1
    44    16    17   ar
    45    16    21    1
    46    17    23    1
    47    23    24    1
    48    48    49    1
    49    12    11    1
    50    38    37    1
    51    11    14    1
    52    11    13    1
    53    37    40    1
    54    37    39    1
    55    25    24    1
    56    24    26    1
    57    24    27    1
