@<TRIPOS>MOLECULE
mol_data/opt/m06hf/geoms/mol2/13fl13fl13fl13fl.out
 54 57 0 0 0
SMALL
GASTEIGER

@<TRIPOS>ATOM
      1 C           0.2541    1.1775   -2.9109 C.ar    1  LIG1        0.0480
      2 C           1.0083    1.1463   -1.7651 C.ar    1  LIG1        0.1769
      3 C           0.1977    0.6086   -0.7321 C.ar    1  LIG1        0.1882
      4 C          -1.0410    0.3318   -1.2685 C.ar    1  LIG1        0.1126
      5 N          -0.9826    0.6816   -2.5908 N.ar    1  LIG1       -0.3534
      6 H          -1.7800    0.6531   -3.2046 H       1  LIG1        0.1656
      7 H           0.5042    1.5099   -3.9015 H       1  LIG1        0.0845
      8 O           2.3073    1.5292   -1.6094 O.3     1  LIG1       -0.5023
      9 H           2.5838    1.2246   -0.7350 H       1  LIG1        0.2923
     10 O           0.6550    0.4024    0.5387 O.3     1  LIG1       -0.4895
     11 C           0.2429    1.4191    1.4586 C.3     1  LIG1        0.0791
     12 H           0.6809    1.1549    2.4192 H       1  LIG1        0.0660
     13 H           0.6189    2.3902    1.1270 H       1  LIG1        0.0660
     14 H          -0.8449    1.4507    1.5256 H       1  LIG1        0.0660
     15 C          -2.2415   -0.2496   -0.6635 C.ar    1  LIG1        0.1129
     16 C          -3.1303    0.2653    0.2520 C.ar    1  LIG1        0.1866
     17 C          -4.1319   -0.7091    0.4824 C.ar    1  LIG1        0.1889
     18 C          -3.8418   -1.8059   -0.3070 C.ar    1  LIG1        0.1131
     19 N          -2.6938   -1.5014   -0.9898 N.ar    1  LIG1       -0.3458
     20 H          -2.2337   -2.1252   -1.6332 H       1  LIG1        0.1662
     21 O          -3.0808    1.4908    0.8450 O.3     1  LIG1       -0.5019
     22 H          -3.8894    1.5915    1.3640 H       1  LIG1        0.2924
     23 O          -5.1491   -0.4549    1.3495 O.3     1  LIG1       -0.4895
     24 C          -6.3323   -1.2260    1.1734 C.3     1  LIG1        0.0791
     25 H          -7.0887   -0.7606    1.8014 H       1  LIG1        0.0660
     26 H          -6.6382   -1.2141    0.1246 H       1  LIG1        0.0660
     27 H          -6.1647   -2.2580    1.4913 H       1  LIG1        0.0660
     28 C          -4.5102   -3.1033   -0.4553 C.ar    1  LIG1        0.1129
     29 C          -5.5903   -3.4740   -1.2196 C.ar    1  LIG1        0.1866
     30 C          -5.8624   -4.8419   -0.9629 C.ar    1  LIG1        0.1889
     31 C          -4.9271   -5.2907   -0.0477 C.ar    1  LIG1        0.1131
     32 N          -4.1285   -4.2151    0.2515 N.ar    1  LIG1       -0.3458
     33 H          -3.3063   -4.2636    0.8319 H       1  LIG1        0.1662
     34 O          -6.3284   -2.6703   -2.0319 O.3     1  LIG1       -0.5019
     35 H          -6.9823   -3.2294   -2.4718 H       1  LIG1        0.2924
     36 O          -6.9137   -5.4379   -1.5818 O.3     1  LIG1       -0.4895
     37 C          -7.0256   -6.8497   -1.4436 C.3     1  LIG1        0.0791
     38 H          -7.8695   -7.1418   -2.0638 H       1  LIG1        0.0660
     39 H          -6.1087   -7.3352   -1.7851 H       1  LIG1        0.0660
     40 H          -7.2172   -7.1131   -0.4011 H       1  LIG1        0.0660
     41 C          -4.6963   -6.5887    0.5951 C.ar    1  LIG1        0.1124
     42 C          -4.2219   -7.7773    0.0971 C.ar    1  LIG1        0.1859
     43 C          -4.1762   -8.7080    1.1681 C.ar    1  LIG1        0.1793
     44 C          -4.6091   -8.0618    2.3040 C.ar    1  LIG1        0.0482
     45 N          -4.9206   -6.7831    1.9389 N.ar    1  LIG1       -0.3534
     46 H          -5.3044   -6.0771    2.5445 H       1  LIG1        0.1656
     47 H          -4.7147   -8.4053    3.3172 H       1  LIG1        0.0845
     48 O          -3.8834   -8.0423   -1.1946 O.3     1  LIG1       -0.5019
     49 H          -3.5352   -8.9423   -1.2304 H       1  LIG1        0.2924
     50 O          -3.7390   -9.9807    0.9636 O.3     1  LIG1       -0.4900
     51 C          -3.6405  -10.7740    2.1314 C.3     1  LIG1        0.0790
     52 H          -3.2666  -11.7449    1.8177 H       1  LIG1        0.0660
     53 H          -2.9466  -10.3149    2.8409 H       1  LIG1        0.0660
     54 H          -4.6247  -10.8862    2.5945 H       1  LIG1        0.0660
@<TRIPOS>BOND
     1     7     1    1
     2     6     5    1
     3     1     5   ar
     4     1     2   ar
     5     5     4   ar
     6    35    34    1
     7    38    37    1
     8    34    29    1
     9    39    37    1
    10     2     8    1
    11     2     3   ar
    12    20    19    1
    13     8     9    1
    14    36    37    1
    15    36    30    1
    16    37    40    1
    17     4     3   ar
    18     4    15    1
    19    49    48    1
    20    29    30   ar
    21    29    28   ar
    22    48    42    1
    23    19    15   ar
    24    19    18   ar
    25    30    31   ar
    26     3    10    1
    27    15    16   ar
    28    28    18    1
    29    28    32   ar
    30    18    17   ar
    31    31    32   ar
    32    31    41    1
    33    42    41   ar
    34    42    43   ar
    35    26    24    1
    36    32    33    1
    37    16    17   ar
    38    16    21    1
    39    17    23    1
    40    10    11    1
    41    41    45   ar
    42    21    22    1
    43    50    43    1
    44    50    51    1
    45    13    11    1
    46    43    44   ar
    47    24    23    1
    48    24    27    1
    49    24    25    1
    50    11    14    1
    51    11    12    1
    52    52    51    1
    53    45    44   ar
    54    45    46    1
    55    51    54    1
    56    51    53    1
    57    44    47    1
