@<TRIPOS>MOLECULE
mol_data/opt/m06hf/geoms/mol2/13fl13fl-13fl.out
 41 43 0 0 0
SMALL
GASTEIGER

@<TRIPOS>ATOM
      1 C           1.4186   -0.6849   -0.5316 C.ar    1  LIG1        0.0480
      2 C           1.1784    0.6670   -0.5352 C.ar    1  LIG1        0.1769
      3 C          -0.2272    0.8480   -0.4540 C.ar    1  LIG1        0.1882
      4 C          -0.8043   -0.4007   -0.4034 C.ar    1  LIG1        0.1126
      5 N           0.2025   -1.3156   -0.4459 N.ar    1  LIG1       -0.3534
      6 H           0.0349   -2.3101   -0.4039 H       1  LIG1        0.1656
      7 H           2.3464   -1.2243   -0.5785 H       1  LIG1        0.0845
      8 O           2.1058    1.6706   -0.5804 O.3     1  LIG1       -0.5023
      9 H           1.6848    2.4396   -0.9830 H       1  LIG1        0.2923
     10 O          -0.8882    2.0520   -0.4254 O.3     1  LIG1       -0.4895
     11 C          -0.9583    2.6034    0.8936 C.3     1  LIG1        0.0791
     12 H          -1.4955    3.5452    0.8067 H       1  LIG1        0.0660
     13 H          -1.4979    1.9195    1.5515 H       1  LIG1        0.0660
     14 H           0.0486    2.7710    1.2806 H       1  LIG1        0.0660
     15 C          -2.2049   -0.7594   -0.3118 C.ar    1  LIG1        0.1129
     16 C          -2.7963   -1.9924   -0.1593 C.ar    1  LIG1        0.1866
     17 C          -4.1963   -1.7852   -0.0905 C.ar    1  LIG1        0.1889
     18 C          -4.4174   -0.4284   -0.2072 C.ar    1  LIG1        0.1131
     19 N          -3.2041    0.1759   -0.3367 N.ar    1  LIG1       -0.3458
     20 H          -3.0592    1.1679   -0.4907 H       1  LIG1        0.1662
     21 O          -2.1199   -3.1852   -0.0550 O.3     1  LIG1       -0.5019
     22 H          -2.6249   -3.8615   -0.5224 H       1  LIG1        0.2924
     23 O          -5.1602   -2.7497    0.0804 O.3     1  LIG1       -0.4895
     24 C          -5.2409   -3.1872    1.4407 C.3     1  LIG1        0.0791
     25 H          -5.9805   -3.9848    1.4682 H       1  LIG1        0.0660
     26 H          -4.2691   -3.5604    1.7681 H       1  LIG1        0.0660
     27 H          -5.5496   -2.3556    2.0768 H       1  LIG1        0.0660
     28 C          -5.6696    0.2985   -0.2155 C.ar    1  LIG1        0.1124
     29 C          -5.9018    1.6509   -0.2140 C.ar    1  LIG1        0.1859
     30 C          -7.3071    1.8400   -0.2314 C.ar    1  LIG1        0.1793
     31 C          -7.8959    0.5933   -0.2433 C.ar    1  LIG1        0.0482
     32 N          -6.8844   -0.3293   -0.2253 N.ar    1  LIG1       -0.3534
     33 H          -6.9699   -1.3338   -0.2758 H       1  LIG1        0.1656
     34 H          -8.9296    0.2999   -0.2637 H       1  LIG1        0.0845
     35 O          -4.9350    2.6192   -0.1901 O.3     1  LIG1       -0.5019
     36 H          -5.3581    3.4710   -0.3516 H       1  LIG1        0.2924
     37 O          -7.8474    3.0903   -0.2390 O.3     1  LIG1       -0.4900
     38 C          -9.2588    3.1227   -0.3183 C.3     1  LIG1        0.0790
     39 H          -9.5473    4.1702   -0.3352 H       1  LIG1        0.0660
     40 H          -9.5965    2.6260   -1.2320 H       1  LIG1        0.0660
     41 H          -9.6966    2.6300    0.5544 H       1  LIG1        0.0660
@<TRIPOS>BOND
     1    40    38    1
     2     9     8    1
     3     8     2    1
     4     7     1    1
     5     2     1   ar
     6     2     3   ar
     7     1     5   ar
     8    22    21    1
     9    20    19    1
    10     3    10    1
    11     3     4   ar
    12     5     6    1
    13     5     4   ar
    14    10    11    1
    15     4    15    1
    16    36    35    1
    17    19    15   ar
    18    19    18   ar
    19    39    38    1
    20    38    37    1
    21    38    41    1
    22    15    16   ar
    23    33    32    1
    24    34    31    1
    25    31    30   ar
    26    31    32   ar
    27    37    30    1
    28    30    29   ar
    29    32    28   ar
    30    28    29   ar
    31    28    18    1
    32    29    35    1
    33    18    17   ar
    34    16    17   ar
    35    16    21    1
    36    17    23    1
    37    23    24    1
    38    12    11    1
    39    11    14    1
    40    11    13    1
    41    24    25    1
    42    24    26    1
    43    24    27    1
