@<TRIPOS>MOLECULE
mol_data/opt/m06hf/geoms/mol2/13fl13fl13fl-13fl.out
 54 57 0 0 0
SMALL
GASTEIGER

@<TRIPOS>ATOM
      1 C           1.4480   -0.2532    0.4345 C.ar    1  LIG1        0.0480
      2 C           1.1858    0.9231   -0.2182 C.ar    1  LIG1        0.1769
      3 C          -0.2062    0.9454   -0.5186 C.ar    1  LIG1        0.1882
      4 C          -0.7553   -0.2259   -0.0408 C.ar    1  LIG1        0.1126
      5 N           0.2634   -0.9444    0.5202 N.ar    1  LIG1       -0.3534
      6 H           0.1281   -1.7828    1.0597 H       1  LIG1        0.1656
      7 H           2.3674   -0.6463    0.8307 H       1  LIG1        0.0845
      8 O           2.0354    1.9370   -0.5639 O.3     1  LIG1       -0.5023
      9 H           2.9457    1.6764   -0.3922 H       1  LIG1        0.2923
     10 O          -0.8798    1.9358   -1.1897 O.3     1  LIG1       -0.4895
     11 C          -0.7916    3.2120   -0.5372 C.3     1  LIG1        0.0791
     12 H          -1.3304    3.9126   -1.1710 H       1  LIG1        0.0660
     13 H          -1.2621    3.1462    0.4453 H       1  LIG1        0.0660
     14 H           0.2530    3.5048   -0.4465 H       1  LIG1        0.0660
     15 C          -2.1270   -0.7083   -0.0936 C.ar    1  LIG1        0.1129
     16 C          -3.2958    0.0114   -0.2511 C.ar    1  LIG1        0.1866
     17 C          -4.3700   -0.9156   -0.1880 C.ar    1  LIG1        0.1889
     18 C          -3.8266   -2.1656    0.0116 C.ar    1  LIG1        0.1131
     19 N          -2.4699   -2.0328    0.0571 N.ar    1  LIG1       -0.3458
     20 H          -1.8511   -2.8309    0.0394 H       1  LIG1        0.1662
     21 O          -3.4307    1.3547   -0.4159 O.3     1  LIG1       -0.5019
     22 H          -2.6494    1.6665   -0.9077 H       1  LIG1        0.2924
     23 O          -5.7096   -0.6703   -0.3011 O.3     1  LIG1       -0.4895
     24 C          -6.2093    0.1973    0.7176 C.3     1  LIG1        0.0791
     25 H          -7.2736    0.3114    0.5257 H       1  LIG1        0.0660
     26 H          -6.0477   -0.2551    1.6985 H       1  LIG1        0.0660
     27 H          -5.7055    1.1628    0.6605 H       1  LIG1        0.0660
     28 C          -4.4907   -3.4465    0.1190 C.ar    1  LIG1        0.1129
     29 C          -3.9578   -4.6994    0.3257 C.ar    1  LIG1        0.1866
     30 C          -5.0346   -5.6170    0.3597 C.ar    1  LIG1        0.1889
     31 C          -6.1969   -4.8940    0.1749 C.ar    1  LIG1        0.1131
     32 N          -5.8484   -3.5872    0.0287 N.ar    1  LIG1       -0.3458
     33 H          -6.4875   -2.8217   -0.1590 H       1  LIG1        0.1662
     34 O          -2.6152   -4.9784    0.4419 O.3     1  LIG1       -0.5019
     35 H          -2.5116   -5.7084    1.0641 H       1  LIG1        0.2924
     36 O          -4.9438   -6.9772    0.5392 O.3     1  LIG1       -0.4895
     37 C          -4.5715   -7.6525   -0.6668 C.3     1  LIG1        0.0791
     38 H          -4.4781   -8.7078   -0.4175 H       1  LIG1        0.0660
     39 H          -5.3418   -7.5040   -1.4260 H       1  LIG1        0.0660
     40 H          -3.6190   -7.2641   -1.0311 H       1  LIG1        0.0660
     41 C          -7.5674   -5.3622    0.1545 C.ar    1  LIG1        0.1124
     42 C          -8.7300   -4.6757   -0.0892 C.ar    1  LIG1        0.1859
     43 C          -9.8001   -5.5995    0.0257 C.ar    1  LIG1        0.1793
     44 C          -9.2597   -6.8280    0.3405 C.ar    1  LIG1        0.0482
     45 N          -7.9021   -6.6642    0.4094 N.ar    1  LIG1       -0.3534
     46 H          -7.2171   -7.3481    0.6947 H       1  LIG1        0.1656
     47 H          -9.7253   -7.7805    0.5165 H       1  LIG1        0.0845
     48 O          -8.8131   -3.3427   -0.3782 O.3     1  LIG1       -0.5019
     49 H          -9.7363   -3.1251   -0.5535 H       1  LIG1        0.2924
     50 O         -11.0892   -5.2083   -0.1775 O.3     1  LIG1       -0.4900
     51 C         -12.0502   -6.2314   -0.0073 C.3     1  LIG1        0.0790
     52 H         -13.0222   -5.7807   -0.1871 H       1  LIG1        0.0660
     53 H         -11.8733   -7.0374   -0.7249 H       1  LIG1        0.0660
     54 H         -12.0027   -6.6267    1.0113 H       1  LIG1        0.0660
@<TRIPOS>BOND
     1    39    37    1
     2    10    11    1
     3    10     3    1
     4    12    11    1
     5    40    37    1
     6    22    21    1
     7    53    51    1
     8    37    38    1
     9    37    36    1
    10     8     9    1
    11     8     2    1
    12    49    48    1
    13    11    14    1
    14    11    13    1
    15     3     2   ar
    16     3     4   ar
    17    21    16    1
    18    48    42    1
    19    23    17    1
    20    23    24    1
    21    16    17   ar
    22    16    15   ar
    23     2     1   ar
    24    17    18   ar
    25    52    51    1
    26    50    51    1
    27    50    43    1
    28    33    32    1
    29    15     4    1
    30    15    19   ar
    31    42    43   ar
    32    42    41   ar
    33     4     5   ar
    34    51    54    1
    35    18    19   ar
    36    18    28    1
    37    43    44   ar
    38    32    28   ar
    39    32    31   ar
    40    20    19    1
    41    28    29   ar
    42    41    31    1
    43    41    45   ar
    44    31    30   ar
    45    29    30   ar
    46    29    34    1
    47    44    45   ar
    48    44    47    1
    49    30    36    1
    50    45    46    1
    51     1     5   ar
    52     1     7    1
    53    34    35    1
    54     5     6    1
    55    25    24    1
    56    27    24    1
    57    24    26    1
