@<TRIPOS>MOLECULE
mol_data/opt/m06hf/geoms/mol2/13fl13fl.out
 28 29 0 0 0
SMALL
GASTEIGER

@<TRIPOS>ATOM
      1 C           1.3754   -0.5752   -0.5535 C.ar    1  LIG1        0.0480
      2 C           1.3352    0.6605    0.0418 C.ar    1  LIG1        0.1769
      3 C          -0.0186    0.9352    0.3667 C.ar    1  LIG1        0.1882
      4 C          -0.7788   -0.1369   -0.0472 C.ar    1  LIG1        0.1126
      5 N           0.0880   -1.0419   -0.5989 N.ar    1  LIG1       -0.3534
      6 H          -0.2101   -1.8924   -1.0471 H       1  LIG1        0.1656
      7 H           2.2074   -1.1355   -0.9388 H       1  LIG1        0.0845
      8 O           2.3827    1.4915    0.3074 O.3     1  LIG1       -0.5023
      9 H           2.0427    2.1981    0.8718 H       1  LIG1        0.2923
     10 O          -0.4210    2.0752    1.0021 O.3     1  LIG1       -0.4895
     11 C          -0.9123    3.0730    0.1006 C.3     1  LIG1        0.0791
     12 H          -1.2018    3.9225    0.7157 H       1  LIG1        0.0660
     13 H          -0.1220    3.3643   -0.5957 H       1  LIG1        0.0660
     14 H          -1.7688    2.6886   -0.4545 H       1  LIG1        0.0660
     15 C          -2.2183   -0.3822    0.0618 C.ar    1  LIG1        0.1124
     16 C          -3.2812    0.1848   -0.5964 C.ar    1  LIG1        0.1859
     17 C          -4.4674   -0.4154   -0.0995 C.ar    1  LIG1        0.1793
     18 C          -4.1030   -1.3414    0.8517 C.ar    1  LIG1        0.0482
     19 N          -2.7398   -1.3117    0.9317 N.ar    1  LIG1       -0.3534
     20 H          -2.1815   -1.8060    1.6075 H       1  LIG1        0.1656
     21 H          -4.6944   -1.9986    1.4631 H       1  LIG1        0.0845
     22 O          -3.2299    1.1487   -1.5581 O.3     1  LIG1       -0.5019
     23 H          -4.1350    1.3267   -1.8424 H       1  LIG1        0.2924
     24 O          -5.6867   -0.0521   -0.5865 O.3     1  LIG1       -0.4900
     25 C          -6.7877   -0.6801    0.0412 C.3     1  LIG1        0.0790
     26 H          -7.6838   -0.2813   -0.4263 H       1  LIG1        0.0660
     27 H          -6.7399   -1.7622   -0.1075 H       1  LIG1        0.0660
     28 H          -6.7895   -0.4527    1.1109 H       1  LIG1        0.0660
@<TRIPOS>BOND
     1    23    22    1
     2    22    16    1
     3     6     5    1
     4     7     1    1
     5     5     1   ar
     6     5     4   ar
     7    16    17   ar
     8    16    15   ar
     9    13    11    1
    10    24    17    1
    11    24    25    1
    12     1     2   ar
    13    14    11    1
    14    26    25    1
    15    27    25    1
    16    17    18   ar
    17     4    15    1
    18     4     3   ar
    19    25    28    1
    20     2     8    1
    21     2     3   ar
    22    15    19   ar
    23    11    12    1
    24    11    10    1
    25     8     9    1
    26     3    10    1
    27    18    19   ar
    28    18    21    1
    29    19    20    1
