@<TRIPOS>MOLECULE
mol_data/opt/m06hf/geoms/mol2/13fl13fl-.out
 28 29 0 0 0
SMALL
GASTEIGER

@<TRIPOS>ATOM
      1 C           1.4042   -0.2954   -0.1205 C.ar    1  LIG1        0.0480
      2 C           1.0511    1.0107   -0.3526 C.ar    1  LIG1        0.1769
      3 C          -0.3673    1.0628   -0.4044 C.ar    1  LIG1        0.1882
      4 C          -0.8370   -0.2144   -0.1998 C.ar    1  LIG1        0.1126
      5 N           0.2446   -1.0222   -0.0282 N.ar    1  LIG1       -0.3534
      6 H           0.1638   -2.0132    0.1477 H       1  LIG1        0.1656
      7 H           2.3756   -0.7413   -0.0127 H       1  LIG1        0.0845
      8 O           1.8928    2.0840   -0.4744 O.3     1  LIG1       -0.5023
      9 H           1.5071    2.6924   -1.1160 H       1  LIG1        0.2923
     10 O          -1.1335    2.1875   -0.6043 O.3     1  LIG1       -0.4895
     11 C          -1.2250    2.9839    0.5814 C.3     1  LIG1        0.0791
     12 H          -1.7978    3.8710    0.3184 H       1  LIG1        0.0660
     13 H          -1.7315    2.4189    1.3663 H       1  LIG1        0.0660
     14 H          -0.2252    3.2636    0.9167 H       1  LIG1        0.0660
     15 C          -2.2035   -0.6973   -0.1700 C.ar    1  LIG1        0.1124
     16 C          -2.6937   -1.9421    0.1318 C.ar    1  LIG1        0.1859
     17 C          -4.1054   -1.8833    0.0141 C.ar    1  LIG1        0.1793
     18 C          -4.4396   -0.5992   -0.3597 C.ar    1  LIG1        0.0482
     19 N          -3.2704    0.1059   -0.4626 N.ar    1  LIG1       -0.3534
     20 H          -3.1548    1.0611   -0.7682 H       1  LIG1        0.1656
     21 H          -5.3937   -0.1454   -0.5559 H       1  LIG1        0.0845
     22 O          -1.9363   -3.0266    0.4847 O.3     1  LIG1       -0.5019
     23 H          -2.5312   -3.7653    0.6609 H       1  LIG1        0.2924
     24 O          -4.8759   -2.9784    0.2660 O.3     1  LIG1       -0.4900
     25 C          -6.2695   -2.7479    0.2011 C.3     1  LIG1        0.0790
     26 H          -6.7543   -3.6880    0.4492 H       1  LIG1        0.0660
     27 H          -6.5562   -1.9758    0.9200 H       1  LIG1        0.0660
     28 H          -6.5541   -2.4367   -0.8081 H       1  LIG1        0.0660
@<TRIPOS>BOND
     1     9     8    1
     2    28    25    1
     3    20    19    1
     4    10     3    1
     5    10    11    1
     6    21    18    1
     7     8     2    1
     8    19    18   ar
     9    19    15   ar
    10     3     2   ar
    11     3     4   ar
    12    18    17   ar
    13     2     1   ar
    14     4    15    1
    15     4     5   ar
    16    15    16   ar
    17     1     5   ar
    18     1     7    1
    19     5     6    1
    20    17    16   ar
    21    17    24    1
    22    16    22    1
    23    25    24    1
    24    25    26    1
    25    25    27    1
    26    12    11    1
    27    22    23    1
    28    11    14    1
    29    11    13    1
