@<TRIPOS>MOLECULE
mol_data/opt/m06hf/geoms/mol2/13fl13fl13fl13fl-.out
 54 57 0 0 0
SMALL
GASTEIGER

@<TRIPOS>ATOM
      1 C           0.4049    2.2255   -0.6863 C.ar    1  LIG1        0.0480
      2 C           1.0956    1.0509   -0.5179 C.ar    1  LIG1        0.1769
      3 C           0.1414   -0.0005   -0.4904 C.ar    1  LIG1        0.1882
      4 C          -1.1035    0.5666   -0.6431 C.ar    1  LIG1        0.1126
      5 N          -0.9277    1.9119   -0.7562 N.ar    1  LIG1       -0.3534
      6 H          -1.6963    2.5546   -0.8769 H       1  LIG1        0.1656
      7 H           0.7658    3.2357   -0.7509 H       1  LIG1        0.0845
      8 O           2.4491    0.9066   -0.3631 O.3     1  LIG1       -0.5023
      9 H           2.7251    0.1286   -0.8622 H       1  LIG1        0.2923
     10 O           0.3990   -1.3424   -0.3415 O.3     1  LIG1       -0.4895
     11 C           0.7275   -1.6818    1.0099 C.3     1  LIG1        0.0791
     12 H           0.9365   -2.7496    1.0192 H       1  LIG1        0.0660
     13 H           1.6051   -1.1185    1.3306 H       1  LIG1        0.0660
     14 H          -0.1171   -1.4512    1.6629 H       1  LIG1        0.0660
     15 C          -2.3970   -0.0810   -0.7014 C.ar    1  LIG1        0.1129
     16 C          -3.6564    0.4499   -0.8348 C.ar    1  LIG1        0.1866
     17 C          -4.5671   -0.6340   -0.8546 C.ar    1  LIG1        0.1889
     18 C          -3.8419   -1.8038   -0.7388 C.ar    1  LIG1        0.1131
     19 N          -2.5290   -1.4462   -0.6378 N.ar    1  LIG1       -0.3458
     20 H          -1.7269   -2.0618   -0.6779 H       1  LIG1        0.1662
     21 O          -3.9430    1.7878   -0.9005 O.3     1  LIG1       -0.5019
     22 H          -4.7899    1.8977   -1.3498 H       1  LIG1        0.2924
     23 O          -5.9346   -0.5260   -0.9724 O.3     1  LIG1       -0.4895
     24 C          -6.6131   -0.5972    0.2901 C.3     1  LIG1        0.0791
     25 H          -7.6727   -0.4782    0.0766 H       1  LIG1        0.0660
     26 H          -6.4225   -1.5666    0.7526 H       1  LIG1        0.0660
     27 H          -6.2576    0.2063    0.9362 H       1  LIG1        0.0660
     28 C          -4.3335   -3.1699   -0.7220 C.ar    1  LIG1        0.1129
     29 C          -5.4856   -3.6785   -1.2971 C.ar    1  LIG1        0.1866
     30 C          -5.5087   -5.0711   -1.0129 C.ar    1  LIG1        0.1889
     31 C          -4.3799   -5.3635   -0.2788 C.ar    1  LIG1        0.1131
     32 N          -3.6723   -4.2122   -0.1163 N.ar    1  LIG1       -0.3458
     33 H          -2.8547   -4.1529    0.4742 H       1  LIG1        0.1662
     34 O          -6.4358   -3.0231   -2.0150 O.3     1  LIG1       -0.5019
     35 H          -6.3473   -2.0636   -1.8740 H       1  LIG1        0.2924
     36 O          -6.4365   -6.0032   -1.3950 O.3     1  LIG1       -0.4895
     37 C          -7.7604   -5.6803   -0.9659 C.3     1  LIG1        0.0791
     38 H          -8.4072   -6.4684   -1.3448 H       1  LIG1        0.0660
     39 H          -7.7968   -5.6517    0.1256 H       1  LIG1        0.0660
     40 H          -8.0546   -4.7155   -1.3786 H       1  LIG1        0.0660
     41 C          -3.9421   -6.6278    0.2735 C.ar    1  LIG1        0.1124
     42 C          -2.8789   -6.9001    1.0984 C.ar    1  LIG1        0.1859
     43 C          -2.8905   -8.2916    1.3623 C.ar    1  LIG1        0.1793
     44 C          -3.9653   -8.8332    0.6878 C.ar    1  LIG1        0.0482
     45 N          -4.5893   -7.8064    0.0345 N.ar    1  LIG1       -0.3534
     46 H          -5.3989   -7.8582   -0.5665 H       1  LIG1        0.1656
     47 H          -4.3208   -9.8453    0.6222 H       1  LIG1        0.0845
     48 O          -1.9848   -5.9735    1.5689 O.3     1  LIG1       -0.5019
     49 H          -1.3549   -6.4287    2.1408 H       1  LIG1        0.2924
     50 O          -1.9467   -8.8624    2.1629 O.3     1  LIG1       -0.4900
     51 C          -2.0811  -10.2610    2.3250 C.3     1  LIG1        0.0790
     52 H          -1.2717  -10.5802    2.9759 H       1  LIG1        0.0660
     53 H          -3.0451  -10.4956    2.7846 H       1  LIG1        0.0660
     54 H          -2.0023  -10.7614    1.3559 H       1  LIG1        0.0660
@<TRIPOS>BOND
     1    34    35    1
     2    34    29    1
     3    36    30    1
     4    36    37    1
     5    40    37    1
     6    22    21    1
     7    38    37    1
     8    29    30   ar
     9    29    28   ar
    10    30    31   ar
    11    23    17    1
    12    23    24    1
    13    37    39    1
    14    21    16    1
    15     6     5    1
    16     9     8    1
    17    17    16   ar
    18    17    18   ar
    19    16    15   ar
    20     5     1   ar
    21     5     4   ar
    22     7     1    1
    23    18    28    1
    24    18    19   ar
    25    28    32   ar
    26    15     4    1
    27    15    19   ar
    28     1     2   ar
    29    20    19    1
    30     4     3   ar
    31    46    45    1
    32     2     3   ar
    33     2     8    1
    34     3    10    1
    35    10    11    1
    36    31    32   ar
    37    31    41    1
    38    32    33    1
    39    45    41   ar
    40    45    44   ar
    41    25    24    1
    42    41    42   ar
    43    24    26    1
    44    24    27    1
    45    47    44    1
    46    44    43   ar
    47    11    12    1
    48    11    13    1
    49    11    14    1
    50    42    43   ar
    51    42    48    1
    52    54    51    1
    53    43    50    1
    54    48    49    1
    55    50    51    1
    56    51    53    1
    57    51    52    1
