@<TRIPOS>MOLECULE
mol_data/opt/m06hf/geoms/mol2/13ga13ga13ga.out
 29 31 0 0 0
SMALL
GASTEIGER

@<TRIPOS>ATOM
      1 C           1.0406   -0.1360   -0.0149 C.ar    1  LIG1        0.0154
      2 C           0.5925    0.9855   -0.6734 C.ar    1  LIG1        0.0227
      3 C          -0.8284    0.9123   -0.7296 C.ar    1  LIG1       -0.0218
      4 C          -1.1974   -0.2469   -0.0903 C.ar    1  LIG1        0.0650
      5 N          -0.0482   -0.8754    0.3297 N.ar    1  LIG1       -0.3585
      6 H          -0.0353   -1.6989    0.9102 H       1  LIG1        0.1654
      7 H           2.0439   -0.4427    0.2247 H       1  LIG1        0.0818
      8 S           1.6295    2.2360   -1.3808 S.3     1  LIG1       -0.1412
      9 H           1.5754    3.0952   -0.3563 H       1  LIG1        0.1072
     10 H          -1.4939    1.6190   -1.1955 H       1  LIG1        0.0650
     11 C          -2.5099   -0.8501    0.1485 C.ar    1  LIG1        0.0767
     12 C          -3.7048   -0.3156    0.5872 C.ar    1  LIG1        0.0321
     13 C          -4.6607   -1.3709    0.6281 C.ar    1  LIG1       -0.0211
     14 C          -4.0208   -2.5173    0.2253 C.ar    1  LIG1        0.0655
     15 N          -2.7145   -2.1890   -0.0556 N.ar    1  LIG1       -0.3510
     16 H          -2.0860   -2.7757   -0.5848 H       1  LIG1        0.1660
     17 S          -3.9903    1.3856    0.9843 S.3     1  LIG1       -0.1405
     18 H          -4.0463    1.2375    2.3135 H       1  LIG1        0.1072
     19 H          -5.6909   -1.2943    0.9318 H       1  LIG1        0.0650
     20 C          -4.4902   -3.8967    0.0813 C.ar    1  LIG1        0.0762
     21 C          -5.6567   -4.4258   -0.4352 C.ar    1  LIG1        0.0315
     22 C          -5.5626   -5.8443   -0.3393 C.ar    1  LIG1       -0.0305
     23 C          -4.3463   -6.1333    0.2231 C.ar    1  LIG1        0.0033
     24 N          -3.7063   -4.9496    0.4671 N.ar    1  LIG1       -0.3586
     25 H          -2.8395   -4.8479    0.9704 H       1  LIG1        0.1654
     26 H          -3.8906   -7.0752    0.4734 H       1  LIG1        0.0807
     27 S          -7.0456   -3.5109   -1.0408 S.3     1  LIG1       -0.1405
     28 H          -6.6395   -3.3920   -2.3121 H       1  LIG1        0.1072
     29 H          -6.3134   -6.5481   -0.6563 H       1  LIG1        0.0644
@<TRIPOS>BOND
     1    28    27    1
     2     8     2    1
     3     8     9    1
     4    10     3    1
     5    27    21    1
     6     3     2   ar
     7     3     4   ar
     8     2     1   ar
     9    29    22    1
    10    16    15    1
    11    21    22   ar
    12    21    20   ar
    13    22    23   ar
    14     4    11    1
    15     4     5   ar
    16    15    11   ar
    17    15    14   ar
    18     1     7    1
    19     1     5   ar
    20    20    14    1
    21    20    24   ar
    22    11    12   ar
    23    23    24   ar
    24    23    26    1
    25    14    13   ar
    26     5     6    1
    27    24    25    1
    28    12    13   ar
    29    12    17    1
    30    13    19    1
    31    17    18    1
