@<TRIPOS>MOLECULE
mol_data/opt/m06hf/geoms/mol2/13ga13ga-13ga.out
 29 31 0 0 0
SMALL
GASTEIGER

@<TRIPOS>ATOM
      1 C           0.9866   -0.0386    0.1919 C.ar    1  LIG1        0.0154
      2 C           0.5284    1.0758   -0.4713 C.ar    1  LIG1        0.0227
      3 C          -0.8903    0.9769   -0.5491 C.ar    1  LIG1       -0.0218
      4 C          -1.2455   -0.2007    0.0640 C.ar    1  LIG1        0.0650
      5 N          -0.0921   -0.8066    0.5049 N.ar    1  LIG1       -0.3585
      6 H          -0.0742   -1.6291    1.0868 H       1  LIG1        0.1654
      7 H           1.9905   -0.3199    0.4587 H       1  LIG1        0.0818
      8 S           1.5504    2.4041   -1.0436 S.3     1  LIG1       -0.1412
      9 H           1.5621    2.0602   -2.3363 H       1  LIG1        0.1072
     10 H          -1.5638    1.6814   -1.0067 H       1  LIG1        0.0650
     11 C          -2.5473   -0.8422    0.2595 C.ar    1  LIG1        0.0767
     12 C          -3.7683   -0.3480    0.6734 C.ar    1  LIG1        0.0321
     13 C          -4.6937   -1.4311    0.6724 C.ar    1  LIG1       -0.0211
     14 C          -4.0102   -2.5538    0.2689 C.ar    1  LIG1        0.0655
     15 N          -2.7092   -2.1821    0.0263 N.ar    1  LIG1       -0.3510
     16 H          -2.0455   -2.7483   -0.4817 H       1  LIG1        0.1660
     17 S          -4.1135    1.3380    1.0866 S.3     1  LIG1       -0.1405
     18 H          -4.2025    1.1677    2.4111 H       1  LIG1        0.1072
     19 H          -5.7313   -1.3916    0.9605 H       1  LIG1        0.0650
     20 C          -4.4525   -3.9341    0.0719 C.ar    1  LIG1        0.0762
     21 C          -5.5747   -4.4432   -0.5462 C.ar    1  LIG1        0.0315
     22 C          -5.4877   -5.8634   -0.4893 C.ar    1  LIG1       -0.0305
     23 C          -4.3184   -6.1710    0.1607 C.ar    1  LIG1        0.0033
     24 N          -3.6947   -5.0021    0.4830 N.ar    1  LIG1       -0.3586
     25 H          -2.8630   -4.9181    1.0450 H       1  LIG1        0.1654
     26 H          -3.8860   -7.1236    0.4128 H       1  LIG1        0.0807
     27 S          -6.9147   -3.5448   -1.2745 S.3     1  LIG1       -0.1405
     28 H          -6.1743   -2.5195   -1.7175 H       1  LIG1        0.1072
     29 H          -6.1997   -6.5606   -0.8967 H       1  LIG1        0.0644
@<TRIPOS>BOND
     1     9     8    1
     2    28    27    1
     3    27    21    1
     4     8     2    1
     5    10     3    1
     6    29    22    1
     7     3     2   ar
     8     3     4   ar
     9    21    22   ar
    10    21    20   ar
    11    22    23   ar
    12    16    15    1
    13     2     1   ar
    14    15    11   ar
    15    15    14   ar
    16     4    11    1
    17     4     5   ar
    18    20    14    1
    19    20    24   ar
    20    23    26    1
    21    23    24   ar
    22     1     7    1
    23     1     5   ar
    24    11    12   ar
    25    14    13   ar
    26    24    25    1
    27     5     6    1
    28    13    12   ar
    29    13    19    1
    30    12    17    1
    31    17    18    1
