@<TRIPOS>MOLECULE
mol_data/opt/m06hf/geoms/mol2/13ga13ga-13ga13ga-.out
 38 41 0 0 0
SMALL
GASTEIGER

@<TRIPOS>ATOM
      1 C           0.3920    0.3347   -1.7624 C.ar    1  LIG1        0.0154
      2 C           0.7659    0.8490   -0.5422 C.ar    1  LIG1        0.0227
      3 C          -0.2383    0.4899    0.4009 C.ar    1  LIG1       -0.0218
      4 C          -1.1953   -0.2216   -0.2812 C.ar    1  LIG1        0.0650
      5 N          -0.7917   -0.3135   -1.5930 N.ar    1  LIG1       -0.3585
      6 H          -1.3531   -0.7067   -2.3323 H       1  LIG1        0.1654
      7 H           0.8833    0.3944   -2.7180 H       1  LIG1        0.0818
      8 S           2.2724    1.7253   -0.2230 S.3     1  LIG1       -0.1412
      9 H           1.7614    2.9624   -0.2799 H       1  LIG1        0.1072
     10 H          -0.2498    0.7185    1.4532 H       1  LIG1        0.0650
     11 C          -2.4397   -0.8509    0.1716 C.ar    1  LIG1        0.0767
     12 C          -3.5125   -0.3577    0.8914 C.ar    1  LIG1        0.0321
     13 C          -4.4597   -1.4092    1.0278 C.ar    1  LIG1       -0.0211
     14 C          -3.9468   -2.5080    0.3793 C.ar    1  LIG1        0.0655
     15 N          -2.7230   -2.1523   -0.1306 N.ar    1  LIG1       -0.3510
     16 H          -2.1123   -2.7642   -0.6505 H       1  LIG1        0.1660
     17 S          -3.6530    1.2775    1.5584 S.3     1  LIG1       -0.1405
     18 H          -4.3210    1.8157    0.5307 H       1  LIG1        0.1072
     19 H          -5.4036   -1.3617    1.5439 H       1  LIG1        0.0650
     20 C          -4.4687   -3.8671    0.2080 C.ar    1  LIG1        0.0767
     21 C          -5.6797   -4.3334   -0.2701 C.ar    1  LIG1        0.0321
     22 C          -5.6347   -5.7540   -0.2417 C.ar    1  LIG1       -0.0211
     23 C          -4.3980   -6.1151    0.2379 C.ar    1  LIG1        0.0655
     24 N          -3.7065   -4.9608    0.5069 N.ar    1  LIG1       -0.3510
     25 H          -2.7731   -4.9252    0.8883 H       1  LIG1        0.1660
     26 S          -7.0587   -3.3393   -0.7674 S.3     1  LIG1       -0.1405
     27 H          -6.7730   -3.2972   -2.0751 H       1  LIG1        0.1072
     28 H          -6.4221   -6.4280   -0.5338 H       1  LIG1        0.0650
     29 C          -3.8072   -7.4327    0.4935 C.ar    1  LIG1        0.0762
     30 C          -3.6638   -8.5424   -0.3150 C.ar    1  LIG1        0.0315
     31 C          -3.0156   -9.5515    0.4541 C.ar    1  LIG1       -0.0305
     32 C          -2.7752   -9.0213    1.6955 C.ar    1  LIG1        0.0033
     33 N          -3.2562   -7.7423    1.7069 N.ar    1  LIG1       -0.3586
     34 H          -3.3141   -7.1480    2.5192 H       1  LIG1        0.1654
     35 H          -2.3143   -9.4511    2.5675 H       1  LIG1        0.0807
     36 S          -4.2343   -8.6811   -1.9850 S.3     1  LIG1       -0.1405
     37 H          -3.0405   -8.5447   -2.5771 H       1  LIG1        0.1072
     38 H          -2.7647  -10.5421    0.1148 H       1  LIG1        0.0644
@<TRIPOS>BOND
     1     7     1    1
     2    37    36    1
     3     6     5    1
     4    27    26    1
     5    36    30    1
     6     1     5   ar
     7     1     2   ar
     8     5     4   ar
     9    26    21    1
    10    16    15    1
    11     2     8    1
    12     2     3   ar
    13    28    22    1
    14    30    31   ar
    15    30    29   ar
    16     4    11    1
    17     4     3   ar
    18     9     8    1
    19    21    22   ar
    20    21    20   ar
    21    22    23   ar
    22    15    11   ar
    23    15    14   ar
    24    38    31    1
    25    11    12   ar
    26    20    14    1
    27    20    24   ar
    28    23    29    1
    29    23    24   ar
    30    14    13   ar
    31     3    10    1
    32    31    32   ar
    33    29    33   ar
    34    24    25    1
    35    18    17    1
    36    12    13   ar
    37    12    17    1
    38    13    19    1
    39    32    33   ar
    40    32    35    1
    41    33    34    1
