@<TRIPOS>MOLECULE
mol_data/opt/m06hf/geoms/mol2/13ga13ga13ga13ga.out
 38 41 0 0 0
SMALL
GASTEIGER

@<TRIPOS>ATOM
      1 C           1.0266   -0.0697    0.2382 C.ar    1  LIG1        0.0154
      2 C           0.5983    1.0701   -0.4022 C.ar    1  LIG1        0.0227
      3 C          -0.8165    0.9811   -0.5364 C.ar    1  LIG1       -0.0218
      4 C          -1.2017   -0.2055    0.0393 C.ar    1  LIG1        0.0650
      5 N          -0.0674   -0.8350    0.4967 N.ar    1  LIG1       -0.3585
      6 H          -0.0732   -1.6833    1.0403 H       1  LIG1        0.1654
      7 H           2.0206   -0.3700    0.5211 H       1  LIG1        0.0818
      8 S           1.6577    2.3506   -1.0141 S.3     1  LIG1       -0.1412
      9 H           1.5311    3.1849    0.0233 H       1  LIG1        0.1072
     10 H          -1.4663    1.6954   -1.0127 H       1  LIG1        0.0650
     11 C          -2.5165   -0.8350    0.1804 C.ar    1  LIG1        0.0767
     12 C          -3.7275   -0.3508    0.6319 C.ar    1  LIG1        0.0321
     13 C          -4.6788   -1.4059    0.5342 C.ar    1  LIG1       -0.0211
     14 C          -4.0195   -2.5043    0.0363 C.ar    1  LIG1        0.0655
     15 N          -2.7074   -2.1467   -0.1670 N.ar    1  LIG1       -0.3510
     16 H          -2.0544   -2.6740   -0.7274 H       1  LIG1        0.1660
     17 S          -4.0282    1.3046    1.1788 S.3     1  LIG1       -0.1405
     18 H          -4.2376    1.0137    2.4685 H       1  LIG1        0.1072
     19 H          -5.7187   -1.3637    0.8097 H       1  LIG1        0.0650
     20 C          -4.4795   -3.8613   -0.2587 C.ar    1  LIG1        0.0767
     21 C          -5.6669   -4.3394   -0.7802 C.ar    1  LIG1        0.0321
     22 C          -5.5667   -5.7573   -0.8499 C.ar    1  LIG1       -0.0211
     23 C          -4.3237   -6.1037   -0.3797 C.ar    1  LIG1        0.0655
     24 N          -3.6711   -4.9423   -0.0363 N.ar    1  LIG1       -0.3510
     25 H          -2.8267   -4.9138    0.5152 H       1  LIG1        0.1660
     26 S          -7.0762   -3.3713   -1.2435 S.3     1  LIG1       -0.1405
     27 H          -6.6968   -3.1130   -2.5010 H       1  LIG1        0.1072
     28 H          -6.3186   -6.4367   -1.2142 H       1  LIG1        0.0650
     29 C          -3.6729   -7.4069   -0.2202 C.ar    1  LIG1        0.0762
     30 C          -4.1048   -8.5822    0.3617 C.ar    1  LIG1        0.0315
     31 C          -3.0476   -9.5300    0.2463 C.ar    1  LIG1       -0.0305
     32 C          -2.0080   -8.9027   -0.3906 C.ar    1  LIG1        0.0033
     33 N          -2.3951   -7.6197   -0.6604 N.ar    1  LIG1       -0.3586
     34 H          -1.8753   -6.9558   -1.2125 H       1  LIG1        0.1654
     35 H          -1.0354   -9.2631   -0.6769 H       1  LIG1        0.0807
     36 S          -5.6955   -8.8724    1.0858 S.3     1  LIG1       -0.1405
     37 H          -5.4176   -8.3881    2.3023 H       1  LIG1        0.1072
     38 H          -3.0709  -10.5465    0.6011 H       1  LIG1        0.0644
@<TRIPOS>BOND
     1    27    26    1
     2    26    21    1
     3    28    22    1
     4    34    33    1
     5     8     2    1
     6     8     9    1
     7    10     3    1
     8    22    21   ar
     9    22    23   ar
    10    21    20   ar
    11    16    15    1
    12    35    32    1
    13    33    32   ar
    14    33    29   ar
    15     3     2   ar
    16     3     4   ar
    17     2     1   ar
    18    32    31   ar
    19    23    29    1
    20    23    24   ar
    21    20    24   ar
    22    20    14    1
    23    29    30   ar
    24    15    14   ar
    25    15    11   ar
    26    24    25    1
    27    14    13   ar
    28     4    11    1
    29     4     5   ar
    30    11    12   ar
    31     1     5   ar
    32     1     7    1
    33    31    30   ar
    34    31    38    1
    35    30    36    1
    36     5     6    1
    37    13    12   ar
    38    13    19    1
    39    12    17    1
    40    36    37    1
    41    17    18    1
