@<TRIPOS>MOLECULE
mol_data/opt/m06hf/geoms/mol2/13ga13ga-.out
 20 21 0 0 0
SMALL
GASTEIGER

@<TRIPOS>ATOM
      1 C           0.9681   -0.0258   -0.6467 C.ar    1  LIG1        0.0154
      2 C           0.6435    1.0991    0.0760 C.ar    1  LIG1        0.0227
      3 C          -0.7197    0.9764    0.4682 C.ar    1  LIG1       -0.0218
      4 C          -1.1748   -0.2234   -0.0241 C.ar    1  LIG1        0.0650
      5 N          -0.1335   -0.8207   -0.6930 N.ar    1  LIG1       -0.3585
      6 H          -0.2224   -1.6702   -1.2280 H       1  LIG1        0.1654
      7 H           1.8947   -0.2962   -1.1232 H       1  LIG1        0.0818
      8 S           1.7298    2.4640    0.3865 S.3     1  LIG1       -0.1412
      9 H           2.1972    2.0483    1.5712 H       1  LIG1        0.1072
     10 H          -1.2911    1.6793    1.0516 H       1  LIG1        0.0650
     11 C          -2.4858   -0.8714    0.0804 C.ar    1  LIG1        0.0762
     12 C          -3.7450   -0.4336   -0.2695 C.ar    1  LIG1        0.0315
     13 C          -4.6691   -1.4613    0.0772 C.ar    1  LIG1       -0.0305
     14 C          -3.9402   -2.4936    0.6123 C.ar    1  LIG1        0.0033
     15 N          -2.6270   -2.1270    0.6138 N.ar    1  LIG1       -0.3586
     16 H          -1.8738   -2.6428    1.0399 H       1  LIG1        0.1654
     17 H          -4.2553   -3.4484    0.9960 H       1  LIG1        0.0807
     18 S          -4.0996    1.1449   -0.9889 S.3     1  LIG1       -0.1405
     19 H          -4.9234    0.6776   -1.9347 H       1  LIG1        0.1072
     20 H          -5.7368   -1.4330   -0.0602 H       1  LIG1        0.0644
@<TRIPOS>BOND
     1    19    18    1
     2     6     5    1
     3     7     1    1
     4    18    12    1
     5     5     1   ar
     6     5     4   ar
     7     1     2   ar
     8    12    13   ar
     9    12    11   ar
    10    20    13    1
    11     4    11    1
    12     4     3   ar
    13     2     8    1
    14     2     3   ar
    15    13    14   ar
    16    11    15   ar
    17     8     9    1
    18     3    10    1
    19    14    15   ar
    20    14    17    1
    21    15    16    1
