@<TRIPOS>MOLECULE
mol_data/opt/m06hf/geoms/mol2/13ga13ga-13ga-13ga-.out
 38 41 0 0 0
SMALL
GASTEIGER

@<TRIPOS>ATOM
      1 C           1.0106   -0.0468   -0.3073 C.ar    1  LIG1        0.0154
      2 C           0.5944    1.0474    0.4149 C.ar    1  LIG1        0.0227
      3 C          -0.8162    0.9419    0.5790 C.ar    1  LIG1       -0.0218
      4 C          -1.2108   -0.2076   -0.0618 C.ar    1  LIG1        0.0650
      5 N          -0.0860   -0.8013   -0.5852 N.ar    1  LIG1       -0.3585
      6 H          -0.1020   -1.6161   -1.1778 H       1  LIG1        0.1654
      7 H           1.9985   -0.3222   -0.6338 H       1  LIG1        0.0818
      8 S           1.6733    2.2758    1.0947 S.3     1  LIG1       -0.1412
      9 H           1.4477    3.2316    0.1842 H       1  LIG1        0.1072
     10 H          -1.4575    1.6194    1.1171 H       1  LIG1        0.0650
     11 C          -2.5253   -0.8393   -0.2026 C.ar    1  LIG1        0.0767
     12 C          -3.7440   -0.3525   -0.6300 C.ar    1  LIG1        0.0321
     13 C          -4.6893   -1.4138   -0.5408 C.ar    1  LIG1       -0.0211
     14 C          -4.0180   -2.5184   -0.0718 C.ar    1  LIG1        0.0655
     15 N          -2.7064   -2.1576    0.1230 N.ar    1  LIG1       -0.3510
     16 H          -2.0399   -2.6955    0.6566 H       1  LIG1        0.1660
     17 S          -4.0561    1.3126   -1.1406 S.3     1  LIG1       -0.1405
     18 H          -4.2791    1.0459   -2.4335 H       1  LIG1        0.1072
     19 H          -5.7327   -1.3736   -0.8041 H       1  LIG1        0.0650
     20 C          -4.4725   -3.8791    0.2129 C.ar    1  LIG1        0.0767
     21 C          -5.6500   -4.3550    0.7565 C.ar    1  LIG1        0.0321
     22 C          -5.5509   -5.7722    0.8243 C.ar    1  LIG1       -0.0211
     23 C          -4.3184   -6.1209    0.3270 C.ar    1  LIG1        0.0655
     24 N          -3.6686   -4.9614   -0.0232 N.ar    1  LIG1       -0.3510
     25 H          -2.8289   -4.9331   -0.5818 H       1  LIG1        0.1660
     26 S          -7.0546   -3.3988    1.2607 S.3     1  LIG1       -0.1405
     27 H          -6.4575   -2.7673    2.2798 H       1  LIG1        0.1072
     28 H          -6.2932   -6.4501    1.2100 H       1  LIG1        0.0650
     29 C          -3.6737   -7.4259    0.1563 C.ar    1  LIG1        0.0762
     30 C          -4.1123   -8.5953   -0.4322 C.ar    1  LIG1        0.0315
     31 C          -3.0591   -9.5486   -0.3259 C.ar    1  LIG1       -0.0305
     32 C          -2.0149   -8.9299    0.3123 C.ar    1  LIG1        0.0033
     33 N          -2.3956   -7.6471    0.5915 N.ar    1  LIG1       -0.3586
     34 H          -1.8710   -6.9885    1.1454 H       1  LIG1        0.1654
     35 H          -1.0432   -9.2964    0.5937 H       1  LIG1        0.0807
     36 S          -5.7063   -8.8734   -1.1539 S.3     1  LIG1       -0.1405
     37 H          -5.4303   -8.3787   -2.3668 H       1  LIG1        0.1072
     38 H          -3.0879  -10.5627   -0.6869 H       1  LIG1        0.0644
@<TRIPOS>BOND
     1    18    17    1
     2    37    36    1
     3     6     5    1
     4    36    30    1
     5    17    12    1
     6    19    13    1
     7    38    31    1
     8     7     1    1
     9    12    13   ar
    10    12    11   ar
    11     5     1   ar
    12     5     4   ar
    13    25    24    1
    14    13    14   ar
    15    30    31   ar
    16    30    29   ar
    17    31    32   ar
    18     1     2   ar
    19    11     4    1
    20    11    15   ar
    21    14    15   ar
    22    14    20    1
    23     4     3   ar
    24    24    20   ar
    25    24    23   ar
    26    15    16    1
    27    29    23    1
    28    29    33   ar
    29     9     8    1
    30    20    21   ar
    31    32    33   ar
    32    32    35    1
    33    23    22   ar
    34     2     3   ar
    35     2     8    1
    36     3    10    1
    37    33    34    1
    38    21    22   ar
    39    21    26    1
    40    22    28    1
    41    26    27    1
