@<TRIPOS>MOLECULE
mol_data/opt/m06hf/geoms/mol2/13ga.out
 11 11 0 0 0
SMALL
GASTEIGER

@<TRIPOS>ATOM
      1 C           1.0352   -0.2852    0.0156 C.ar    1  LIG1        0.0149
      2 C           0.5480    0.9877    0.1885 C.ar    1  LIG1        0.0220
      3 C          -0.8767    0.9047    0.1885 C.ar    1  LIG1       -0.0312
      4 C          -1.1980   -0.4154    0.0059 C.ar    1  LIG1        0.0027
      5 N          -0.0320   -1.1242   -0.0921 N.ar    1  LIG1       -0.3660
      6 H           0.0284   -2.1211   -0.2204 H       1  LIG1        0.1648
      7 H          -2.1536   -0.9055   -0.0583 H       1  LIG1        0.0807
      8 H           2.0517   -0.6363   -0.0319 H       1  LIG1        0.0818
      9 S           1.5498    2.4250    0.4485 S.3     1  LIG1       -0.1412
     10 H           1.3701    2.9784   -0.7567 H       1  LIG1        0.1072
     11 H          -1.5621    1.7262    0.3130 H       1  LIG1        0.0643
@<TRIPOS>BOND
     1    10     9    1
     2     6     5    1
     3     5     4   ar
     4     5     1   ar
     5     7     4    1
     6     8     1    1
     7     4     3   ar
     8     1     2   ar
     9     2     3   ar
    10     2     9    1
    11     3    11    1
