@<TRIPOS>MOLECULE
mol_data/opt/m06hf/geoms/mol2/13ga13ga13ga-13ga-.out
 38 41 0 0 0
SMALL
GASTEIGER

@<TRIPOS>ATOM
      1 C           0.6285    0.5330    1.1554 C.ar    1  LIG1        0.0154
      2 C           0.7664    1.0047   -0.1297 C.ar    1  LIG1        0.0227
      3 C          -0.3784    0.5858   -0.8658 C.ar    1  LIG1       -0.0218
      4 C          -1.1782   -0.1184    0.0013 C.ar    1  LIG1        0.0650
      5 N          -0.5466   -0.1484    1.2226 N.ar    1  LIG1       -0.3585
      6 H          -0.9617   -0.5167    2.0643 H       1  LIG1        0.1654
      7 H           1.2801    0.6435    2.0049 H       1  LIG1        0.0818
      8 S           2.1800    1.8826   -0.7373 S.3     1  LIG1       -0.1412
      9 H           1.6602    3.1148   -0.6702 H       1  LIG1        0.1072
     10 H          -0.5827    0.7696   -1.9073 H       1  LIG1        0.0650
     11 C          -2.4564   -0.8084   -0.1976 C.ar    1  LIG1        0.0767
     12 C          -3.6704   -0.3806   -0.7027 C.ar    1  LIG1        0.0321
     13 C          -4.5702   -1.4810   -0.6450 C.ar    1  LIG1       -0.0211
     14 C          -3.8875   -2.5398   -0.0927 C.ar    1  LIG1        0.0655
     15 N          -2.6096   -2.1157    0.1670 N.ar    1  LIG1       -0.3510
     16 H          -1.8798   -2.6900    0.5603 H       1  LIG1        0.1660
     17 S          -4.0170    1.2353   -1.3388 S.3     1  LIG1       -0.1405
     18 H          -4.6001    1.7154   -0.2329 H       1  LIG1        0.1072
     19 H          -5.5933   -1.4935   -0.9820 H       1  LIG1        0.0650
     20 C          -4.3123   -3.9092    0.2020 C.ar    1  LIG1        0.0767
     21 C          -5.3896   -4.3840    0.9178 C.ar    1  LIG1        0.0321
     22 C          -5.3421   -5.8061    0.8774 C.ar    1  LIG1       -0.0211
     23 C          -4.2303   -6.1543    0.1470 C.ar    1  LIG1        0.0655
     24 N          -3.6107   -4.9984   -0.2538 N.ar    1  LIG1       -0.3510
     25 H          -2.9113   -4.9514   -0.9802 H       1  LIG1        0.1660
     26 S          -6.5905   -3.3588    1.7172 S.3     1  LIG1       -0.1405
     27 H          -6.7896   -4.1818    2.7527 H       1  LIG1        0.1072
     28 H          -6.0283   -6.4948    1.3408 H       1  LIG1        0.0650
     29 C          -3.6765   -7.4642   -0.2023 C.ar    1  LIG1        0.0762
     30 C          -4.2761   -8.6347   -0.6242 C.ar    1  LIG1        0.0315
     31 C          -3.2426   -9.5921   -0.8364 C.ar    1  LIG1       -0.0305
     32 C          -2.0532   -8.9761   -0.5450 C.ar    1  LIG1        0.0033
     33 N          -2.3281   -7.6906   -0.1697 N.ar    1  LIG1       -0.3586
     34 H          -1.6569   -7.0326    0.1928 H       1  LIG1        0.1654
     35 H          -1.0425   -9.3453   -0.5671 H       1  LIG1        0.0807
     36 S          -6.0144   -8.9188   -0.8129 S.3     1  LIG1       -0.1405
     37 H          -6.1351   -8.4363   -2.0561 H       1  LIG1        0.1072
     38 H          -3.3828  -10.6073   -1.1662 H       1  LIG1        0.0644
@<TRIPOS>BOND
     1    37    36    1
     2    10     3    1
     3    17    12    1
     4    17    18    1
     5    38    31    1
     6    19    13    1
     7    25    24    1
     8     3     2   ar
     9     3     4   ar
    10    31    30   ar
    11    31    32   ar
    12    36    30    1
    13     8     9    1
    14     8     2    1
    15    12    13   ar
    16    12    11   ar
    17    13    14   ar
    18    30    29   ar
    19    35    32    1
    20    32    33   ar
    21    24    23   ar
    22    24    20   ar
    23    29    33   ar
    24    29    23    1
    25    11     4    1
    26    11    15   ar
    27    33    34    1
    28     2     1   ar
    29    14    15   ar
    30    14    20    1
    31     4     5   ar
    32    23    22   ar
    33    15    16    1
    34    20    21   ar
    35    22    21   ar
    36    22    28    1
    37    21    26    1
    38     1     5   ar
    39     1     7    1
    40     5     6    1
    41    26    27    1
