@<TRIPOS>MOLECULE
mol_data/opt/m06hf/geoms/mol2/13ga13ga-13ga-.out
 29 31 0 0 0
SMALL
GASTEIGER

@<TRIPOS>ATOM
      1 C           1.0398   -0.1346   -0.0105 C.ar    1  LIG1        0.0154
      2 C           0.5992    0.9751    0.6725 C.ar    1  LIG1        0.0227
      3 C          -0.8210    0.9003    0.7440 C.ar    1  LIG1       -0.0218
      4 C          -1.1971   -0.2478    0.0889 C.ar    1  LIG1        0.0650
      5 N          -0.0527   -0.8684   -0.3553 N.ar    1  LIG1       -0.3585
      6 H          -0.0464   -1.6814   -0.9504 H       1  LIG1        0.1654
      7 H           2.0404   -0.4367   -0.2671 H       1  LIG1        0.0818
      8 S           1.6441    2.2134    1.3895 S.3     1  LIG1       -0.1412
      9 H           1.5782    3.0901    0.3807 H       1  LIG1        0.1072
     10 H          -1.4811    1.5985    1.2299 H       1  LIG1        0.0650
     11 C          -2.5122   -0.8473   -0.1449 C.ar    1  LIG1        0.0767
     12 C          -3.7123   -0.3059   -0.5599 C.ar    1  LIG1        0.0321
     13 C          -4.6683   -1.3608   -0.6082 C.ar    1  LIG1       -0.0211
     14 C          -4.0234   -2.5137   -0.2330 C.ar    1  LIG1        0.0655
     15 N          -2.7139   -2.1897    0.0381 N.ar    1  LIG1       -0.3510
     16 H          -2.0791   -2.7851    0.5498 H       1  LIG1        0.1660
     17 S          -4.0032    1.4019   -0.9237 S.3     1  LIG1       -0.1405
     18 H          -4.0751    1.2772   -2.2545 H       1  LIG1        0.1072
     19 H          -5.7020   -1.2794   -0.8984 H       1  LIG1        0.0650
     20 C          -4.4905   -3.8957   -0.1077 C.ar    1  LIG1        0.0762
     21 C          -5.6508   -4.4345    0.4129 C.ar    1  LIG1        0.0315
     22 C          -5.5570   -5.8511    0.2914 C.ar    1  LIG1       -0.0305
     23 C          -4.3471   -6.1294   -0.2897 C.ar    1  LIG1        0.0033
     24 N          -3.7106   -4.9412   -0.5205 N.ar    1  LIG1       -0.3586
     25 H          -2.8495   -4.8303   -1.0318 H       1  LIG1        0.1654
     26 H          -3.8937   -7.0665   -0.5615 H       1  LIG1        0.0807
     27 S          -7.0332   -3.5311    1.0498 S.3     1  LIG1       -0.1405
     28 H          -6.6126   -3.4333    2.3183 H       1  LIG1        0.1072
     29 H          -6.3039   -6.5608    0.6046 H       1  LIG1        0.0644
@<TRIPOS>BOND
     1    18    17    1
     2    25    24    1
     3     6     5    1
     4    17    12    1
     5    19    13    1
     6    13    12   ar
     7    13    14   ar
     8    26    23    1
     9    12    11   ar
    10    24    23   ar
    11    24    20   ar
    12     5     1   ar
    13     5     4   ar
    14    23    22   ar
    15     7     1    1
    16    14    20    1
    17    14    15   ar
    18    11    15   ar
    19    11     4    1
    20    20    21   ar
    21     1     2   ar
    22    15    16    1
    23     4     3   ar
    24    22    21   ar
    25    22    29    1
    26     9     8    1
    27    21    27    1
    28     2     3   ar
    29     2     8    1
    30     3    10    1
    31    27    28    1
