@<TRIPOS>MOLECULE
mol_data/opt/m06hf/geoms/mol2/13ga13ga-13ga-13ga.out
 38 41 0 0 0
SMALL
GASTEIGER

@<TRIPOS>ATOM
      1 C           1.0116   -0.1221    0.5912 C.ar    1  LIG1        0.0154
      2 C           0.4690    1.0324    1.1051 C.ar    1  LIG1        0.0227
      3 C          -0.9416    0.9631    0.9221 C.ar    1  LIG1       -0.0218
      4 C          -1.2066   -0.2274    0.2888 C.ar    1  LIG1        0.0650
      5 N          -0.0097   -0.8794    0.1063 N.ar    1  LIG1       -0.3585
      6 H           0.0939   -1.7402   -0.4066 H       1  LIG1        0.1654
      7 H           2.0391   -0.4381    0.5392 H       1  LIG1        0.0818
      8 S           1.3956    2.3065    1.9159 S.3     1  LIG1       -0.1412
      9 H           1.3513    3.2003    0.9200 H       1  LIG1        0.1072
     10 H          -1.6718    1.6926    1.2281 H       1  LIG1        0.0650
     11 C          -2.4661   -0.8324   -0.1483 C.ar    1  LIG1        0.0767
     12 C          -3.5427   -0.3149   -0.8413 C.ar    1  LIG1        0.0321
     13 C          -4.5028   -1.3562   -0.9873 C.ar    1  LIG1       -0.0211
     14 C          -3.9824   -2.4781   -0.3904 C.ar    1  LIG1        0.0655
     15 N          -2.7424   -2.1491    0.1074 N.ar    1  LIG1       -0.3510
     16 H          -2.2369   -2.7052    0.7817 H       1  LIG1        0.1660
     17 S          -3.7097    1.3563   -1.4000 S.3     1  LIG1       -0.1405
     18 H          -3.4377    1.1269   -2.6914 H       1  LIG1        0.1072
     19 H          -5.4566   -1.2870   -1.4819 H       1  LIG1        0.0650
     20 C          -4.5157   -3.8329   -0.2366 C.ar    1  LIG1        0.0767
     21 C          -5.7722   -4.2935    0.1142 C.ar    1  LIG1        0.0321
     22 C          -5.7163   -5.7137    0.1421 C.ar    1  LIG1       -0.0211
     23 C          -4.4313   -6.0808   -0.1778 C.ar    1  LIG1        0.0655
     24 N          -3.7190   -4.9296   -0.4071 N.ar    1  LIG1       -0.3510
     25 H          -2.7479   -4.9007   -0.6765 H       1  LIG1        0.1660
     26 S          -7.2057   -3.2985    0.4140 S.3     1  LIG1       -0.1405
     27 H          -7.0811   -3.2225    1.7450 H       1  LIG1        0.1072
     28 H          -6.5291   -6.3835    0.3665 H       1  LIG1        0.0650
     29 C          -3.8057   -7.3999   -0.3135 C.ar    1  LIG1        0.0762
     30 C          -3.7512   -8.4791    0.5456 C.ar    1  LIG1        0.0315
     31 C          -3.0073   -9.5062   -0.1039 C.ar    1  LIG1       -0.0305
     32 C          -2.6243   -9.0172   -1.3260 C.ar    1  LIG1        0.0033
     33 N          -3.1101   -7.7448   -1.4408 N.ar    1  LIG1       -0.3586
     34 H          -3.0821   -7.1830   -2.2772 H       1  LIG1        0.1654
     35 H          -2.0598   -9.4719   -2.1211 H       1  LIG1        0.0807
     36 S          -4.5203   -8.5701    2.1372 S.3     1  LIG1       -0.1405
     37 H          -3.4103   -8.3936    2.8660 H       1  LIG1        0.1072
     38 H          -2.7912  -10.4812    0.2987 H       1  LIG1        0.0644
@<TRIPOS>BOND
     1    18    17    1
     2    34    33    1
     3    35    32    1
     4    19    13    1
     5    33    32   ar
     6    33    29   ar
     7    17    12    1
     8    32    31   ar
     9    13    12   ar
    10    13    14   ar
    11    12    11   ar
    12    25    24    1
    13    24    20   ar
    14    24    23   ar
    15     6     5    1
    16    14    20    1
    17    14    15   ar
    18    29    23    1
    19    29    30   ar
    20    20    21   ar
    21    23    22   ar
    22    11    15   ar
    23    11     4    1
    24    31    38    1
    25    31    30   ar
    26     5     4   ar
    27     5     1   ar
    28    15    16    1
    29    21    22   ar
    30    21    26    1
    31    22    28    1
    32     4     3   ar
    33    26    27    1
    34     7     1    1
    35    30    36    1
    36     1     2   ar
    37     9     8    1
    38     3     2   ar
    39     3    10    1
    40     2     8    1
    41    36    37    1
