@<TRIPOS>MOLECULE
mol_data/opt/m06hf/geoms/mol2/13ga13ga.out
 20 21 0 0 0
SMALL
GASTEIGER

@<TRIPOS>ATOM
      1 C           0.9897   -0.1412    0.4708 C.ar    1  LIG1        0.0154
      2 C           0.6851    0.9537   -0.3041 C.ar    1  LIG1        0.0227
      3 C          -0.6859    0.8496   -0.6753 C.ar    1  LIG1       -0.0218
      4 C          -1.1720   -0.3001   -0.1013 C.ar    1  LIG1        0.0650
      5 N          -0.1378   -0.8940    0.5834 N.ar    1  LIG1       -0.3585
      6 H          -0.2409   -1.7085    1.1680 H       1  LIG1        0.1654
      7 H           1.9178   -0.4196    0.9394 H       1  LIG1        0.0818
      8 S           1.8381    2.2080   -0.7910 S.3     1  LIG1       -0.1412
      9 H           1.4781    3.1241    0.1167 H       1  LIG1        0.1072
     10 H          -1.2422    1.5306   -1.2968 H       1  LIG1        0.0650
     11 C          -2.4998   -0.9198   -0.1431 C.ar    1  LIG1        0.0762
     12 C          -3.7627   -0.4054    0.0740 C.ar    1  LIG1        0.0315
     13 C          -4.6941   -1.4713   -0.0938 C.ar    1  LIG1       -0.0305
     14 C          -3.9715   -2.5962   -0.3960 C.ar    1  LIG1        0.0033
     15 N          -2.6489   -2.2511   -0.4200 N.ar    1  LIG1       -0.3586
     16 H          -1.8956   -2.8480   -0.7231 H       1  LIG1        0.1654
     17 H          -4.2891   -3.6032   -0.6032 H       1  LIG1        0.0807
     18 S          -4.1496    1.2813    0.4464 S.3     1  LIG1       -0.1405
     19 H          -4.2193    1.1494    1.7781 H       1  LIG1        0.1072
     20 H          -5.7637   -1.3963    0.0031 H       1  LIG1        0.0644
@<TRIPOS>BOND
     1    10     3    1
     2     8     2    1
     3     8     9    1
     4    16    15    1
     5     3     2   ar
     6     3     4   ar
     7    17    14    1
     8    15    14   ar
     9    15    11   ar
    10    14    13   ar
    11     2     1   ar
    12    11     4    1
    13    11    12   ar
    14     4     5   ar
    15    13    20    1
    16    13    12   ar
    17    12    18    1
    18    18    19    1
    19     1     5   ar
    20     1     7    1
    21     5     6    1
