@<TRIPOS>MOLECULE
mol_data/opt/m06hf/geoms/mol2/13ga13ga13ga-13ga.out
 38 41 0 0 0
SMALL
GASTEIGER

@<TRIPOS>ATOM
      1 C           0.2469    1.4390    0.6146 C.ar    1  LIG1        0.0154
      2 C          -0.7451    2.3661    0.3935 C.ar    1  LIG1        0.0227
      3 C          -1.9096    1.6598   -0.0217 C.ar    1  LIG1       -0.0218
      4 C          -1.5810    0.3252   -0.0499 C.ar    1  LIG1        0.0650
      5 N          -0.2694    0.2097    0.3468 N.ar    1  LIG1       -0.3585
      6 H           0.2503   -0.6541    0.3438 H       1  LIG1        0.1654
      7 H           1.2649    1.5778    0.9352 H       1  LIG1        0.0818
      8 S          -0.5873    4.1103    0.6642 S.3     1  LIG1       -0.1412
      9 H          -0.4045    4.4597   -0.6150 H       1  LIG1        0.1072
     10 H          -2.8726    2.0808   -0.2550 H       1  LIG1        0.0650
     11 C          -2.3712   -0.8606   -0.3873 C.ar    1  LIG1        0.0767
     12 C          -3.2581   -1.1117   -1.4199 C.ar    1  LIG1        0.0321
     13 C          -3.7310   -2.4414   -1.2615 C.ar    1  LIG1       -0.0211
     14 C          -3.1069   -2.9663   -0.1496 C.ar    1  LIG1        0.0655
     15 N          -2.2889   -1.9974    0.3615 N.ar    1  LIG1       -0.3510
     16 H          -1.7946   -2.0924    1.2403 H       1  LIG1        0.1660
     17 S          -3.7724    0.0329   -2.6674 S.3     1  LIG1       -0.1405
     18 H          -2.8256   -0.2504   -3.5698 H       1  LIG1        0.1072
     19 H          -4.4580   -2.9278   -1.8914 H       1  LIG1        0.0650
     20 C          -3.2215   -4.2874    0.4641 C.ar    1  LIG1        0.0767
     21 C          -2.9002   -4.7565    1.7289 C.ar    1  LIG1        0.0321
     22 C          -3.2318   -6.1362    1.7719 C.ar    1  LIG1       -0.0211
     23 C          -3.7583   -6.4634    0.5400 C.ar    1  LIG1        0.0655
     24 N          -3.7411   -5.3344   -0.2288 N.ar    1  LIG1       -0.3510
     25 H          -4.0140   -5.3220   -1.2042 H       1  LIG1        0.1660
     26 S          -2.1494   -3.8368    3.0438 S.3     1  LIG1       -0.1405
     27 H          -3.2635   -3.3007    3.5608 H       1  LIG1        0.1072
     28 H          -3.0662   -6.7949    2.6087 H       1  LIG1        0.0650
     29 C          -4.2739   -7.7348    0.0345 C.ar    1  LIG1        0.0762
     30 C          -4.4507   -8.2217   -1.2487 C.ar    1  LIG1        0.0315
     31 C          -4.9818   -9.5381   -1.1411 C.ar    1  LIG1       -0.0305
     32 C          -5.1065   -9.8114    0.1964 C.ar    1  LIG1        0.0033
     33 N          -4.6767   -8.7153    0.8902 N.ar    1  LIG1       -0.3586
     34 H          -4.7044   -8.6080    1.8918 H       1  LIG1        0.1654
     35 H          -5.4708  -10.6860    0.7055 H       1  LIG1        0.0807
     36 S          -4.1392   -7.3527   -2.7619 S.3     1  LIG1       -0.1405
     37 H          -2.8302   -7.6182   -2.8646 H       1  LIG1        0.1072
     38 H          -5.2347  -10.1857   -1.9634 H       1  LIG1        0.0644
@<TRIPOS>BOND
     1    18    17    1
     2    37    36    1
     3    36    30    1
     4    17    12    1
     5    38    31    1
     6    19    13    1
     7    12    13   ar
     8    12    11   ar
     9    13    14   ar
    10    30    31   ar
    11    30    29   ar
    12    25    24    1
    13    31    32   ar
    14     9     8    1
    15    11     4    1
    16    11    15   ar
    17    10     3    1
    18    24    20   ar
    19    24    23   ar
    20    14    15   ar
    21    14    20    1
    22     4     3   ar
    23     4     5   ar
    24     3     2   ar
    25    29    23    1
    26    29    33   ar
    27    32    35    1
    28    32    33   ar
    29     6     5    1
    30     5     1   ar
    31    15    16    1
    32     2     1   ar
    33     2     8    1
    34    20    21   ar
    35    23    22   ar
    36     1     7    1
    37    33    34    1
    38    21    22   ar
    39    21    26    1
    40    22    28    1
    41    26    27    1
