@<TRIPOS>MOLECULE
mol_data/opt/m06hf/geoms/mol2/13ga13ga13ga-.out
 29 31 0 0 0
SMALL
GASTEIGER

@<TRIPOS>ATOM
      1 C           1.0464   -0.1084    0.0760 C.ar    1  LIG1        0.0154
      2 C           0.6086    0.9610   -0.6701 C.ar    1  LIG1        0.0227
      3 C          -0.8083    0.8641   -0.7705 C.ar    1  LIG1       -0.0218
      4 C          -1.1854   -0.2558   -0.0695 C.ar    1  LIG1        0.0650
      5 N          -0.0447   -0.8408    0.4283 N.ar    1  LIG1       -0.3585
      6 H          -0.0432   -1.6294    1.0552 H       1  LIG1        0.1654
      7 H           2.0446   -0.3838    0.3696 H       1  LIG1        0.0818
      8 S           1.6640    2.1634   -1.4312 S.3     1  LIG1       -0.1412
      9 H           1.4553    3.1541   -0.5549 H       1  LIG1        0.1072
     10 H          -1.4665    1.5279   -1.3053 H       1  LIG1        0.0650
     11 C          -2.5007   -0.8578    0.1621 C.ar    1  LIG1        0.0767
     12 C          -3.6982   -0.3190    0.5879 C.ar    1  LIG1        0.0321
     13 C          -4.6572   -1.3715    0.6225 C.ar    1  LIG1       -0.0211
     14 C          -4.0162   -2.5207    0.2283 C.ar    1  LIG1        0.0655
     15 N          -2.7067   -2.1966   -0.0402 N.ar    1  LIG1       -0.3510
     16 H          -2.0705   -2.7871   -0.5556 H       1  LIG1        0.1660
     17 S          -3.9820    1.3843    0.9773 S.3     1  LIG1       -0.1405
     18 H          -4.0443    1.2408    2.3067 H       1  LIG1        0.1072
     19 H          -5.6903   -1.2914    0.9152 H       1  LIG1        0.0650
     20 C          -4.4904   -3.8978    0.0785 C.ar    1  LIG1        0.0762
     21 C          -5.6587   -4.4192   -0.4420 C.ar    1  LIG1        0.0315
     22 C          -5.5705   -5.8385   -0.3541 C.ar    1  LIG1       -0.0305
     23 C          -4.3560   -6.1357    0.2077 C.ar    1  LIG1        0.0033
     24 N          -3.7115   -4.9560    0.4593 N.ar    1  LIG1       -0.3586
     25 H          -2.8444   -4.8614    0.9638 H       1  LIG1        0.1654
     26 H          -3.9043   -7.0808    0.4529 H       1  LIG1        0.0807
     27 S          -7.0430   -3.4952   -1.0447 S.3     1  LIG1       -0.1405
     28 H          -6.6376   -3.3773   -2.3163 H       1  LIG1        0.1072
     29 H          -6.3241   -6.5373   -0.6756 H       1  LIG1        0.0644
@<TRIPOS>BOND
     1    28    27    1
     2     8     2    1
     3     8     9    1
     4    10     3    1
     5    27    21    1
     6     3     2   ar
     7     3     4   ar
     8    29    22    1
     9     2     1   ar
    10    16    15    1
    11    21    22   ar
    12    21    20   ar
    13    22    23   ar
    14     4    11    1
    15     4     5   ar
    16    15    11   ar
    17    15    14   ar
    18     1     7    1
    19     1     5   ar
    20    20    14    1
    21    20    24   ar
    22    11    12   ar
    23    23    26    1
    24    23    24   ar
    25    14    13   ar
    26     5     6    1
    27    24    25    1
    28    12    13   ar
    29    12    17    1
    30    13    19    1
    31    17    18    1
