@<TRIPOS>MOLECULE
mol_data/opt/m06hf/geoms/mol2/13ga13ga-13ga13ga.out
 38 41 0 0 0
SMALL
GASTEIGER

@<TRIPOS>ATOM
      1 C           1.0250   -0.0752    0.2542 C.ar    1  LIG1        0.0154
      2 C           0.6032    1.0297   -0.4482 C.ar    1  LIG1        0.0227
      3 C          -0.8114    0.9375   -0.5839 C.ar    1  LIG1       -0.0218
      4 C          -1.2023   -0.2153    0.0532 C.ar    1  LIG1        0.0650
      5 N          -0.0718   -0.8236    0.5471 N.ar    1  LIG1       -0.3585
      6 H          -0.0827   -1.6438    1.1322 H       1  LIG1        0.1654
      7 H           2.0171   -0.3620    0.5573 H       1  LIG1        0.0818
      8 S           1.6783    2.2562   -1.1376 S.3     1  LIG1       -0.1412
      9 H           1.4806    3.2034   -0.2117 H       1  LIG1        0.1072
     10 H          -1.4581    1.6257   -1.1015 H       1  LIG1        0.0650
     11 C          -2.5185   -0.8381    0.2162 C.ar    1  LIG1        0.0767
     12 C          -3.7235   -0.3473    0.6764 C.ar    1  LIG1        0.0321
     13 C          -4.6782   -1.4011    0.5984 C.ar    1  LIG1       -0.0211
     14 C          -4.0260   -2.5053    0.1030 C.ar    1  LIG1        0.0655
     15 N          -2.7162   -2.1520   -0.1177 N.ar    1  LIG1       -0.3510
     16 H          -2.0669   -2.6873   -0.6745 H       1  LIG1        0.1660
     17 S          -4.0118    1.3146    1.2106 S.3     1  LIG1       -0.1405
     18 H          -4.2031    1.0367    2.5063 H       1  LIG1        0.1072
     19 H          -5.7152   -1.3553    0.8844 H       1  LIG1        0.0650
     20 C          -4.4916   -3.8628   -0.1808 C.ar    1  LIG1        0.0767
     21 C          -5.6883   -4.3392   -0.6817 C.ar    1  LIG1        0.0321
     22 C          -5.5871   -5.7560   -0.7638 C.ar    1  LIG1       -0.0211
     23 C          -4.3347   -6.1038   -0.3199 C.ar    1  LIG1        0.0655
     24 N          -3.6767   -4.9438    0.0168 N.ar    1  LIG1       -0.3510
     25 H          -2.8191   -4.9179    0.5475 H       1  LIG1        0.1660
     26 S          -7.1105   -3.3761   -1.1170 S.3     1  LIG1       -0.1405
     27 H          -6.6649   -2.9516   -2.3068 H       1  LIG1        0.1072
     28 H          -6.3439   -6.4336   -1.1214 H       1  LIG1        0.0650
     29 C          -3.6767   -7.4065   -0.1864 C.ar    1  LIG1        0.0762
     30 C          -4.0879   -8.5864    0.4010 C.ar    1  LIG1        0.0315
     31 C          -3.0324   -9.5307    0.2477 C.ar    1  LIG1       -0.0305
     32 C          -2.0141   -8.8967   -0.4164 C.ar    1  LIG1        0.0033
     33 N          -2.4122   -7.6131   -0.6662 N.ar    1  LIG1       -0.3586
     34 H          -1.9113   -6.9443   -1.2297 H       1  LIG1        0.1654
     35 H          -1.0498   -9.2528   -0.7345 H       1  LIG1        0.0807
     36 S          -5.6554   -8.8853    1.1706 S.3     1  LIG1       -0.1405
     37 H          -5.3443   -8.4029    2.3798 H       1  LIG1        0.1072
     38 H          -3.0424  -10.5495    0.5965 H       1  LIG1        0.0644
@<TRIPOS>BOND
     1    27    26    1
     2    34    33    1
     3     8     2    1
     4     8     9    1
     5    28    22    1
     6    26    21    1
     7    10     3    1
     8    22    21   ar
     9    22    23   ar
    10    35    32    1
    11    21    20   ar
    12    16    15    1
    13    33    32   ar
    14    33    29   ar
    15     3     2   ar
    16     3     4   ar
    17     2     1   ar
    18    32    31   ar
    19    23    29    1
    20    23    24   ar
    21    29    30   ar
    22    20    24   ar
    23    20    14    1
    24    15    14   ar
    25    15    11   ar
    26    24    25    1
    27     4    11    1
    28     4     5   ar
    29    14    13   ar
    30    11    12   ar
    31    31    30   ar
    32    31    38    1
    33     1     5   ar
    34     1     7    1
    35    30    36    1
    36     5     6    1
    37    13    12   ar
    38    13    19    1
    39    12    17    1
    40    36    37    1
    41    17    18    1
