@<TRIPOS>MOLECULE
mol_data/opt/m06hf/geoms/mol2/13gd.out
 12 12 0 0 0
SMALL
GASTEIGER

@<TRIPOS>ATOM
      1 C           1.0996   -0.4087   -0.0003 C.ar    1  LIG1        0.0162
      2 C           0.7035    0.9023    0.0003 C.ar    1  LIG1        0.0395
      3 C          -0.7272    0.8928    0.0001 C.ar    1  LIG1        0.0821
      4 C          -1.1399   -0.4225    0.0008 C.ar    1  LIG1        0.0203
      5 N          -0.0283   -1.1907   -0.0002 N.ar    1  LIG1       -0.3649
      6 H          -0.0286   -2.1984   -0.0005 H       1  LIG1        0.1648
      7 H          -2.1332   -0.8361    0.0012 H       1  LIG1        0.0820
      8 H           2.0858   -0.8375   -0.0007 H       1  LIG1        0.0818
      9 S           1.7677    2.3132    0.0005 S.3     1  LIG1       -0.1399
     10 H           0.7732    3.2071    0.0006 H       1  LIG1        0.1072
     11 N          -2.2069    3.0066    0.0004 N.1     1  LIG1       -0.1908
     12 C          -1.5702    2.0506    0.0001 C.1     1  LIG1        0.1017
@<TRIPOS>BOND
     1     8     1    1
     2     6     5    1
     3     1     5   ar
     4     1     2   ar
     5     5     4   ar
     6    12     3    1
     7    12    11    3
     8     3     2   ar
     9     3     4   ar
    10     2     9    1
    11     9    10    1
    12     4     7    1
