@<TRIPOS>MOLECULE
mol_data/opt/m06hf/geoms/mol2/13gd13gd-13gd-.out
 32 34 0 0 0
SMALL
GASTEIGER

@<TRIPOS>ATOM
      1 C           1.1645    0.0014   -0.3393 C.ar    1  LIG1        0.0167
      2 C           0.7562    0.9592    0.5536 C.ar    1  LIG1        0.0401
      3 C          -0.6528    0.7894    0.7165 C.ar    1  LIG1        0.0915
      4 C          -1.0472   -0.2576   -0.0913 C.ar    1  LIG1        0.0827
      5 N           0.0720   -0.7301   -0.7092 N.ar    1  LIG1       -0.3574
      6 H           0.0636   -1.4446   -1.4207 H       1  LIG1        0.1654
      7 H           2.1473   -0.1986   -0.7296 H       1  LIG1        0.0818
      8 S           1.8229    2.0758    1.4094 S.3     1  LIG1       -0.1399
      9 H           1.2114    3.1995    1.0166 H       1  LIG1        0.1072
     10 N          -2.2275    2.1597    2.2343 N.1     1  LIG1       -0.1908
     11 C          -1.5254    1.5465    1.5644 C.1     1  LIG1        0.1024
     12 C          -2.3731   -0.8396   -0.3030 C.ar    1  LIG1        0.0793
     13 C          -3.5493   -0.2550   -0.7140 C.ar    1  LIG1        0.0496
     14 C          -4.5290   -1.2938   -0.7348 C.ar    1  LIG1        0.0922
     15 C          -3.9195   -2.4678   -0.3374 C.ar    1  LIG1        0.0831
     16 N          -2.6145   -2.1757   -0.0838 N.ar    1  LIG1       -0.3499
     17 H          -1.9820   -2.7928    0.4057 H       1  LIG1        0.1661
     18 S          -3.7853    1.4501   -1.0972 S.3     1  LIG1       -0.1393
     19 H          -4.4038    1.2226   -2.2630 H       1  LIG1        0.1072
     20 N          -6.9708   -1.0691   -1.5380 N.1     1  LIG1       -0.1908
     21 C          -5.8889   -1.1743   -1.1692 C.1     1  LIG1        0.1025
     22 C          -4.4705   -3.8103   -0.1683 C.ar    1  LIG1        0.0788
     23 C          -5.5791   -4.2381    0.5258 C.ar    1  LIG1        0.0489
     24 C          -5.6198   -5.6592    0.3755 C.ar    1  LIG1        0.0828
     25 C          -4.5416   -6.0380   -0.3938 C.ar    1  LIG1        0.0208
     26 N          -3.8594   -4.9167   -0.7171 N.ar    1  LIG1       -0.3574
     27 H          -3.0821   -4.8756   -1.3579 H       1  LIG1        0.1654
     28 H          -4.2383   -7.0166   -0.7228 H       1  LIG1        0.0820
     29 S          -6.7274   -3.2203    1.3931 S.3     1  LIG1       -0.1393
     30 H          -6.9223   -4.1007    2.3820 H       1  LIG1        0.1072
     31 N          -7.3685   -7.2248    1.4485 N.1     1  LIG1       -0.1908
     32 C          -6.5904   -6.5387    0.9574 C.1     1  LIG1        0.1018
@<TRIPOS>BOND
     1    19    18    1
     2    20    21    3
     3     6     5    1
     4    27    26    1
     5    21    14    1
     6    18    13    1
     7    14    13   ar
     8    14    15   ar
     9     7     1    1
    10    28    25    1
    11    26    25   ar
    12    26    22   ar
    13    13    12   ar
    14     5     1   ar
    15     5     4   ar
    16    25    24   ar
    17     1     2   ar
    18    15    22    1
    19    15    16   ar
    20    12     4    1
    21    12    16   ar
    22    22    23   ar
    23     4     3   ar
    24    16    17    1
    25    24    23   ar
    26    24    32    1
    27    23    29    1
    28     2     3   ar
    29     2     8    1
    30     3    11    1
    31    32    31    3
    32     9     8    1
    33    29    30    1
    34    11    10    3
