@<TRIPOS>MOLECULE
mol_data/opt/m06hf/geoms/mol2/13gd13gd-13gd13gd-.out
 42 45 0 0 0
SMALL
GASTEIGER

@<TRIPOS>ATOM
      1 C          -0.8845    2.5506   -0.9680 C.ar    1  LIG1        0.0167
      2 C          -0.8815    1.9699   -2.2109 C.ar    1  LIG1        0.0401
      3 C          -1.3609    0.6374   -2.0318 C.ar    1  LIG1        0.0915
      4 C          -1.6324    0.4607   -0.6831 C.ar    1  LIG1        0.0827
      5 N          -1.3390    1.6343   -0.0668 N.ar    1  LIG1       -0.3574
      6 H          -1.4339    1.7681    0.9326 H       1  LIG1        0.1654
      7 H          -0.5970    3.5459   -0.6765 H       1  LIG1        0.0818
      8 S          -0.4669    2.7647   -3.7318 S.3     1  LIG1       -0.1399
      9 H           0.6934    2.1279   -3.9263 H       1  LIG1        0.1072
     10 N          -1.6577   -1.2183   -3.7989 N.1     1  LIG1       -0.1908
     11 C          -1.5178   -0.3677   -3.0380 C.1     1  LIG1        0.1024
     12 C          -2.1390   -0.7101    0.0304 C.ar    1  LIG1        0.0793
     13 C          -2.2870   -0.9633    1.3812 C.ar    1  LIG1        0.0496
     14 C          -2.8144   -2.2809    1.4914 C.ar    1  LIG1        0.0922
     15 C          -2.9774   -2.7819    0.2080 C.ar    1  LIG1        0.0831
     16 N          -2.5608   -1.8187   -0.6474 N.ar    1  LIG1       -0.3499
     17 H          -2.6161   -1.9099   -1.6599 H       1  LIG1        0.1661
     18 S          -1.8413    0.0880    2.7314 S.3     1  LIG1       -0.1393
     19 H          -3.0890    0.4078    3.1022 H       1  LIG1        0.1072
     20 N          -3.4336   -3.5541    3.6471 N.1     1  LIG1       -0.1908
     21 C          -3.1502   -2.9689    2.6994 C.1     1  LIG1        0.1025
     22 C          -3.4868   -4.0741   -0.2400 C.ar    1  LIG1        0.0793
     23 C          -3.9045   -4.4950   -1.4880 C.ar    1  LIG1        0.0496
     24 C          -4.3285   -5.8435   -1.3319 C.ar    1  LIG1        0.0922
     25 C          -4.1465   -6.2015   -0.0022 C.ar    1  LIG1        0.0831
     26 N          -3.6381   -5.1180    0.6300 N.ar    1  LIG1       -0.3499
     27 H          -3.3751   -5.1297    1.6146 H       1  LIG1        0.1661
     28 S          -4.0039   -3.5276   -2.9653 S.3     1  LIG1       -0.1393
     29 H          -2.8370   -3.9140   -3.4947 H       1  LIG1        0.1072
     30 N          -5.2971   -7.4584   -3.0933 N.1     1  LIG1       -0.1908
     31 C          -4.8601   -6.7062   -2.3417 C.1     1  LIG1        0.1025
     32 C          -4.4277   -7.4599    0.6862 C.ar    1  LIG1        0.0788
     33 C          -4.1917   -7.8454    1.9927 C.ar    1  LIG1        0.0489
     34 C          -4.6813   -9.1785    2.1174 C.ar    1  LIG1        0.0828
     35 C          -5.1977   -9.5489    0.8945 C.ar    1  LIG1        0.0208
     36 N          -5.0364   -8.5072    0.0478 N.ar    1  LIG1       -0.3574
     37 H          -5.3247   -8.4997   -0.9235 H       1  LIG1        0.1654
     38 H          -5.6584  -10.4718    0.5882 H       1  LIG1        0.0820
     39 S          -3.3462   -6.9147    3.2380 S.3     1  LIG1       -0.1393
     40 H          -4.4237   -6.3896    3.8330 H       1  LIG1        0.1072
     41 N          -4.6268  -10.6349    4.2479 N.1     1  LIG1       -0.1908
     42 C          -4.6493   -9.9894    3.2996 C.1     1  LIG1        0.1018
@<TRIPOS>BOND
     1     9     8    1
     2    10    11    3
     3     8     2    1
     4    29    28    1
     5    30    31    3
     6    11     3    1
     7    28    23    1
     8    31    24    1
     9     2     3   ar
    10     2     1   ar
    11     3     4   ar
    12    17    16    1
    13    23    24   ar
    14    23    22   ar
    15    24    25   ar
    16     1     7    1
    17     1     5   ar
    18    37    36    1
    19     4     5   ar
    20     4    12    1
    21    16    12   ar
    22    16    15   ar
    23    22    15    1
    24    22    26   ar
    25     5     6    1
    26    25    26   ar
    27    25    32    1
    28    12    13   ar
    29    36    32   ar
    30    36    35   ar
    31    15    14   ar
    32    38    35    1
    33    26    27    1
    34    32    33   ar
    35    35    34   ar
    36    13    14   ar
    37    13    18    1
    38    14    21    1
    39    33    34   ar
    40    33    39    1
    41    34    42    1
    42    21    20    3
    43    18    19    1
    44    39    40    1
    45    42    41    3
