@<TRIPOS>MOLECULE
mol_data/opt/m06hf/geoms/mol2/13gd13gd13gd-.out
 32 34 0 0 0
SMALL
GASTEIGER

@<TRIPOS>ATOM
      1 C           0.1665    1.4403    1.2639 C.ar    1  LIG1        0.0167
      2 C           0.8234    0.2856    0.9232 C.ar    1  LIG1        0.0401
      3 C          -0.1820   -0.6437    0.5180 C.ar    1  LIG1        0.0915
      4 C          -1.4121   -0.0128    0.6266 C.ar    1  LIG1        0.0827
      5 N          -1.1705    1.2421    1.0850 N.ar    1  LIG1       -0.3574
      6 H          -1.9030    1.9248    1.2352 H       1  LIG1        0.1654
      7 H           0.5622    2.3759    1.6189 H       1  LIG1        0.0818
      8 S           2.5584   -0.0031    1.0771 S.3     1  LIG1       -0.1399
      9 H           2.8162   -0.0992   -0.2331 H       1  LIG1        0.1072
     10 N           0.1344   -3.0535   -0.3470 N.1     1  LIG1       -0.1908
     11 C           0.0205   -1.9789    0.0453 C.1     1  LIG1        0.1024
     12 C          -2.7561   -0.5088    0.3358 C.ar    1  LIG1        0.0793
     13 C          -3.9675    0.1482    0.2423 C.ar    1  LIG1        0.0496
     14 C          -4.9378   -0.8372   -0.0914 C.ar    1  LIG1        0.0922
     15 C          -4.2910   -2.0622   -0.1788 C.ar    1  LIG1        0.0831
     16 N          -2.9814   -1.8333    0.0781 N.ar    1  LIG1       -0.3499
     17 H          -2.2846   -2.5776    0.1056 H       1  LIG1        0.1661
     18 S          -4.2650    1.8839    0.4071 S.3     1  LIG1       -0.1393
     19 H          -5.0048    1.8115    1.5198 H       1  LIG1        0.1072
     20 N          -7.4654   -0.5291   -0.4960 N.1     1  LIG1       -0.1908
     21 C          -6.3360   -0.6296   -0.3051 C.1     1  LIG1        0.1025
     22 C          -4.8210   -3.3858   -0.5013 C.ar    1  LIG1        0.0788
     23 C          -4.2196   -4.6298   -0.4804 C.ar    1  LIG1        0.0489
     24 C          -5.2073   -5.5649   -0.9075 C.ar    1  LIG1        0.0828
     25 C          -6.3615   -4.8609   -1.1736 C.ar    1  LIG1        0.0208
     26 N          -6.1137   -3.5557   -0.9222 N.ar    1  LIG1       -0.3574
     27 H          -6.7902   -2.8087   -1.0241 H       1  LIG1        0.1654
     28 H          -7.3206   -5.2063   -1.5183 H       1  LIG1        0.0820
     29 S          -2.5857   -5.0010    0.0849 S.3     1  LIG1       -0.1393
     30 H          -2.0244   -5.1685   -1.1178 H       1  LIG1        0.1072
     31 N          -4.8811   -8.1122   -1.1716 N.1     1  LIG1       -0.1908
     32 C          -5.0307   -6.9809   -1.0498 C.1     1  LIG1        0.1018
@<TRIPOS>BOND
     1    28    25    1
     2    25    26   ar
     3    25    24   ar
     4    31    32    3
     5    30    29    1
     6    32    24    1
     7    27    26    1
     8    26    22   ar
     9    24    23   ar
    10    22    23   ar
    11    22    15    1
    12    20    21    3
    13    23    29    1
    14    10    11    3
    15    21    14    1
    16     9     8    1
    17    15    14   ar
    18    15    16   ar
    19    14    13   ar
    20    11     3    1
    21    16    17    1
    22    16    12   ar
    23    13    12   ar
    24    13    18    1
    25    12     4    1
    26    18    19    1
    27     3     4   ar
    28     3     2   ar
    29     4     5   ar
    30     2     8    1
    31     2     1   ar
    32     5     6    1
    33     5     1   ar
    34     1     7    1
