@<TRIPOS>MOLECULE
mol_data/opt/m06hf/geoms/mol2/13gd13gd13gd-13gd-.out
 42 45 0 0 0
SMALL
GASTEIGER

@<TRIPOS>ATOM
      1 C           0.1502    1.4206    0.4025 C.ar    1  LIG1        0.0167
      2 C           0.7360    0.1905    0.2443 C.ar    1  LIG1        0.0401
      3 C          -0.3322   -0.7548    0.1781 C.ar    1  LIG1        0.0915
      4 C          -1.5269   -0.0540    0.2956 C.ar    1  LIG1        0.0827
      5 N          -1.2044    1.2541    0.4302 N.ar    1  LIG1       -0.3574
      6 H          -1.9030    1.9838    0.5075 H       1  LIG1        0.1654
      7 H           0.6098    2.3892    0.4961 H       1  LIG1        0.0818
      8 S           2.4690   -0.1530    0.2178 S.3     1  LIG1       -0.1399
      9 H           2.5902   -0.2245   -1.1139 H       1  LIG1        0.1072
     10 N          -0.3266   -3.3180   -0.1149 N.1     1  LIG1       -0.1908
     11 C          -0.2554   -2.1752    0.0084 C.1     1  LIG1        0.1024
     12 C          -2.8948   -0.5632    0.2813 C.ar    1  LIG1        0.0793
     13 C          -4.1315    0.0387    0.1599 C.ar    1  LIG1        0.0496
     14 C          -5.1024   -1.0108    0.1350 C.ar    1  LIG1        0.0922
     15 C          -4.4227   -2.2093    0.2603 C.ar    1  LIG1        0.0831
     16 N          -3.1034   -1.9084    0.3506 N.ar    1  LIG1       -0.3499
     17 H          -2.3843   -2.5944    0.5416 H       1  LIG1        0.1661
     18 S          -4.4357    1.7680   -0.0466 S.3     1  LIG1       -0.1393
     19 H          -5.0368    1.9603    1.1345 H       1  LIG1        0.1072
     20 N          -7.6449   -0.7187   -0.1880 N.1     1  LIG1       -0.1908
     21 C          -6.5143   -0.8551   -0.0446 C.1     1  LIG1        0.1025
     22 C          -4.7812   -3.6218    0.2608 C.ar    1  LIG1        0.0793
     23 C          -5.7778   -4.3529    0.8625 C.ar    1  LIG1        0.0496
     24 C          -5.4495   -5.7301    0.6489 C.ar    1  LIG1        0.0922
     25 C          -4.2683   -5.7869   -0.0685 C.ar    1  LIG1        0.0831
     26 N          -3.8843   -4.5055   -0.3010 N.ar    1  LIG1       -0.3499
     27 H          -3.1606   -4.2464   -0.9593 H       1  LIG1        0.1661
     28 S          -7.1525   -3.7043    1.7525 S.3     1  LIG1       -0.1393
     29 H          -7.1531   -4.6811    2.6682 H       1  LIG1        0.1072
     30 N          -6.7326   -7.7151    1.6809 N.1     1  LIG1       -0.1908
     31 C          -6.1551   -6.8458    1.2021 C.1     1  LIG1        0.1025
     32 C          -3.4347   -6.9001   -0.5083 C.ar    1  LIG1        0.0788
     33 C          -3.7525   -8.1269   -1.0475 C.ar    1  LIG1        0.0489
     34 C          -2.5089   -8.7805   -1.3082 C.ar    1  LIG1        0.0828
     35 C          -1.4926   -7.9280   -0.9335 C.ar    1  LIG1        0.0208
     36 N          -2.0610   -6.8023   -0.4491 N.ar    1  LIG1       -0.3574
     37 H          -1.5508   -6.0269   -0.0466 H       1  LIG1        0.1654
     38 H          -0.4259   -8.0629   -0.9753 H       1  LIG1        0.0820
     39 S          -5.3721   -8.7569   -1.3491 S.3     1  LIG1       -0.1393
     40 H          -5.0813   -9.2111   -2.5743 H       1  LIG1        0.1072
     41 N          -2.2303  -11.1155   -2.3715 N.1     1  LIG1       -0.1908
     42 C          -2.3450  -10.0796   -1.8908 C.1     1  LIG1        0.1018
@<TRIPOS>BOND
     1    40    39    1
     2    41    42    3
     3    42    34    1
     4    39    33    1
     5    34    33   ar
     6    34    35   ar
     7     9     8    1
     8    33    32   ar
     9    38    35    1
    10    27    26    1
    11    35    36   ar
    12    32    36   ar
    13    32    25    1
    14    36    37    1
    15    26    25   ar
    16    26    22   ar
    17    20    21    3
    18    10    11    3
    19    25    24   ar
    20    18    13    1
    21    18    19    1
    22    21    14    1
    23    11     3    1
    24    14    13   ar
    25    14    15   ar
    26    13    12   ar
    27     3     2   ar
    28     3     4   ar
    29     8     2    1
    30     2     1   ar
    31    15    22    1
    32    15    16   ar
    33    22    23   ar
    34    12     4    1
    35    12    16   ar
    36     4     5   ar
    37    16    17    1
    38     1     5   ar
    39     1     7    1
    40     5     6    1
    41    24    23   ar
    42    24    31    1
    43    23    28    1
    44    31    30    3
    45    28    29    1
