@<TRIPOS>MOLECULE
mol_data/opt/m06hf/geoms/mol2/13gd13gd13gd.out
 32 34 0 0 0
SMALL
GASTEIGER

@<TRIPOS>ATOM
      1 C           0.2193    1.7152    0.3672 C.ar    1  LIG1        0.0167
      2 C           0.7425    0.7602   -0.4674 C.ar    1  LIG1        0.0401
      3 C          -0.2118   -0.3004   -0.5076 C.ar    1  LIG1        0.0915
      4 C          -1.2844    0.0612    0.2947 C.ar    1  LIG1        0.0827
      5 N          -0.9941    1.2812    0.8123 N.ar    1  LIG1       -0.3574
      6 H          -1.6104    1.7625    1.4570 H       1  LIG1        0.1654
      7 H           0.6331    2.6621    0.6671 H       1  LIG1        0.0818
      8 S           2.3232    0.8048   -1.2556 S.3     1  LIG1       -0.1399
      9 H           1.8849    1.2000   -2.4575 H       1  LIG1        0.1072
     10 N          -0.1662   -2.5724   -1.7252 N.1     1  LIG1       -0.1908
     11 C          -0.1263   -1.5468   -1.2055 C.1     1  LIG1        0.1024
     12 C          -2.5133   -0.6709    0.5924 C.ar    1  LIG1        0.0793
     13 C          -3.4962   -0.4738    1.5429 C.ar    1  LIG1        0.0496
     14 C          -4.4347   -1.5367    1.3921 C.ar    1  LIG1        0.0922
     15 C          -3.9989   -2.3381    0.3535 C.ar    1  LIG1        0.0831
     16 N          -2.8450   -1.7924   -0.1141 N.ar    1  LIG1       -0.3499
     17 H          -2.3441   -2.1266   -0.9291 H       1  LIG1        0.1661
     18 S          -3.6167    0.8641    2.6930 S.3     1  LIG1       -0.1393
     19 H          -3.1206    0.2171    3.7556 H       1  LIG1        0.1072
     20 N          -6.4798   -1.9730    2.9032 N.1     1  LIG1       -0.1908
     21 C          -5.5759   -1.7802    2.2224 C.1     1  LIG1        0.1025
     22 C          -4.5275   -3.5733   -0.2153 C.ar    1  LIG1        0.0788
     23 C          -5.8114   -3.9548   -0.5345 C.ar    1  LIG1        0.0489
     24 C          -5.7090   -5.2649   -1.0968 C.ar    1  LIG1        0.0828
     25 C          -4.3774   -5.6194   -1.1116 C.ar    1  LIG1        0.0208
     26 N          -3.6782   -4.5969   -0.5720 N.ar    1  LIG1       -0.3574
     27 H          -2.6819   -4.6008   -0.4039 H       1  LIG1        0.1654
     28 H          -3.9062   -6.5218   -1.4602 H       1  LIG1        0.0820
     29 S          -7.2816   -3.0097   -0.2948 S.3     1  LIG1       -0.1393
     30 H          -7.7756   -3.2734   -1.5115 H       1  LIG1        0.1072
     31 N          -7.6727   -6.6756   -2.0020 N.1     1  LIG1       -0.1908
     32 C          -6.7953   -6.0570   -1.5950 C.1     1  LIG1        0.1018
@<TRIPOS>BOND
     1     9     8    1
     2    31    32    3
     3    10    11    3
     4    32    24    1
     5    30    29    1
     6    28    25    1
     7     8     2    1
     8    11     3    1
     9    25    24   ar
    10    25    26   ar
    11    24    23   ar
    12    17    16    1
    13    26    27    1
    14    26    22   ar
    15    23    29    1
    16    23    22   ar
    17     3     2   ar
    18     3     4   ar
    19     2     1   ar
    20    22    15    1
    21    16    15   ar
    22    16    12   ar
    23     4    12    1
    24     4     5   ar
    25    15    14   ar
    26     1     7    1
    27     1     5   ar
    28    12    13   ar
    29     5     6    1
    30    14    13   ar
    31    14    21    1
    32    13    18    1
    33    21    20    3
    34    18    19    1
