@<TRIPOS>MOLECULE
mol_data/opt/m06hf/geoms/mol2/13gd13gd13gd13gd.out
 42 45 0 0 0
SMALL
GASTEIGER

@<TRIPOS>ATOM
      1 C           1.1655    0.1620    0.2050 C.ar    1  LIG1        0.0167
      2 C           0.6719    1.2834   -0.4113 C.ar    1  LIG1        0.0401
      3 C          -0.7419    1.1028   -0.5136 C.ar    1  LIG1        0.0915
      4 C          -1.0534   -0.1152    0.0544 C.ar    1  LIG1        0.0827
      5 N           0.1198   -0.6736    0.4718 N.ar    1  LIG1       -0.3574
      6 H           0.1782   -1.5295    1.0016 H       1  LIG1        0.1654
      7 H           2.1792   -0.0833    0.4701 H       1  LIG1        0.0818
      8 S           1.6357    2.6260   -1.0336 S.3     1  LIG1       -0.1399
      9 H           1.1967    3.5371   -0.1578 H       1  LIG1        0.1072
     10 N          -2.4487    2.7270   -1.5680 N.1     1  LIG1       -0.1908
     11 C          -1.6885    2.0022   -1.1051 C.1     1  LIG1        0.1024
     12 C          -2.3451   -0.7773    0.2290 C.ar    1  LIG1        0.0793
     13 C          -3.5092   -0.3228    0.8048 C.ar    1  LIG1        0.0496
     14 C          -4.4483   -1.3953    0.7140 C.ar    1  LIG1        0.0922
     15 C          -3.8281   -2.4598    0.0893 C.ar    1  LIG1        0.0831
     16 N          -2.5545   -2.0706   -0.1946 N.ar    1  LIG1       -0.3499
     17 H          -1.9413   -2.5632   -0.8279 H       1  LIG1        0.1661
     18 S          -3.7716    1.2772    1.4972 S.3     1  LIG1       -0.1393
     19 H          -4.4406    0.8284    2.5650 H       1  LIG1        0.1072
     20 N          -6.8301   -1.4052    1.7072 N.1     1  LIG1       -0.1908
     21 C          -5.7744   -1.4070    1.2558 C.1     1  LIG1        0.1025
     22 C          -4.3337   -3.7882   -0.2427 C.ar    1  LIG1        0.0793
     23 C          -5.5164   -4.1781   -0.8323 C.ar    1  LIG1        0.0496
     24 C          -5.4700   -5.6035   -0.9134 C.ar    1  LIG1        0.0922
     25 C          -4.2710   -6.0296   -0.3780 C.ar    1  LIG1        0.0831
     26 N          -3.5925   -4.9199    0.0189 N.ar    1  LIG1       -0.3499
     27 H          -2.7838   -4.9426    0.6230 H       1  LIG1        0.1661
     28 S          -6.8176   -3.1217   -1.3747 S.3     1  LIG1       -0.1393
     29 H          -7.1425   -3.8908   -2.4209 H       1  LIG1        0.1072
     30 N          -7.2606   -7.1043   -2.0081 N.1     1  LIG1       -0.1908
     31 C          -6.4591   -6.4502   -1.5103 C.1     1  LIG1        0.1025
     32 C          -3.7342   -7.3799   -0.2156 C.ar    1  LIG1        0.0788
     33 C          -4.2837   -8.4931    0.3787 C.ar    1  LIG1        0.0489
     34 C          -3.3093   -9.5323    0.2597 C.ar    1  LIG1        0.0828
     35 C          -2.2127   -9.0136   -0.3925 C.ar    1  LIG1        0.0208
     36 N          -2.4824   -7.7178   -0.6754 N.ar    1  LIG1       -0.3574
     37 H          -1.9021   -7.1135   -1.2366 H       1  LIG1        0.1654
     38 H          -1.2883   -9.4879   -0.6724 H       1  LIG1        0.0820
     39 S          -5.8969   -8.6021    1.0845 S.3     1  LIG1       -0.1393
     40 H          -5.4803   -9.0834    2.2616 H       1  LIG1        0.1072
     41 N          -3.5340  -11.9388    1.1654 N.1     1  LIG1       -0.1908
     42 C          -3.4328  -10.8723    0.7545 C.1     1  LIG1        0.1018
@<TRIPOS>BOND
     1    29    28    1
     2    30    31    3
     3    10    11    3
     4    31    24    1
     5    28    23    1
     6    37    36    1
     7    11     3    1
     8     8     2    1
     9     8     9    1
    10    24    23   ar
    11    24    25   ar
    12    23    22   ar
    13    17    16    1
    14    36    35   ar
    15    36    32   ar
    16    38    35    1
    17     3     2   ar
    18     3     4   ar
    19     2     1   ar
    20    35    34   ar
    21    25    32    1
    22    25    26   ar
    23    22    26   ar
    24    22    15    1
    25    32    33   ar
    26    16    15   ar
    27    16    12   ar
    28    26    27    1
    29     4    12    1
    30     4     5   ar
    31    15    14   ar
    32     1     7    1
    33     1     5   ar
    34    12    13   ar
    35    34    33   ar
    36    34    42    1
    37    33    39    1
    38     5     6    1
    39    14    13   ar
    40    14    21    1
    41    42    41    3
    42    13    18    1
    43    39    40    1
    44    21    20    3
    45    18    19    1
