@<TRIPOS>MOLECULE
mol_data/opt/m06hf/geoms/mol2/13gd13gd13gd-13gd.out
 42 45 0 0 0
SMALL
GASTEIGER

@<TRIPOS>ATOM
      1 C          -0.8560    2.5368    0.9570 C.ar    1  LIG1        0.0167
      2 C          -0.8228    1.9402    2.1919 C.ar    1  LIG1        0.0401
      3 C          -1.3077    0.6104    2.0078 C.ar    1  LIG1        0.0915
      4 C          -1.6125    0.4511    0.6640 C.ar    1  LIG1        0.0827
      5 N          -1.3334    1.6323    0.0557 N.ar    1  LIG1       -0.3574
      6 H          -1.4527    1.7788   -0.9394 H       1  LIG1        0.1654
      7 H          -0.5749    3.5355    0.6711 H       1  LIG1        0.0818
      8 S          -0.3700    2.7154    3.7121 S.3     1  LIG1       -0.1399
      9 H           0.7941    2.0755    3.8698 H       1  LIG1        0.1072
     10 N          -1.5624   -1.2675    3.7579 N.1     1  LIG1       -0.1908
     11 C          -1.4406   -0.4074    3.0046 C.1     1  LIG1        0.1024
     12 C          -2.1376   -0.7102   -0.0516 C.ar    1  LIG1        0.0793
     13 C          -2.3191   -0.9462   -1.4015 C.ar    1  LIG1        0.0496
     14 C          -2.8502   -2.2619   -1.5154 C.ar    1  LIG1        0.0922
     15 C          -2.9820   -2.7792   -0.2348 C.ar    1  LIG1        0.0831
     16 N          -2.5435   -1.8272    0.6223 N.ar    1  LIG1       -0.3499
     17 H          -2.5739   -1.9312    1.6346 H       1  LIG1        0.1661
     18 S          -1.9059    0.1220   -2.7488 S.3     1  LIG1       -0.1393
     19 H          -3.1620    0.4472   -3.0846 H       1  LIG1        0.1072
     20 N          -3.5235   -3.5072   -3.6711 N.1     1  LIG1       -0.1908
     21 C          -3.2163   -2.9343   -2.7234 C.1     1  LIG1        0.1025
     22 C          -3.4813   -4.0766    0.2092 C.ar    1  LIG1        0.0793
     23 C          -3.8685   -4.5132    1.4617 C.ar    1  LIG1        0.0496
     24 C          -4.2974   -5.8593    1.2990 C.ar    1  LIG1        0.0922
     25 C          -4.1486   -6.2004   -0.0393 C.ar    1  LIG1        0.0831
     26 N          -3.6550   -5.1092   -0.6700 N.ar    1  LIG1       -0.3499
     27 H          -3.4163   -5.1087   -1.6608 H       1  LIG1        0.1661
     28 S          -3.9306   -3.5645    2.9531 S.3     1  LIG1       -0.1393
     29 H          -2.7512   -3.9583    3.4485 H       1  LIG1        0.1072
     30 N          -5.2236   -7.4960    3.0630 N.1     1  LIG1       -0.1908
     31 C          -4.8047   -6.7344    2.3105 C.1     1  LIG1        0.1025
     32 C          -4.4477   -7.4498   -0.7365 C.ar    1  LIG1        0.0788
     33 C          -4.2443   -7.8188   -2.0532 C.ar    1  LIG1        0.0489
     34 C          -4.7381   -9.1499   -2.1828 C.ar    1  LIG1        0.0828
     35 C          -5.2245   -9.5355   -0.9523 C.ar    1  LIG1        0.0208
     36 N          -5.0415   -8.5048   -0.0966 N.ar    1  LIG1       -0.3574
     37 H          -5.3058   -8.5095    0.8815 H       1  LIG1        0.1654
     38 H          -5.6784  -10.4620   -0.6464 H       1  LIG1        0.0820
     39 S          -3.4290   -6.8728   -3.3070 S.3     1  LIG1       -0.1393
     40 H          -4.5204   -6.3396   -3.8686 H       1  LIG1        0.1072
     41 N          -4.7373  -10.5792   -4.3323 N.1     1  LIG1       -0.1908
     42 C          -4.7359   -9.9457   -3.3756 C.1     1  LIG1        0.1018
@<TRIPOS>BOND
     1    41    42    3
     2    40    39    1
     3    20    21    3
     4    42    34    1
     5    39    33    1
     6    19    18    1
     7    18    13    1
     8    21    14    1
     9    34    33   ar
    10    34    35   ar
    11    33    32   ar
    12    27    26    1
    13    14    13   ar
    14    14    15   ar
    15    13    12   ar
    16    35    38    1
    17    35    36   ar
    18     6     5    1
    19    32    36   ar
    20    32    25    1
    21    26    25   ar
    22    26    22   ar
    23    15    22    1
    24    15    16   ar
    25    36    37    1
    26    12    16   ar
    27    12     4    1
    28    25    24   ar
    29     5     4   ar
    30     5     1   ar
    31    22    23   ar
    32    16    17    1
    33     4     3   ar
    34     7     1    1
    35     1     2   ar
    36    24    23   ar
    37    24    31    1
    38    23    28    1
    39     3     2   ar
    40     3    11    1
    41     2     8    1
    42    31    30    3
    43    28    29    1
    44    11    10    3
    45     8     9    1
