@<TRIPOS>MOLECULE
mol_data/opt/m06hf/geoms/mol2/13gd13gd-.out
 22 23 0 0 0
SMALL
GASTEIGER

@<TRIPOS>ATOM
      1 C           1.0549   -0.2576   -0.7363 C.ar    1  LIG1        0.0167
      2 C           0.7927    0.9522   -0.1468 C.ar    1  LIG1        0.0401
      3 C          -0.5734    0.9126    0.2669 C.ar    1  LIG1        0.0915
      4 C          -1.0924   -0.3168   -0.0918 C.ar    1  LIG1        0.0827
      5 N          -0.0892   -1.0094   -0.6914 N.ar    1  LIG1       -0.3574
      6 H          -0.2100   -1.9093   -1.1304 H       1  LIG1        0.1654
      7 H           1.9601   -0.6307   -1.1825 H       1  LIG1        0.0818
      8 S           1.9451    2.2740    0.0617 S.3     1  LIG1       -0.1399
      9 H           1.0768    3.0911    0.6683 H       1  LIG1        0.1072
     10 N          -1.8061    2.8068    1.5100 N.1     1  LIG1       -0.1908
     11 C          -1.2782    1.9488    0.9583 C.1     1  LIG1        0.1024
     12 C          -2.4312   -0.8753    0.0964 C.ar    1  LIG1        0.0788
     13 C          -3.6671   -0.3815   -0.2535 C.ar    1  LIG1        0.0489
     14 C          -4.6234   -1.3599    0.1625 C.ar    1  LIG1        0.0828
     15 C          -3.9365   -2.4052    0.7389 C.ar    1  LIG1        0.0208
     16 N          -2.6192   -2.0981    0.6971 N.ar    1  LIG1       -0.3574
     17 H          -1.8822   -2.6344    1.1296 H       1  LIG1        0.1654
     18 H          -4.3050   -3.3189    1.1721 H       1  LIG1        0.0820
     19 S          -3.9801    1.1858   -1.0009 S.3     1  LIG1       -0.1393
     20 H          -4.6951    0.6997   -2.0244 H       1  LIG1        0.1072
     21 N          -7.1799   -1.2329   -0.1771 N.1     1  LIG1       -0.1908
     22 C          -6.0446   -1.2890   -0.0168 C.1     1  LIG1        0.1018
@<TRIPOS>BOND
     1    20    19    1
     2     7     1    1
     3     6     5    1
     4    19    13    1
     5     1     5   ar
     6     1     2   ar
     7     5     4   ar
     8    13    12   ar
     9    13    14   ar
    10    21    22    3
    11     2     8    1
    12     2     3   ar
    13     4    12    1
    14     4     3   ar
    15    22    14    1
    16     8     9    1
    17    12    16   ar
    18    14    15   ar
    19     3    11    1
    20    16    15   ar
    21    16    17    1
    22    15    18    1
    23    11    10    3
