@<TRIPOS>MOLECULE
mol_data/opt/m06hf/geoms/mol2/13gd13gd-13gd.out
 32 34 0 0 0
SMALL
GASTEIGER

@<TRIPOS>ATOM
      1 C           0.1299    1.4899   -1.2357 C.ar    1  LIG1        0.0167
      2 C           0.7974    0.3290   -0.9401 C.ar    1  LIG1        0.0401
      3 C          -0.1968   -0.6162   -0.5439 C.ar    1  LIG1        0.0915
      4 C          -1.4311    0.0121   -0.6124 C.ar    1  LIG1        0.0827
      5 N          -1.2029    1.2806   -1.0388 N.ar    1  LIG1       -0.3574
      6 H          -1.9407    1.9640   -1.1563 H       1  LIG1        0.1654
      7 H           0.5154    2.4371   -1.5707 H       1  LIG1        0.0818
      8 S           2.5306    0.0526   -1.1330 S.3     1  LIG1       -0.1399
      9 H           2.8122   -0.0798    0.1690 H       1  LIG1        0.1072
     10 N           0.1448   -3.0482    0.2457 N.1     1  LIG1       -0.1908
     11 C           0.0196   -1.9634   -0.1135 C.1     1  LIG1        0.1024
     12 C          -2.7677   -0.4982   -0.3121 C.ar    1  LIG1        0.0793
     13 C          -3.9799    0.1503   -0.1783 C.ar    1  LIG1        0.0496
     14 C          -4.9401   -0.8486    0.1443 C.ar    1  LIG1        0.0922
     15 C          -4.2869   -2.0727    0.1849 C.ar    1  LIG1        0.0831
     16 N          -2.9831   -1.8306   -0.0886 N.ar    1  LIG1       -0.3499
     17 H          -2.2838   -2.5706   -0.1499 H       1  LIG1        0.1661
     18 S          -4.2872    1.8887   -0.2878 S.3     1  LIG1       -0.1393
     19 H          -5.0466    1.8448   -1.3888 H       1  LIG1        0.1072
     20 N          -7.4613   -0.5637    0.6024 N.1     1  LIG1       -0.1908
     21 C          -6.3351   -0.6535    0.3887 C.1     1  LIG1        0.1025
     22 C          -4.8056   -3.4074    0.4785 C.ar    1  LIG1        0.0788
     23 C          -4.1997   -4.6475    0.4113 C.ar    1  LIG1        0.0489
     24 C          -5.1759   -5.5990    0.8288 C.ar    1  LIG1        0.0828
     25 C          -6.3280   -4.9081    1.1356 C.ar    1  LIG1        0.0208
     26 N          -6.0899   -3.5951    0.9173 N.ar    1  LIG1       -0.3574
     27 H          -6.7675   -2.8545    1.0528 H       1  LIG1        0.1654
     28 H          -7.2793   -5.2676    1.4872 H       1  LIG1        0.0820
     29 S          -2.5748   -4.9949   -0.1935 S.3     1  LIG1       -0.1393
     30 H          -1.9913   -5.1943    0.9937 H       1  LIG1        0.1072
     31 N          -4.8347   -8.1513    1.0138 N.1     1  LIG1       -0.1908
     32 C          -4.9910   -7.0177    0.9272 C.1     1  LIG1        0.1018
@<TRIPOS>BOND
     1     7     1    1
     2    19    18    1
     3     1     5   ar
     4     1     2   ar
     5     6     5    1
     6     8     2    1
     7     8     9    1
     8     5     4   ar
     9     2     3   ar
    10     4     3   ar
    11     4    12    1
    12     3    11    1
    13    12    13   ar
    14    12    16   ar
    15    18    13    1
    16    29    23    1
    17    29    30    1
    18    13    14   ar
    19    17    16    1
    20    11    10    3
    21    16    15   ar
    22    14    15   ar
    23    14    21    1
    24    15    22    1
    25    21    20    3
    26    23    22   ar
    27    23    24   ar
    28    22    26   ar
    29    24    32    1
    30    24    25   ar
    31    26    27    1
    32    26    25   ar
    33    32    31    3
    34    25    28    1
