@<TRIPOS>MOLECULE
mol_data/opt/m06hf/geoms/mol2/13gd13gd-13gd13gd.out
 42 45 0 0 0
SMALL
GASTEIGER

@<TRIPOS>ATOM
      1 C           0.2292    1.6215    0.2826 C.ar    1  LIG1        0.0167
      2 C           0.8114    0.4443    0.6808 C.ar    1  LIG1        0.0401
      3 C          -0.1639   -0.5753    0.4654 C.ar    1  LIG1        0.0915
      4 C          -1.3054    0.0287   -0.0418 C.ar    1  LIG1        0.0827
      5 N          -1.0374    1.3536   -0.1460 N.ar    1  LIG1       -0.3574
      6 H          -1.6985    2.0196   -0.5273 H       1  LIG1        0.1654
      7 H           0.6353    2.6184    0.2783 H       1  LIG1        0.0818
      8 S           2.4767    0.2406    1.2324 S.3     1  LIG1       -0.1399
      9 H           2.1925    0.0751    2.5295 H       1  LIG1        0.1072
     10 N          -0.0734   -3.1258    0.8310 N.1     1  LIG1       -0.1908
     11 C          -0.0475   -1.9852    0.6844 C.1     1  LIG1        0.1024
     12 C          -2.5749   -0.5765   -0.4349 C.ar    1  LIG1        0.0793
     13 C          -3.6163   -0.1113   -1.2142 C.ar    1  LIG1        0.0496
     14 C          -4.5650   -1.1720   -1.3077 C.ar    1  LIG1        0.0922
     15 C          -4.0767   -2.2386   -0.5757 C.ar    1  LIG1        0.0831
     16 N          -2.8823   -1.8520   -0.0554 N.ar    1  LIG1       -0.3499
     17 H          -2.3302   -2.4070    0.5876 H       1  LIG1        0.1661
     18 S          -3.7869    1.5061   -1.9058 S.3     1  LIG1       -0.1393
     19 H          -3.3976    1.2024   -3.1507 H       1  LIG1        0.1072
     20 N          -6.7041   -1.1721   -2.7493 N.1     1  LIG1       -0.1908
     21 C          -5.7599   -1.1726   -2.0967 C.1     1  LIG1        0.1025
     22 C          -4.5983   -3.5810   -0.3433 C.ar    1  LIG1        0.0793
     23 C          -5.8708   -4.0207   -0.0469 C.ar    1  LIG1        0.0496
     24 C          -5.7749   -5.4342    0.1201 C.ar    1  LIG1        0.0922
     25 C          -4.4548   -5.8016   -0.0582 C.ar    1  LIG1        0.0831
     26 N          -3.7603   -4.6713   -0.3495 N.ar    1  LIG1       -0.3499
     27 H          -2.7604   -4.6373   -0.4985 H       1  LIG1        0.1661
     28 S          -7.3231   -3.0278    0.0796 S.3     1  LIG1       -0.1393
     29 H          -7.7516   -3.6127    1.2053 H       1  LIG1        0.1072
     30 N          -7.7195   -7.0349    0.6792 N.1     1  LIG1       -0.1908
     31 C          -6.8499   -6.3306    0.4233 C.1     1  LIG1        0.1025
     32 C          -3.8249   -7.1203    0.0122 C.ar    1  LIG1        0.0788
     33 C          -3.8355   -8.0574    1.0194 C.ar    1  LIG1        0.0489
     34 C          -3.0475   -9.1546    0.5534 C.ar    1  LIG1        0.0828
     35 C          -2.5864   -8.8410   -0.7060 C.ar    1  LIG1        0.0208
     36 N          -3.0651   -7.6149   -1.0210 N.ar    1  LIG1       -0.3574
     37 H          -2.9701   -7.1692   -1.9213 H       1  LIG1        0.1654
     38 H          -1.9714   -9.4115   -1.3795 H       1  LIG1        0.0820
     39 S          -4.6941   -7.9286    2.5564 S.3     1  LIG1       -0.1393
     40 H          -3.6062   -8.1250    3.3120 H       1  LIG1        0.1072
     41 N          -2.5276  -11.3143    1.8684 N.1     1  LIG1       -0.1908
     42 C          -2.7610  -10.3590    1.2770 C.1     1  LIG1        0.1018
@<TRIPOS>BOND
     1    19    18    1
     2    20    21    3
     3    21    14    1
     4    37    36    1
     5    18    13    1
     6    38    35    1
     7    14    13   ar
     8    14    15   ar
     9    13    12   ar
    10    36    35   ar
    11    36    32   ar
    12    35    34   ar
    13    15    22    1
    14    15    16   ar
    15     6     5    1
    16    27    26    1
    17    12    16   ar
    18    12     4    1
    19    26    22   ar
    20    26    25   ar
    21    22    23   ar
    22     5     4   ar
    23     5     1   ar
    24    25    32    1
    25    25    24   ar
    26    16    17    1
    27    23    28    1
    28    23    24   ar
    29     4     3   ar
    30    32    33   ar
    31    28    29    1
    32    24    31    1
    33     7     1    1
    34     1     2   ar
    35    31    30    3
    36     3     2   ar
    37     3    11    1
    38    34    33   ar
    39    34    42    1
    40     2     8    1
    41    11    10    3
    42    33    39    1
    43     8     9    1
    44    42    41    3
    45    39    40    1
