@<TRIPOS>MOLECULE
mol_data/opt/m06hf/geoms/mol2/13gd13gd.out
 22 23 0 0 0
SMALL
GASTEIGER

@<TRIPOS>ATOM
      1 C           1.0558   -0.2633    0.7359 C.ar    1  LIG1        0.0167
      2 C           0.7929    0.9510    0.1559 C.ar    1  LIG1        0.0401
      3 C          -0.5738    0.9147   -0.2559 C.ar    1  LIG1        0.0915
      4 C          -1.0923   -0.3175    0.0938 C.ar    1  LIG1        0.0827
      5 N          -0.0883   -1.0147    0.6867 N.ar    1  LIG1       -0.3574
      6 H          -0.2085   -1.9180    1.1188 H       1  LIG1        0.1654
      7 H           1.9616   -0.6397    1.1780 H       1  LIG1        0.0818
      8 S           1.9452    2.2743   -0.0441 S.3     1  LIG1       -0.1399
      9 H           1.0760    3.0961   -0.6430 H       1  LIG1        0.1072
     10 N          -1.8084    2.8184   -1.4828 N.1     1  LIG1       -0.1908
     11 C          -1.2796    1.9562   -0.9384 C.1     1  LIG1        0.1024
     12 C          -2.4314   -0.8745   -0.0971 C.ar    1  LIG1        0.0788
     13 C          -3.6667   -0.3836    0.2584 C.ar    1  LIG1        0.0489
     14 C          -4.6236   -1.3586   -0.1644 C.ar    1  LIG1        0.0828
     15 C          -3.9375   -2.3993   -0.7500 C.ar    1  LIG1        0.0208
     16 N          -2.6201   -2.0925   -0.7073 N.ar    1  LIG1       -0.3574
     17 H          -1.8836   -2.6254   -1.1449 H       1  LIG1        0.1654
     18 H          -4.3065   -3.3094   -1.1899 H       1  LIG1        0.0820
     19 S          -3.9789    1.1776    1.0189 S.3     1  LIG1       -0.1393
     20 H          -4.6921    0.6831    2.0395 H       1  LIG1        0.1072
     21 N          -7.1796   -1.2342    0.1796 N.1     1  LIG1       -0.1908
     22 C          -6.0445   -1.2891    0.0174 C.1     1  LIG1        0.1018
@<TRIPOS>BOND
     1    10    11    3
     2    18    15    1
     3    17    16    1
     4    11     3    1
     5    15    16   ar
     6    15    14   ar
     7    16    12   ar
     8     9     8    1
     9     3     4   ar
    10     3     2   ar
    11    14    22    1
    12    14    13   ar
    13    12     4    1
    14    12    13   ar
    15     8     2    1
    16    22    21    3
    17     4     5   ar
    18     2     1   ar
    19    13    19    1
    20     5     1   ar
    21     5     6    1
    22     1     7    1
    23    19    20    1
