@<TRIPOS>MOLECULE
mol_data/opt/m06hf/geoms/mol2/13gd13gd-13gd-13gd-.out
 42 45 0 0 0
SMALL
GASTEIGER

@<TRIPOS>ATOM
      1 C           0.1268    1.4391    0.3885 C.ar    1  LIG1        0.0167
      2 C           0.7178    0.2117    0.2290 C.ar    1  LIG1        0.0401
      3 C          -0.3458   -0.7396    0.1751 C.ar    1  LIG1        0.0915
      4 C          -1.5432   -0.0449    0.3007 C.ar    1  LIG1        0.0827
      5 N          -1.2267    1.2654    0.4285 N.ar    1  LIG1       -0.3574
      6 H          -1.9285    1.9915    0.5095 H       1  LIG1        0.1654
      7 H           0.5818    2.4104    0.4751 H       1  LIG1        0.0818
      8 S           2.4524   -0.1225    0.1885 S.3     1  LIG1       -0.1399
      9 H           2.5624   -0.1976   -1.1440 H       1  LIG1        0.1072
     10 N          -0.3289   -3.3036   -0.1100 N.1     1  LIG1       -0.1908
     11 C          -0.2627   -2.1601    0.0091 C.1     1  LIG1        0.1024
     12 C          -2.9084   -0.5615    0.2996 C.ar    1  LIG1        0.0793
     13 C          -4.1493    0.0332    0.1867 C.ar    1  LIG1        0.0496
     14 C          -5.1146   -1.0215    0.1734 C.ar    1  LIG1        0.0922
     15 C          -4.4274   -2.2159    0.2968 C.ar    1  LIG1        0.0831
     16 N          -3.1091   -1.9077    0.3750 N.ar    1  LIG1       -0.3499
     17 H          -2.3847   -2.5891    0.5621 H       1  LIG1        0.1661
     18 S          -4.4647    1.7602   -0.0228 S.3     1  LIG1       -0.1393
     19 H          -5.0565    1.9533    1.1629 H       1  LIG1        0.1072
     20 N          -7.6614   -0.7443   -0.1292 N.1     1  LIG1       -0.1908
     21 C          -6.5289   -0.8741    0.0053 C.1     1  LIG1        0.1025
     22 C          -4.7782   -3.6303    0.3047 C.ar    1  LIG1        0.0793
     23 C          -5.7657   -4.3650    0.9170 C.ar    1  LIG1        0.0496
     24 C          -5.4316   -5.7410    0.7048 C.ar    1  LIG1        0.0922
     25 C          -4.2561   -5.7937   -0.0222 C.ar    1  LIG1        0.0831
     26 N          -3.8812   -4.5109   -0.2619 N.ar    1  LIG1       -0.3499
     27 H          -3.1644   -4.2498   -0.9270 H       1  LIG1        0.1661
     28 S          -7.1364   -3.7211    1.8165 S.3     1  LIG1       -0.1393
     29 H          -7.1242   -4.6952    2.7350 H       1  LIG1        0.1072
     30 N          -6.6952   -7.7298    1.7534 N.1     1  LIG1       -0.1908
     31 C          -6.1265   -6.8588    1.2674 C.1     1  LIG1        0.1025
     32 C          -3.4202   -6.9036   -0.4655 C.ar    1  LIG1        0.0788
     33 C          -3.7356   -8.1338   -0.9983 C.ar    1  LIG1        0.0489
     34 C          -2.4907   -8.7814   -1.2673 C.ar    1  LIG1        0.0828
     35 C          -1.4760   -7.9222   -0.9037 C.ar    1  LIG1        0.0208
     36 N          -2.0465   -6.7982   -0.4181 N.ar    1  LIG1       -0.3574
     37 H          -1.5373   -6.0186   -0.0222 H       1  LIG1        0.1654
     38 H          -0.4089   -8.0513   -0.9540 H       1  LIG1        0.0820
     39 S          -5.3542   -8.7737   -1.2845 S.3     1  LIG1       -0.1393
     40 H          -5.0710   -9.2301   -2.5107 H       1  LIG1        0.1072
     41 N          -2.2081  -11.1181   -2.3257 N.1     1  LIG1       -0.1908
     42 C          -2.3245  -10.0814   -1.8472 C.1     1  LIG1        0.1018
@<TRIPOS>BOND
     1    40    39    1
     2    41    42    3
     3    42    34    1
     4    39    33    1
     5    34    33   ar
     6    34    35   ar
     7     9     8    1
     8    33    32   ar
     9    38    35    1
    10    27    26    1
    11    35    36   ar
    12    32    36   ar
    13    32    25    1
    14    36    37    1
    15    26    25   ar
    16    26    22   ar
    17    20    21    3
    18    10    11    3
    19    18    13    1
    20    18    19    1
    21    25    24   ar
    22    21    14    1
    23    11     3    1
    24    14    13   ar
    25    14    15   ar
    26     3     2   ar
    27     3     4   ar
    28    13    12   ar
    29     8     2    1
    30     2     1   ar
    31    15    22    1
    32    15    16   ar
    33    12     4    1
    34    12    16   ar
    35     4     5   ar
    36    22    23   ar
    37    16    17    1
    38     1     5   ar
    39     1     7    1
    40     5     6    1
    41    24    23   ar
    42    24    31    1
    43    23    28    1
    44    31    30    3
    45    28    29    1
