@<TRIPOS>MOLECULE
mol_data/opt/m06hf/geoms/mol2/13ge13ge13ge.out
 35 37 0 0 0
SMALL
GASTEIGER

@<TRIPOS>ATOM
      1 C           1.1730   -0.0863    0.5559 C.ar    1  LIG1        0.0167
      2 C           0.8074    0.9942   -0.2038 C.ar    1  LIG1        0.0381
      3 C          -0.6075    0.9115   -0.4010 C.ar    1  LIG1        0.0645
      4 C          -1.0457   -0.2214    0.2597 C.ar    1  LIG1        0.0807
      5 N           0.0437   -0.8141    0.8238 N.ar    1  LIG1       -0.3575
      6 H          -0.0059   -1.5997    1.4526 H       1  LIG1        0.1654
      7 H           2.1391   -0.3842    0.9230 H       1  LIG1        0.0818
      8 S           1.8922    2.2406   -0.8255 S.3     1  LIG1       -0.1400
      9 H           0.9344    2.9022   -1.4835 H       1  LIG1        0.1072
     10 C          -1.4171    1.8025   -1.1718 C.1     1  LIG1       -0.0664
     11 C          -2.0835    2.5617   -1.8252 C.1     1  LIG1       -0.1138
     12 H          -2.6920    3.2255   -2.3951 H       1  LIG1        0.1232
     13 C          -2.3869   -0.7856    0.3767 C.ar    1  LIG1        0.0791
     14 C          -3.5900   -0.1971    0.6932 C.ar    1  LIG1        0.0476
     15 C          -4.5811   -1.2299    0.6650 C.ar    1  LIG1        0.0652
     16 C          -3.9412   -2.4083    0.3337 C.ar    1  LIG1        0.0811
     17 N          -2.6153   -2.1267    0.1691 N.ar    1  LIG1       -0.3500
     18 H          -1.9627   -2.7432   -0.2927 H       1  LIG1        0.1661
     19 S          -3.8492    1.5032    1.0830 S.3     1  LIG1       -0.1393
     20 H          -4.6850    1.2473    2.0973 H       1  LIG1        0.1072
     21 C          -5.9677   -1.0996    0.9881 C.1     1  LIG1       -0.0664
     22 C          -7.1330   -0.9920    1.2633 C.1     1  LIG1       -0.1138
     23 H          -8.1694   -0.9060    1.4943 H       1  LIG1        0.1232
     24 C          -4.4723   -3.7594    0.1808 C.ar    1  LIG1        0.0787
     25 C          -5.5668   -4.2290   -0.5083 C.ar    1  LIG1        0.0469
     26 C          -5.6033   -5.6485   -0.3152 C.ar    1  LIG1        0.0557
     27 C          -4.5262   -5.9808    0.4777 C.ar    1  LIG1        0.0188
     28 N          -3.8564   -4.8391    0.7718 N.ar    1  LIG1       -0.3575
     29 H          -3.0914   -4.7627    1.4231 H       1  LIG1        0.1654
     30 H          -4.2130   -6.9426    0.8435 H       1  LIG1        0.0820
     31 S          -6.6987   -3.2655   -1.4581 S.3     1  LIG1       -0.1394
     32 H          -6.8228   -4.1887   -2.4201 H       1  LIG1        0.1072
     33 C          -6.5611   -6.5536   -0.8744 C.1     1  LIG1       -0.0671
     34 C          -7.3709   -7.2971   -1.3602 C.1     1  LIG1       -0.1138
     35 H          -8.0908   -7.9569   -1.7851 H       1  LIG1        0.1232
@<TRIPOS>BOND
     1    32    31    1
     2    12    11    1
     3    11    10    3
     4    35    34    1
     5     9     8    1
     6    31    25    1
     7    34    33    3
     8    10     3    1
     9    33    26    1
    10     8     2    1
    11    25    26   ar
    12    25    24   ar
    13     3     2   ar
    14     3     4   ar
    15    26    27   ar
    16    18    17    1
    17     2     1   ar
    18    17    16   ar
    19    17    13   ar
    20    24    16    1
    21    24    28   ar
    22     4    13    1
    23     4     5   ar
    24    16    15   ar
    25    13    14   ar
    26    27    28   ar
    27    27    30    1
    28     1     5   ar
    29     1     7    1
    30    15    14   ar
    31    15    21    1
    32    14    19    1
    33    28    29    1
    34     5     6    1
    35    21    22    3
    36    19    20    1
    37    22    23    1
