@<TRIPOS>MOLECULE
mol_data/opt/m06hf/geoms/mol2/13ge13ge13ge-13ge-.out
 46 49 0 0 0
SMALL
GASTEIGER

@<TRIPOS>ATOM
      1 C           0.3795    0.3360    2.4850 C.ar    1  LIG1        0.0167
      2 C           0.6688    1.0011    1.3206 C.ar    1  LIG1        0.0381
      3 C          -0.3825    0.7082    0.3945 C.ar    1  LIG1        0.0645
      4 C          -1.2746   -0.1201    1.0455 C.ar    1  LIG1        0.0807
      5 N          -0.7881   -0.3464    2.3032 N.ar    1  LIG1       -0.3575
      6 H          -1.2939   -0.8390    3.0231 H       1  LIG1        0.1654
      7 H           0.9182    0.3122    3.4160 H       1  LIG1        0.0818
      8 S           2.1268    1.9541    1.0250 S.3     1  LIG1       -0.1400
      9 H           1.5052    3.1140    0.7830 H       1  LIG1        0.1072
     10 C          -0.5097    1.1644   -0.9553 C.1     1  LIG1       -0.0664
     11 C          -0.6282    1.5524   -2.0868 C.1     1  LIG1       -0.1138
     12 H          -0.7404    1.8967   -3.0888 H       1  LIG1        0.1232
     13 C          -2.5243   -0.7106    0.5690 C.ar    1  LIG1        0.0791
     14 C          -3.6378   -0.1232    0.0103 C.ar    1  LIG1        0.0476
     15 C          -4.5730   -1.1695   -0.2596 C.ar    1  LIG1        0.0652
     16 C          -3.9947   -2.3555    0.1549 C.ar    1  LIG1        0.0811
     17 N          -2.7566   -2.0613    0.6407 N.ar    1  LIG1       -0.3500
     18 H          -2.1053   -2.7361    1.0119 H       1  LIG1        0.1661
     19 S          -3.8325    1.5959   -0.3315 S.3     1  LIG1       -0.1393
     20 H          -5.0975    1.6530    0.1069 H       1  LIG1        0.1072
     21 C          -5.8717   -1.0370   -0.8430 C.1     1  LIG1       -0.0664
     22 C          -6.9675   -0.9204   -1.3228 C.1     1  LIG1       -0.1138
     23 H          -7.9399   -0.8257   -1.7471 H       1  LIG1        0.1232
     24 C          -4.5114   -3.7216    0.0952 C.ar    1  LIG1        0.0791
     25 C          -5.6890   -4.2570    0.5677 C.ar    1  LIG1        0.0476
     26 C          -5.6768   -5.6486    0.2414 C.ar    1  LIG1        0.0652
     27 C          -4.4849   -5.9089   -0.4099 C.ar    1  LIG1        0.0811
     28 N          -3.8001   -4.7346   -0.4982 N.ar    1  LIG1       -0.3500
     29 H          -2.8996   -4.6255   -0.9395 H       1  LIG1        0.1661
     30 S          -6.9734   -3.3658    1.3831 S.3     1  LIG1       -0.1393
     31 H          -7.1710   -4.2986    2.3244 H       1  LIG1        0.1072
     32 C          -6.6959   -6.6107    0.5238 C.1     1  LIG1       -0.0664
     33 C          -7.5490   -7.4213    0.7682 C.1     1  LIG1       -0.1138
     34 H          -8.3000   -8.1467    0.9781 H       1  LIG1        0.1232
     35 C          -3.9686   -7.1584   -0.9650 C.ar    1  LIG1        0.0787
     36 C          -3.8181   -8.3998   -0.3920 C.ar    1  LIG1        0.0469
     37 C          -3.2555   -9.2565   -1.3926 C.ar    1  LIG1        0.0557
     38 C          -3.0846   -8.4962   -2.5293 C.ar    1  LIG1        0.0188
     39 N          -3.5188   -7.2388   -2.2616 N.ar    1  LIG1       -0.3575
     40 H          -3.6232   -6.5019   -2.9419 H       1  LIG1        0.1654
     41 H          -2.6966   -8.7770   -3.4925 H       1  LIG1        0.0820
     42 S          -4.2686   -8.8368    1.2566 S.3     1  LIG1       -0.1394
     43 H          -3.1233   -9.4791    1.5204 H       1  LIG1        0.1072
     44 C          -2.9107  -10.6371   -1.2304 C.1     1  LIG1       -0.0671
     45 C          -2.6216  -11.7936   -1.0754 C.1     1  LIG1       -0.1138
     46 H          -2.3745  -12.8215   -0.9436 H       1  LIG1        0.1232
@<TRIPOS>BOND
     1    41    38    1
     2    12    11    1
     3    40    39    1
     4    38    39   ar
     5    38    37   ar
     6    39    35   ar
     7    11    10    3
     8    23    22    1
     9    37    44    1
    10    37    36   ar
    11    22    21    3
    12    44    45    3
    13    45    46    1
    14    35    27    1
    15    35    36   ar
    16    10     3    1
    17    29    28    1
    18    21    15    1
    19    28    27   ar
    20    28    24   ar
    21    27    26   ar
    22    36    42    1
    23    19    14    1
    24    19    20    1
    25    15    14   ar
    26    15    16   ar
    27    14    13   ar
    28    24    16    1
    29    24    25   ar
    30    16    17   ar
    31    26    32    1
    32    26    25   ar
    33     3     4   ar
    34     3     2   ar
    35    32    33    3
    36    25    30    1
    37    13    17   ar
    38    13     4    1
    39    17    18    1
    40    33    34    1
    41     9     8    1
    42     8     2    1
    43     4     5   ar
    44    42    43    1
    45     2     1   ar
    46    30    31    1
    47     5     1   ar
    48     5     6    1
    49     1     7    1
