@<TRIPOS>MOLECULE
mol_data/opt/m06hf/geoms/mol2/13ge13ge-.out
 24 25 0 0 0
SMALL
GASTEIGER

@<TRIPOS>ATOM
      1 C           1.0841   -0.3272   -0.7192 C.ar    1  LIG1        0.0167
      2 C           0.8025    0.9424   -0.2864 C.ar    1  LIG1        0.0381
      3 C          -0.5779    0.9623    0.0895 C.ar    1  LIG1        0.0645
      4 C          -1.0815   -0.3049   -0.1389 C.ar    1  LIG1        0.0806
      5 N          -0.0625   -1.0696   -0.6208 N.ar    1  LIG1       -0.3575
      6 H          -0.1785   -2.0103   -0.9630 H       1  LIG1        0.1654
      7 H           2.0025   -0.7490   -1.0886 H       1  LIG1        0.0818
      8 S           1.9438    2.2868   -0.1970 S.3     1  LIG1       -0.1400
      9 H           1.0580    3.1405    0.3306 H       1  LIG1        0.1072
     10 C          -1.3057    2.0674    0.6304 C.1     1  LIG1       -0.0664
     11 C          -1.9096    3.0048    1.0819 C.1     1  LIG1       -0.1138
     12 H          -2.4636    3.8242    1.4773 H       1  LIG1        0.1232
     13 C          -2.4213   -0.8431    0.0846 C.ar    1  LIG1        0.0787
     14 C          -3.6578   -0.3845   -0.3066 C.ar    1  LIG1        0.0469
     15 C          -4.6254   -1.3212    0.1839 C.ar    1  LIG1        0.0557
     16 C          -3.9339   -2.3118    0.8471 C.ar    1  LIG1        0.0188
     17 N          -2.6130   -2.0120    0.7846 N.ar    1  LIG1       -0.3575
     18 H          -1.8783   -2.5019    1.2708 H       1  LIG1        0.1654
     19 H          -4.3027   -3.1871    1.3525 H       1  LIG1        0.0820
     20 S          -3.9823    1.0855   -1.2262 S.3     1  LIG1       -0.1394
     21 H          -4.9215    0.5145   -1.9899 H       1  LIG1        0.1072
     22 C          -6.0422   -1.2537   -0.0146 C.1     1  LIG1       -0.0671
     23 C          -7.2274   -1.1780   -0.2025 C.1     1  LIG1       -0.1138
     24 H          -8.2784   -1.1087   -0.3623 H       1  LIG1        0.1232
@<TRIPOS>BOND
     1    21    20    1
     2    20    14    1
     3     7     1    1
     4     6     5    1
     5     1     5   ar
     6     1     2   ar
     7     5     4   ar
     8    24    23    1
     9    14    13   ar
    10    14    15   ar
    11     2     8    1
    12     2     3   ar
    13    23    22    3
    14     8     9    1
    15     4    13    1
    16     4     3   ar
    17    22    15    1
    18    13    17   ar
    19     3    10    1
    20    15    16   ar
    21    10    11    3
    22    17    16   ar
    23    17    18    1
    24    16    19    1
    25    11    12    1
