@<TRIPOS>MOLECULE
mol_data/opt/m06hf/geoms/mol2/13ge13ge13ge-.out
 35 37 0 0 0
SMALL
GASTEIGER

@<TRIPOS>ATOM
      1 C           0.9265   -0.1241    1.4654 C.ar    1  LIG1        0.0167
      2 C           0.8305    0.9142    0.5753 C.ar    1  LIG1        0.0381
      3 C          -0.4739    0.8491   -0.0081 C.ar    1  LIG1        0.0645
      4 C          -1.1218   -0.2314    0.5611 C.ar    1  LIG1        0.0807
      5 N          -0.2570   -0.8125    1.4390 N.ar    1  LIG1       -0.3575
      6 H          -0.5124   -1.5550    2.0715 H       1  LIG1        0.1654
      7 H           1.7364   -0.4143    2.1116 H       1  LIG1        0.0818
      8 S           2.0985    2.0869    0.2053 S.3     1  LIG1       -0.1400
      9 H           1.3115    2.8590   -0.5541 H       1  LIG1        0.1072
     10 C          -1.0126    1.7202   -1.0055 C.1     1  LIG1       -0.0664
     11 C          -1.4540    2.4653   -1.8402 C.1     1  LIG1       -0.1138
     12 H          -1.8609    3.1187   -2.5768 H       1  LIG1        0.1232
     13 C          -2.4667   -0.7533    0.3268 C.ar    1  LIG1        0.0791
     14 C          -3.6959   -0.1350    0.3793 C.ar    1  LIG1        0.0476
     15 C          -4.6784   -1.1296    0.0814 C.ar    1  LIG1        0.0652
     16 C          -4.0087   -2.3212   -0.1307 C.ar    1  LIG1        0.0811
     17 N          -2.6770   -2.0730    0.0098 N.ar    1  LIG1       -0.3500
     18 H          -1.9462   -2.7605   -0.0955 H       1  LIG1        0.1661
     19 S          -3.9841    1.5703    0.7234 S.3     1  LIG1       -0.1393
     20 H          -5.0619    1.3408    1.4850 H       1  LIG1        0.1072
     21 C          -6.0949   -0.9501    0.0120 C.1     1  LIG1       -0.0664
     22 C          -7.2868   -0.8017   -0.0371 C.1     1  LIG1       -0.1138
     23 H          -8.3441   -0.6814   -0.0857 H       1  LIG1        0.1232
     24 C          -4.5260   -3.6444   -0.4705 C.ar    1  LIG1        0.0787
     25 C          -5.5143   -4.4017    0.1141 C.ar    1  LIG1        0.0469
     26 C          -5.5917   -5.6279   -0.6229 C.ar    1  LIG1        0.0557
     27 C          -4.6440   -5.5637   -1.6216 C.ar    1  LIG1        0.0188
     28 N          -4.0124   -4.3677   -1.5226 N.ar    1  LIG1       -0.3575
     29 H          -3.3563   -3.9979   -2.1929 H       1  LIG1        0.1654
     30 H          -4.3975   -6.2834   -2.3825 H       1  LIG1        0.0820
     31 S          -6.5008   -3.9342    1.4991 S.3     1  LIG1       -0.1394
     32 H          -6.5237   -5.1643    2.0281 H       1  LIG1        0.1072
     33 C          -6.4651   -6.7276   -0.3444 C.1     1  LIG1       -0.0671
     34 C          -7.1994   -7.6435   -0.0860 C.1     1  LIG1       -0.1138
     35 H          -7.8515   -8.4558    0.1364 H       1  LIG1        0.1232
@<TRIPOS>BOND
     1    12    11    1
     2    30    27    1
     3    29    28    1
     4    11    10    3
     5    27    28   ar
     6    27    26   ar
     7    28    24   ar
     8    10     3    1
     9    26    33    1
    10    26    25   ar
    11     9     8    1
    12    24    16    1
    13    24    25   ar
    14    33    34    3
    15    16    17   ar
    16    16    15   ar
    17    18    17    1
    18    34    35    1
    19    23    22    1
    20    22    21    3
    21     3     4   ar
    22     3     2   ar
    23    17    13   ar
    24    21    15    1
    25    15    14   ar
    26    25    31    1
    27     8     2    1
    28    13    14   ar
    29    13     4    1
    30    14    19    1
    31     4     5   ar
    32     2     1   ar
    33    19    20    1
    34     5     1   ar
    35     5     6    1
    36     1     7    1
    37    31    32    1
