@<TRIPOS>MOLECULE
mol_data/opt/m06hf/geoms/mol2/13ge13ge-13ge-13ge.out
 46 49 0 0 0
SMALL
GASTEIGER

@<TRIPOS>ATOM
      1 C           0.3468    0.3710    2.5095 C.ar    1  LIG1        0.0167
      2 C           0.6464    1.0237    1.3407 C.ar    1  LIG1        0.0381
      3 C          -0.3950    0.7184    0.4075 C.ar    1  LIG1        0.0645
      4 C          -1.2919   -0.1046    1.0587 C.ar    1  LIG1        0.0807
      5 N          -0.8175   -0.3158    2.3236 N.ar    1  LIG1       -0.3575
      6 H          -1.3294   -0.8019    3.0438 H       1  LIG1        0.1654
      7 H           0.8763    0.3587    3.4460 H       1  LIG1        0.0818
      8 S           2.1052    1.9769    1.0491 S.3     1  LIG1       -0.1400
      9 H           1.4832    3.1324    0.7880 H       1  LIG1        0.1072
     10 C          -0.5095    1.1593   -0.9485 C.1     1  LIG1       -0.0664
     11 C          -0.6173    1.5341   -2.0855 C.1     1  LIG1       -0.1138
     12 H          -0.7201    1.8667   -3.0924 H       1  LIG1        0.1232
     13 C          -2.5357   -0.7028    0.5764 C.ar    1  LIG1        0.0791
     14 C          -3.6447   -0.1238    0.0003 C.ar    1  LIG1        0.0476
     15 C          -4.5752   -1.1748   -0.2672 C.ar    1  LIG1        0.0652
     16 C          -3.9987   -2.3551    0.1660 C.ar    1  LIG1        0.0811
     17 N          -2.7661   -2.0531    0.6607 N.ar    1  LIG1       -0.3500
     18 H          -2.1173   -2.7225    1.0460 H       1  LIG1        0.1661
     19 S          -3.8392    1.5910   -0.3623 S.3     1  LIG1       -0.1393
     20 H          -5.1086    1.6504    0.0626 H       1  LIG1        0.1072
     21 C          -5.8683   -1.0514   -0.8648 C.1     1  LIG1       -0.0664
     22 C          -6.9596   -0.9423   -1.3567 C.1     1  LIG1       -0.1138
     23 H          -7.9278   -0.8541   -1.7917 H       1  LIG1        0.1232
     24 C          -4.5123   -3.7228    0.1163 C.ar    1  LIG1        0.0791
     25 C          -5.6937   -4.2551    0.5828 C.ar    1  LIG1        0.0476
     26 C          -5.6758   -5.6502    0.2720 C.ar    1  LIG1        0.0652
     27 C          -4.4768   -5.9155   -0.3643 C.ar    1  LIG1        0.0811
     28 N          -3.7932   -4.7409   -0.4585 N.ar    1  LIG1       -0.3500
     29 H          -2.8885   -4.6351   -0.8920 H       1  LIG1        0.1661
     30 S          -6.9879   -3.3575    1.3753 S.3     1  LIG1       -0.1393
     31 H          -7.1931   -4.2800    2.3250 H       1  LIG1        0.1072
     32 C          -6.6959   -6.6110    0.5546 C.1     1  LIG1       -0.0664
     33 C          -7.5501   -7.4204    0.7994 C.1     1  LIG1       -0.1138
     34 H          -8.3020   -8.1448    1.0097 H       1  LIG1        0.1232
     35 C          -3.9525   -7.1701   -0.8999 C.ar    1  LIG1        0.0787
     36 C          -3.8058   -8.4048   -0.3115 C.ar    1  LIG1        0.0469
     37 C          -3.2310   -9.2715   -1.2964 C.ar    1  LIG1        0.0557
     38 C          -3.0495   -8.5235   -2.4398 C.ar    1  LIG1        0.0188
     39 N          -3.4889   -7.2642   -2.1908 N.ar    1  LIG1       -0.3575
     40 H          -3.5875   -6.5351   -2.8804 H       1  LIG1        0.1654
     41 H          -2.6509   -8.8144   -3.3956 H       1  LIG1        0.0820
     42 S          -4.2727   -8.8243    1.3371 S.3     1  LIG1       -0.1394
     43 H          -3.1293   -9.4620    1.6194 H       1  LIG1        0.1072
     44 C          -2.8854  -10.6495   -1.1150 C.1     1  LIG1       -0.0671
     45 C          -2.5959  -11.8036   -0.9439 C.1     1  LIG1       -0.1138
     46 H          -2.3482  -12.8294   -0.7977 H       1  LIG1        0.1232
@<TRIPOS>BOND
     1    41    38    1
     2    12    11    1
     3    40    39    1
     4    38    39   ar
     5    38    37   ar
     6    39    35   ar
     7    11    10    3
     8    23    22    1
     9    22    21    3
    10    37    44    1
    11    37    36   ar
    12    44    45    3
    13    10     3    1
    14    45    46    1
    15    35    27    1
    16    35    36   ar
    17    29    28    1
    18    21    15    1
    19    28    27   ar
    20    28    24   ar
    21    27    26   ar
    22    19    14    1
    23    19    20    1
    24    36    42    1
    25    15    14   ar
    26    15    16   ar
    27    14    13   ar
    28    24    16    1
    29    24    25   ar
    30    16    17   ar
    31    26    32    1
    32    26    25   ar
    33     3     4   ar
    34     3     2   ar
    35    32    33    3
    36    13    17   ar
    37    13     4    1
    38    25    30    1
    39    17    18    1
    40     9     8    1
    41    33    34    1
    42     8     2    1
    43     4     5   ar
    44    42    43    1
    45     2     1   ar
    46    30    31    1
    47     5     1   ar
    48     5     6    1
    49     1     7    1
