@<TRIPOS>MOLECULE
mol_data/opt/m06hf/geoms/mol2/13ge13ge13ge13ge-.out
 46 49 0 0 0
SMALL
GASTEIGER

@<TRIPOS>ATOM
      1 C           1.2061    0.1213    0.2487 C.ar    1  LIG1        0.0167
      2 C           0.7198    1.2500   -0.3596 C.ar    1  LIG1        0.0381
      3 C          -0.7014    1.1043   -0.4472 C.ar    1  LIG1        0.0645
      4 C          -1.0184   -0.1133    0.1223 C.ar    1  LIG1        0.0807
      5 N           0.1494   -0.7003    0.5201 N.ar    1  LIG1       -0.3575
      6 H           0.1962   -1.5569    1.0485 H       1  LIG1        0.1654
      7 H           2.2172   -0.1401    0.5077 H       1  LIG1        0.0818
      8 S           1.7075    2.5677   -0.9948 S.3     1  LIG1       -0.1400
      9 H           0.9948    3.5583   -0.4500 H       1  LIG1        0.1072
     10 C          -1.6376    2.0254   -1.0128 C.1     1  LIG1       -0.0664
     11 C          -2.4276    2.8023   -1.4789 C.1     1  LIG1       -0.1138
     12 H          -3.1357    3.4826   -1.8918 H       1  LIG1        0.1232
     13 C          -2.3179   -0.7541    0.3081 C.ar    1  LIG1        0.0791
     14 C          -3.4741   -0.2843    0.8864 C.ar    1  LIG1        0.0476
     15 C          -4.4412   -1.3371    0.8064 C.ar    1  LIG1        0.0652
     16 C          -3.8348   -2.4071    0.1761 C.ar    1  LIG1        0.0811
     17 N          -2.5500   -2.0438   -0.1111 N.ar    1  LIG1       -0.3500
     18 H          -1.9547   -2.5399   -0.7575 H       1  LIG1        0.1661
     19 S          -3.7032    1.3122    1.5988 S.3     1  LIG1       -0.1393
     20 H          -4.3824    0.8544    2.6568 H       1  LIG1        0.1072
     21 C          -5.7642   -1.3278    1.3483 C.1     1  LIG1       -0.0664
     22 C          -6.8735   -1.3216    1.8128 C.1     1  LIG1       -0.1138
     23 H          -7.8622   -1.3271    2.2102 H       1  LIG1        0.1232
     24 C          -4.3579   -3.7263   -0.1599 C.ar    1  LIG1        0.0791
     25 C          -5.5544   -4.1096   -0.7228 C.ar    1  LIG1        0.0476
     26 C          -5.5222   -5.5369   -0.8381 C.ar    1  LIG1        0.0652
     27 C          -4.3068   -5.9667   -0.3420 C.ar    1  LIG1        0.0811
     28 N          -3.6103   -4.8630    0.0567 N.ar    1  LIG1       -0.3500
     29 H          -2.8006   -4.8976    0.6580 H       1  LIG1        0.1661
     30 S          -6.8611   -3.0502   -1.2491 S.3     1  LIG1       -0.1393
     31 H          -7.1941   -3.8321   -2.2847 H       1  LIG1        0.1072
     32 C          -6.5252   -6.3705   -1.4234 C.1     1  LIG1       -0.0664
     33 C          -7.3696   -7.0684   -1.9189 C.1     1  LIG1       -0.1138
     34 H          -8.1137   -7.7023   -2.3421 H       1  LIG1        0.1232
     35 C          -3.7549   -7.3139   -0.2362 C.ar    1  LIG1        0.0787
     36 C          -4.2964   -8.4774    0.2612 C.ar    1  LIG1        0.0469
     37 C          -3.2978   -9.4953    0.1198 C.ar    1  LIG1        0.0557
     38 C          -2.1915   -8.9055   -0.4533 C.ar    1  LIG1        0.0188
     39 N          -2.4773   -7.5975   -0.6641 N.ar    1  LIG1       -0.3575
     40 H          -1.8970   -6.9471   -1.1694 H       1  LIG1        0.1654
     41 H          -1.2445   -9.3396   -0.7224 H       1  LIG1        0.0820
     42 S          -5.9128   -8.6665    0.9365 S.3     1  LIG1       -0.1394
     43 H          -5.5396   -9.5911    1.8304 H       1  LIG1        0.1072
     44 C          -3.4203  -10.8600    0.5344 C.1     1  LIG1       -0.0671
     45 C          -3.5447  -11.9980    0.9011 C.1     1  LIG1       -0.1138
     46 H          -3.6526  -13.0086    1.2198 H       1  LIG1        0.1232
@<TRIPOS>BOND
     1    34    33    1
     2    31    30    1
     3    33    32    3
     4    12    11    1
     5    11    10    3
     6    32    26    1
     7    30    25    1
     8    40    39    1
     9    10     3    1
    10     8     9    1
    11     8     2    1
    12    26    25   ar
    13    26    27   ar
    14    18    17    1
    15    25    24   ar
    16    41    38    1
    17    39    38   ar
    18    39    35   ar
    19    38    37   ar
    20     3     2   ar
    21     3     4   ar
    22     2     1   ar
    23    27    35    1
    24    27    28   ar
    25    35    36   ar
    26    24    28   ar
    27    24    16    1
    28    17    16   ar
    29    17    13   ar
    30    28    29    1
    31    37    36   ar
    32    37    44    1
    33     4    13    1
    34     4     5   ar
    35    16    15   ar
    36     1     7    1
    37     1     5   ar
    38    36    42    1
    39    13    14   ar
    40     5     6    1
    41    44    45    3
    42    15    14   ar
    43    15    21    1
    44    14    19    1
    45    45    46    1
    46    42    43    1
    47    21    22    3
    48    19    20    1
    49    22    23    1
