@<TRIPOS>MOLECULE
mol_data/opt/m06hf/geoms/mol2/13ge13ge-13ge-13ge-.out
 46 49 0 0 0
SMALL
GASTEIGER

@<TRIPOS>ATOM
      1 C           0.2921    0.8110    2.1387 C.ar    1  LIG1        0.0167
      2 C           0.5662    1.2814    0.8793 C.ar    1  LIG1        0.0381
      3 C          -0.4749    0.8115    0.0169 C.ar    1  LIG1        0.0645
      4 C          -1.3450    0.0774    0.7981 C.ar    1  LIG1        0.0807
      5 N          -0.8553    0.0762    2.0749 N.ar    1  LIG1       -0.3575
      6 H          -1.3448   -0.3136    2.8655 H       1  LIG1        0.1654
      7 H           0.8301    0.9573    3.0592 H       1  LIG1        0.0818
      8 S           2.0017    2.2090    0.4337 S.3     1  LIG1       -0.1400
      9 H           1.3536    3.2937   -0.0062 H       1  LIG1        0.1072
     10 C          -0.6165    1.0411   -1.3881 C.1     1  LIG1       -0.0664
     11 C          -0.7466    1.2391   -2.5663 C.1     1  LIG1       -0.1138
     12 H          -0.8693    1.4144   -3.6101 H       1  LIG1        0.1232
     13 C          -2.5758   -0.6232    0.4332 C.ar    1  LIG1        0.0791
     14 C          -3.7311   -0.1610   -0.1564 C.ar    1  LIG1        0.0476
     15 C          -4.6208   -1.2743   -0.2679 C.ar    1  LIG1        0.0652
     16 C          -3.9736   -2.3731    0.2682 C.ar    1  LIG1        0.0811
     17 N          -2.7392   -1.9641    0.6755 N.ar    1  LIG1       -0.3500
     18 H          -2.0431   -2.5600    1.0968 H       1  LIG1        0.1661
     19 S          -4.0074    1.4870   -0.7199 S.3     1  LIG1       -0.1393
     20 H          -5.2371    1.5819   -0.1972 H       1  LIG1        0.1072
     21 C          -5.9368   -1.2771   -0.8259 C.1     1  LIG1       -0.0664
     22 C          -7.0481   -1.2791   -1.2835 C.1     1  LIG1       -0.1138
     23 H          -8.0335   -1.2924   -1.6874 H       1  LIG1        0.1232
     24 C          -4.4152   -3.7605    0.3825 C.ar    1  LIG1        0.0791
     25 C          -5.5770   -4.2950    0.8889 C.ar    1  LIG1        0.0476
     26 C          -5.4817   -5.7160    0.7438 C.ar    1  LIG1        0.0652
     27 C          -4.2640   -5.9901    0.1509 C.ar    1  LIG1        0.0811
     28 N          -3.6271   -4.8007   -0.0553 N.ar    1  LIG1       -0.3500
     29 H          -2.8338   -4.6867   -0.6695 H       1  LIG1        0.1661
     30 S          -6.9164   -3.3945    1.5990 S.3     1  LIG1       -0.1393
     31 H          -7.1408   -4.2991    2.5613 H       1  LIG1        0.1072
     32 C          -6.4295   -6.6878    1.1925 C.1     1  LIG1       -0.0664
     33 C          -7.2282   -7.4994    1.5786 C.1     1  LIG1       -0.1138
     34 H          -7.9341   -8.2282    1.9036 H       1  LIG1        0.1232
     35 C          -3.6626   -7.2675   -0.2192 C.ar    1  LIG1        0.0787
     36 C          -4.1782   -8.3459   -0.9019 C.ar    1  LIG1        0.0469
     37 C          -3.1322   -9.3207   -0.9922 C.ar    1  LIG1        0.0557
     38 C          -2.0243   -8.7907   -0.3669 C.ar    1  LIG1        0.0188
     39 N          -2.3552   -7.5596    0.0956 N.ar    1  LIG1       -0.3575
     40 H          -1.7736   -6.9804    0.6803 H       1  LIG1        0.1654
     41 H          -1.0461   -9.2161   -0.2240 H       1  LIG1        0.0820
     42 S          -5.8145   -8.4919   -1.5450 S.3     1  LIG1       -0.1394
     43 H          -5.4231   -9.0935   -2.6744 H       1  LIG1        0.1072
     44 C          -3.2168  -10.5935   -1.6432 C.1     1  LIG1       -0.0671
     45 C          -3.3098  -11.6538   -2.2019 C.1     1  LIG1       -0.1138
     46 H          -3.3928  -12.5966   -2.6909 H       1  LIG1        0.1232
@<TRIPOS>BOND
     1    12    11    1
     2    46    45    1
     3    43    42    1
     4    11    10    3
     5    45    44    3
     6    23    22    1
     7    44    37    1
     8    42    36    1
     9    10     3    1
    10    22    21    3
    11    37    36   ar
    12    37    38   ar
    13    36    35   ar
    14    21    15    1
    15    19    20    1
    16    19    14    1
    17    29    28    1
    18    38    41    1
    19    38    39   ar
    20    15    14   ar
    21    15    16   ar
    22    35    39   ar
    23    35    27    1
    24    14    13   ar
    25    28    27   ar
    26    28    24   ar
    27     9     8    1
    28     3     4   ar
    29     3     2   ar
    30    39    40    1
    31    27    26   ar
    32    16    24    1
    33    16    17   ar
    34    24    25   ar
    35    13    17   ar
    36    13     4    1
    37     8     2    1
    38    17    18    1
    39    26    25   ar
    40    26    32    1
    41     4     5   ar
    42     2     1   ar
    43    25    30    1
    44    32    33    3
    45    33    34    1
    46    30    31    1
    47     5     1   ar
    48     5     6    1
    49     1     7    1
