@<TRIPOS>MOLECULE
mol_data/opt/m06hf/geoms/mol2/13ge13ge-13ge-.out
 35 37 0 0 0
SMALL
GASTEIGER

@<TRIPOS>ATOM
      1 C           1.1730   -0.0872   -0.5673 C.ar    1  LIG1        0.0167
      2 C           0.8126    0.9858    0.2054 C.ar    1  LIG1        0.0381
      3 C          -0.6015    0.9031    0.4084 C.ar    1  LIG1        0.0645
      4 C          -1.0445   -0.2221   -0.2622 C.ar    1  LIG1        0.0807
      5 N           0.0413   -0.8105   -0.8376 N.ar    1  LIG1       -0.3575
      6 H          -0.0124   -1.5893   -1.4743 H       1  LIG1        0.1654
      7 H           2.1369   -0.3826   -0.9420 H       1  LIG1        0.0818
      8 S           1.9022    2.2240    0.8350 S.3     1  LIG1       -0.1400
      9 H           0.9485    2.8801    1.5044 H       1  LIG1        0.1072
     10 C          -1.4061    1.7872    1.1923 C.1     1  LIG1       -0.0664
     11 C          -2.0683    2.5404    1.8567 C.1     1  LIG1       -0.1138
     12 H          -2.6731    3.1992    2.4363 H       1  LIG1        0.1232
     13 C          -2.3871   -0.7830   -0.3788 C.ar    1  LIG1        0.0791
     14 C          -3.5908   -0.1895   -0.6834 C.ar    1  LIG1        0.0476
     15 C          -4.5834   -1.2211   -0.6615 C.ar    1  LIG1        0.0652
     16 C          -3.9437   -2.4038   -0.3455 C.ar    1  LIG1        0.0811
     17 N          -2.6165   -2.1260   -0.1843 N.ar    1  LIG1       -0.3500
     18 H          -1.9628   -2.7482    0.2679 H       1  LIG1        0.1661
     19 S          -3.8492    1.5153   -1.0542 S.3     1  LIG1       -0.1393
     20 H          -4.6902    1.2712   -2.0672 H       1  LIG1        0.1072
     21 C          -5.9713   -1.0854   -0.9767 C.1     1  LIG1       -0.0664
     22 C          -7.1376   -0.9731   -1.2453 C.1     1  LIG1       -0.1138
     23 H          -8.1750   -0.8831   -1.4705 H       1  LIG1        0.1232
     24 C          -4.4761   -3.7556   -0.2045 C.ar    1  LIG1        0.0787
     25 C          -5.5681   -4.2309    0.4849 C.ar    1  LIG1        0.0469
     26 C          -5.6076   -5.6482    0.2770 C.ar    1  LIG1        0.0557
     27 C          -4.5347   -5.9738   -0.5244 C.ar    1  LIG1        0.0188
     28 N          -3.8646   -4.8300   -0.8096 N.ar    1  LIG1       -0.3575
     29 H          -3.1025   -4.7479   -1.4638 H       1  LIG1        0.1654
     30 H          -4.2248   -6.9321   -0.9018 H       1  LIG1        0.0820
     31 S          -6.6940   -3.2759    1.4501 S.3     1  LIG1       -0.1394
     32 H          -6.8149   -4.2089    2.4029 H       1  LIG1        0.1072
     33 C          -6.5641   -6.5578    0.8312 C.1     1  LIG1       -0.0671
     34 C          -7.3727   -7.3052    1.3129 C.1     1  LIG1       -0.1138
     35 H          -8.0916   -7.9684    1.7342 H       1  LIG1        0.1232
@<TRIPOS>BOND
     1    20    19    1
     2     6     5    1
     3    23    22    1
     4    29    28    1
     5    22    21    3
     6    19    14    1
     7    21    15    1
     8     7     1    1
     9    30    27    1
    10     5     1   ar
    11     5     4   ar
    12    28    27   ar
    13    28    24   ar
    14    14    15   ar
    15    14    13   ar
    16    15    16   ar
    17     1     2   ar
    18    27    26   ar
    19    13     4    1
    20    13    17   ar
    21    16    24    1
    22    16    17   ar
    23     4     3   ar
    24    24    25   ar
    25    17    18    1
    26     2     3   ar
    27     2     8    1
    28    26    25   ar
    29    26    33    1
    30     3    10    1
    31    25    31    1
    32    33    34    3
    33     8     9    1
    34    10    11    3
    35    34    35    1
    36    31    32    1
    37    11    12    1
