@<TRIPOS>MOLECULE
mol_data/opt/m06hf/geoms/mol2/13ge13ge-13ge13ge-.out
 46 49 0 0 0
SMALL
GASTEIGER

@<TRIPOS>ATOM
      1 C           1.1976    0.1272   -0.3245 C.ar    1  LIG1        0.0167
      2 C           0.7208    1.2514    0.2994 C.ar    1  LIG1        0.0381
      3 C          -0.6987    1.1039    0.4099 C.ar    1  LIG1        0.0645
      4 C          -1.0242   -0.1103   -0.1620 C.ar    1  LIG1        0.0807
      5 N           0.1371   -0.6937   -0.5832 N.ar    1  LIG1       -0.3575
      6 H           0.1756   -1.5467   -1.1181 H       1  LIG1        0.1654
      7 H           2.2044   -0.1315   -0.6022 H       1  LIG1        0.0818
      8 S           1.7181    2.5659    0.9264 S.3     1  LIG1       -0.1400
      9 H           0.9957    3.5593    0.3997 H       1  LIG1        0.1072
     10 C          -1.6259    2.0205    0.9971 C.1     1  LIG1       -0.0664
     11 C          -2.4087    2.7934    1.4817 C.1     1  LIG1       -0.1138
     12 H          -3.1103    3.4703    1.9109 H       1  LIG1        0.1232
     13 C          -2.3261   -0.7511   -0.3301 C.ar    1  LIG1        0.0791
     14 C          -3.4924   -0.2786   -0.8855 C.ar    1  LIG1        0.0476
     15 C          -4.4571   -1.3328   -0.7963 C.ar    1  LIG1        0.0652
     16 C          -3.8391   -2.4064   -0.1836 C.ar    1  LIG1        0.0811
     17 N          -2.5500   -2.0438    0.0844 N.ar    1  LIG1       -0.3500
     18 H          -1.9434   -2.5436    0.7173 H       1  LIG1        0.1661
     19 S          -3.7350    1.3224   -1.5832 S.3     1  LIG1       -0.1393
     20 H          -4.4315    0.8711   -2.6327 H       1  LIG1        0.1072
     21 C          -5.7891   -1.3212   -1.3156 C.1     1  LIG1       -0.0664
     22 C          -6.9061   -1.3129   -1.7611 C.1     1  LIG1       -0.1138
     23 H          -7.9014   -1.3165   -2.1417 H       1  LIG1        0.1232
     24 C          -4.3553   -3.7284    0.1523 C.ar    1  LIG1        0.0791
     25 C          -5.5417   -4.1167    0.7329 C.ar    1  LIG1        0.0476
     26 C          -5.5063   -5.5447    0.8379 C.ar    1  LIG1        0.0652
     27 C          -4.2991   -5.9700    0.3181 C.ar    1  LIG1        0.0811
     28 N          -3.6104   -4.8628   -0.0847 N.ar    1  LIG1       -0.3500
     29 H          -2.8110   -4.8925   -0.6998 H       1  LIG1        0.1661
     30 S          -6.8401   -3.0622    1.2886 S.3     1  LIG1       -0.1393
     31 H          -7.1547   -3.8514    2.3245 H       1  LIG1        0.1072
     32 C          -6.4984   -6.3833    1.4345 C.1     1  LIG1       -0.0664
     33 C          -7.3335   -7.0855    1.9396 C.1     1  LIG1       -0.1138
     34 H          -8.0698   -7.7230    2.3711 H       1  LIG1        0.1232
     35 C          -3.7480   -7.3158    0.1936 C.ar    1  LIG1        0.0787
     36 C          -4.2970   -8.4765   -0.3023 C.ar    1  LIG1        0.0469
     37 C          -3.2952   -9.4943   -0.1850 C.ar    1  LIG1        0.0557
     38 C          -2.1797   -8.9073    0.3729 C.ar    1  LIG1        0.0188
     39 N          -2.4629   -7.6010    0.5974 N.ar    1  LIG1       -0.3575
     40 H          -1.8747   -6.9536    1.0973 H       1  LIG1        0.1654
     41 H          -1.2278   -9.3423    0.6225 H       1  LIG1        0.0820
     42 S          -5.9245   -8.6626   -0.9511 S.3     1  LIG1       -0.1394
     43 H          -5.5658   -9.5809   -1.8573 H       1  LIG1        0.1072
     44 C          -3.4236  -10.8562   -0.6069 C.1     1  LIG1       -0.0671
     45 C          -3.5534  -11.9917   -0.9793 C.1     1  LIG1       -0.1138
     46 H          -3.6658  -13.0003   -1.3030 H       1  LIG1        0.1232
@<TRIPOS>BOND
     1    20    19    1
     2    23    22    1
     3    43    42    1
     4    22    21    3
     5    19    14    1
     6    21    15    1
     7    46    45    1
     8     6     5    1
     9    45    44    3
    10    42    36    1
    11    14    15   ar
    12    14    13   ar
    13    15    16   ar
    14    29    28    1
    15    44    37    1
    16     7     1    1
    17     5     1   ar
    18     5     4   ar
    19    13     4    1
    20    13    17   ar
    21     1     2   ar
    22    36    37   ar
    23    36    35   ar
    24    37    38   ar
    25    16    17   ar
    26    16    24    1
    27     4     3   ar
    28    28    24   ar
    29    28    27   ar
    30    17    18    1
    31    24    25   ar
    32    35    27    1
    33    35    39   ar
    34     2     3   ar
    35     2     8    1
    36    27    26   ar
    37    38    39   ar
    38    38    41    1
    39     9     8    1
    40     3    10    1
    41    39    40    1
    42    25    26   ar
    43    25    30    1
    44    26    32    1
    45    10    11    3
    46    30    31    1
    47    32    33    3
    48    11    12    1
    49    33    34    1
