@<TRIPOS>MOLECULE
mol_data/opt/m06hf/geoms/mol2/13ge13ge-13ge.out
 35 37 0 0 0
SMALL
GASTEIGER

@<TRIPOS>ATOM
      1 C           0.8951   -0.0872   -1.5205 C.ar    1  LIG1        0.0167
      2 C           0.8127    0.9353   -0.6110 C.ar    1  LIG1        0.0381
      3 C          -0.4808    0.8566   -0.0054 C.ar    1  LIG1        0.0645
      4 C          -1.1362   -0.2157   -0.5815 C.ar    1  LIG1        0.0807
      5 N          -0.2859   -0.7793   -1.4847 N.ar    1  LIG1       -0.3575
      6 H          -0.5510   -1.5114   -2.1253 H       1  LIG1        0.1654
      7 H           1.6940   -0.3641   -2.1860 H       1  LIG1        0.0818
      8 S           2.0842    2.1051   -0.2438 S.3     1  LIG1       -0.1400
      9 H           1.3092    2.8617    0.5430 H       1  LIG1        0.1072
     10 C          -1.0036    1.7088    1.0164 C.1     1  LIG1       -0.0664
     11 C          -1.4316    2.4381    1.8717 C.1     1  LIG1       -0.1138
     12 H          -1.8267    3.0775    2.6268 H       1  LIG1        0.1232
     13 C          -2.4753   -0.7453   -0.3322 C.ar    1  LIG1        0.0791
     14 C          -3.7069   -0.1296   -0.3519 C.ar    1  LIG1        0.0476
     15 C          -4.6814   -1.1320   -0.0539 C.ar    1  LIG1        0.0652
     16 C          -4.0050   -2.3252    0.1254 C.ar    1  LIG1        0.0811
     17 N          -2.6767   -2.0709   -0.0344 N.ar    1  LIG1       -0.3500
     18 H          -1.9425   -2.7582    0.0456 H       1  LIG1        0.1661
     19 S          -4.0053    1.5806   -0.6609 S.3     1  LIG1       -0.1393
     20 H          -5.0963    1.3615   -1.4066 H       1  LIG1        0.1072
     21 C          -6.0969   -0.9576    0.0440 C.1     1  LIG1       -0.0664
     22 C          -7.2880   -0.8134    0.1170 C.1     1  LIG1       -0.1138
     23 H          -8.3446   -0.6970    0.1864 H       1  LIG1        0.1232
     24 C          -4.5130   -3.6555    0.4514 C.ar    1  LIG1        0.0787
     25 C          -5.5100   -4.4052   -0.1283 C.ar    1  LIG1        0.0469
     26 C          -5.5712   -5.6442    0.5885 C.ar    1  LIG1        0.0557
     27 C          -4.6056   -5.5948    1.5709 C.ar    1  LIG1        0.0188
     28 N          -3.9787   -4.3957    1.4813 N.ar    1  LIG1       -0.3575
     29 H          -3.3115   -4.0358    2.1460 H       1  LIG1        0.1654
     30 H          -4.3436   -6.3270    2.3145 H       1  LIG1        0.0820
     31 S          -6.5226   -3.9163   -1.4868 S.3     1  LIG1       -0.1394
     32 H          -6.5519   -5.1370   -2.0368 H       1  LIG1        0.1072
     33 C          -6.4469   -6.7412    0.3068 C.1     1  LIG1       -0.0671
     34 C          -7.1836   -7.6544    0.0458 C.1     1  LIG1       -0.1138
     35 H          -7.8376   -8.4645   -0.1789 H       1  LIG1        0.1232
@<TRIPOS>BOND
     1     7     1    1
     2     6     5    1
     3    32    31    1
     4     1     5   ar
     5     1     2   ar
     6    31    25    1
     7     5     4   ar
     8    20    19    1
     9    19    14    1
    10     2     8    1
    11     2     3   ar
    12     4    13    1
    13     4     3   ar
    14    14    13   ar
    15    14    15   ar
    16    13    17   ar
    17     8     9    1
    18    35    34    1
    19    25    24   ar
    20    25    26   ar
    21    15    21    1
    22    15    16   ar
    23    17    18    1
    24    17    16   ar
    25     3    10    1
    26    21    22    3
    27    34    33    3
    28    22    23    1
    29    16    24    1
    30    33    26    1
    31    24    28   ar
    32    26    27   ar
    33    10    11    3
    34    28    27   ar
    35    28    29    1
    36    27    30    1
    37    11    12    1
