@<TRIPOS>MOLECULE
mol_data/opt/m06hf/geoms/mol2/13ge.out
 13 13 0 0 0
SMALL
GASTEIGER

@<TRIPOS>ATOM
      1 C           1.1069   -0.4158   -0.0002 C.ar    1  LIG1        0.0161
      2 C           0.7031    0.8929    0.0002 C.ar    1  LIG1        0.0375
      3 C          -0.7302    0.8906    0.0004 C.ar    1  LIG1        0.0551
      4 C          -1.1321   -0.4283    0.0004 C.ar    1  LIG1        0.0183
      5 N          -0.0181   -1.2005   -0.0001 N.ar    1  LIG1       -0.3650
      6 H          -0.0161   -2.2070   -0.0004 H       1  LIG1        0.1648
      7 H          -2.1234   -0.8459    0.0006 H       1  LIG1        0.0819
      8 H           2.0947   -0.8416   -0.0006 H       1  LIG1        0.0818
      9 S           1.7557    2.3126    0.0002 S.3     1  LIG1       -0.1400
     10 H           0.7470    3.1903    0.0004 H       1  LIG1        0.1072
     11 C          -1.5704    2.0499    0.0008 C.1     1  LIG1       -0.0671
     12 C          -2.2408    3.0490    0.0013 C.1     1  LIG1       -0.1138
     13 H          -2.8449    3.9266    0.0015 H       1  LIG1        0.1232
@<TRIPOS>BOND
     1     8     1    1
     2     6     5    1
     3     1     5   ar
     4     1     2   ar
     5     5     4   ar
     6     2     9    1
     7     2     3   ar
     8     9    10    1
     9     4     3   ar
    10     4     7    1
    11     3    11    1
    12    11    12    3
    13    12    13    1
