@<TRIPOS>MOLECULE
mol_data/opt/m06hf/geoms/mol2/13ge13ge13ge13ge.out
 46 49 0 0 0
SMALL
GASTEIGER

@<TRIPOS>ATOM
      1 C           1.2098    0.1195    0.2125 C.ar    1  LIG1        0.0167
      2 C           0.7189    1.2483   -0.3918 C.ar    1  LIG1        0.0381
      3 C          -0.7030    1.1031   -0.4676 C.ar    1  LIG1        0.0645
      4 C          -1.0157   -0.1143    0.1046 C.ar    1  LIG1        0.0807
      5 N           0.1550   -0.7018    0.4927 N.ar    1  LIG1       -0.3575
      6 H           0.2059   -1.5584    1.0208 H       1  LIG1        0.1654
      7 H           2.2229   -0.1423    0.4632 H       1  LIG1        0.0818
      8 S           1.7019    2.5656   -1.0352 S.3     1  LIG1       -0.1400
      9 H           0.9941    3.5565   -0.4846 H       1  LIG1        0.1072
     10 C          -1.6436    2.0245   -1.0255 C.1     1  LIG1       -0.0664
     11 C          -2.4373    2.8014   -1.4852 C.1     1  LIG1       -0.1138
     12 H          -3.1485    3.4819   -1.8924 H       1  LIG1        0.1232
     13 C          -2.3139   -0.7546    0.3013 C.ar    1  LIG1        0.0791
     14 C          -3.4650   -0.2842    0.8892 C.ar    1  LIG1        0.0476
     15 C          -4.4333   -1.3365    0.8174 C.ar    1  LIG1        0.0652
     16 C          -3.8326   -2.4069    0.1823 C.ar    1  LIG1        0.0811
     17 N          -2.5502   -2.0441   -0.1160 N.ar    1  LIG1       -0.3500
     18 H          -1.9605   -2.5406   -0.7673 H       1  LIG1        0.1661
     19 S          -3.6874    1.3125    1.6033 S.3     1  LIG1       -0.1393
     20 H          -4.3577    0.8552    2.6671 H       1  LIG1        0.1072
     21 C          -5.7517   -1.3265    1.3703 C.1     1  LIG1       -0.0664
     22 C          -6.8571   -1.3196    1.8440 C.1     1  LIG1       -0.1138
     23 H          -7.8425   -1.3244    2.2496 H       1  LIG1        0.1232
     24 C          -4.3591   -3.7259   -0.1492 C.ar    1  LIG1        0.0791
     25 C          -5.5604   -4.1088   -0.7020 C.ar    1  LIG1        0.0476
     26 C          -5.5297   -5.5361   -0.8175 C.ar    1  LIG1        0.0652
     27 C          -4.3104   -5.9664   -0.3314 C.ar    1  LIG1        0.0811
     28 N          -3.6100   -4.8629    0.0612 N.ar    1  LIG1       -0.3500
     29 H          -2.7955   -4.8978    0.6560 H       1  LIG1        0.1661
     30 S          -6.8710   -3.0489   -1.2176 S.3     1  LIG1       -0.1393
     31 H          -7.2128   -3.8306   -2.2505 H       1  LIG1        0.1072
     32 C          -6.5378   -6.3694   -1.3945 C.1     1  LIG1       -0.0664
     33 C          -7.3866   -7.0670   -1.8829 C.1     1  LIG1       -0.1138
     34 H          -8.1345   -7.7004   -2.3001 H       1  LIG1        0.1232
     35 C          -3.7582   -7.3137   -0.2298 C.ar    1  LIG1        0.0787
     36 C          -4.2961   -8.4771    0.2720 C.ar    1  LIG1        0.0469
     37 C          -3.2989   -9.4952    0.1226 C.ar    1  LIG1        0.0557
     38 C          -2.1971   -8.9058   -0.4593 C.ar    1  LIG1        0.0188
     39 N          -2.4841   -7.5978   -0.6678 N.ar    1  LIG1       -0.3575
     40 H          -1.9078   -6.9477   -1.1780 H       1  LIG1        0.1654
     41 H          -1.2524   -9.3403   -0.7358 H       1  LIG1        0.0820
     42 S          -5.9070   -8.6656    0.9604 S.3     1  LIG1       -0.1394
     43 H          -5.5269   -9.5906    1.8510 H       1  LIG1        0.1072
     44 C          -3.4186  -10.8599    0.5384 C.1     1  LIG1       -0.0671
     45 C          -3.5404  -11.9976    0.9067 C.1     1  LIG1       -0.1138
     46 H          -3.6459  -13.0081    1.2266 H       1  LIG1        0.1232
@<TRIPOS>BOND
     1    34    33    1
     2    31    30    1
     3    12    11    1
     4    33    32    3
     5    11    10    3
     6    32    26    1
     7    30    25    1
     8    40    39    1
     9     8     9    1
    10     8     2    1
    11    10     3    1
    12    26    25   ar
    13    26    27   ar
    14    18    17    1
    15    41    38    1
    16    25    24   ar
    17    39    38   ar
    18    39    35   ar
    19     3     2   ar
    20     3     4   ar
    21    38    37   ar
    22     2     1   ar
    23    27    35    1
    24    27    28   ar
    25    35    36   ar
    26    24    28   ar
    27    24    16    1
    28    17    16   ar
    29    17    13   ar
    30    28    29    1
    31     4    13    1
    32     4     5   ar
    33    37    36   ar
    34    37    44    1
    35    16    15   ar
    36     1     7    1
    37     1     5   ar
    38    36    42    1
    39    13    14   ar
    40     5     6    1
    41    44    45    3
    42    15    14   ar
    43    15    21    1
    44    14    19    1
    45    45    46    1
    46    42    43    1
    47    21    22    3
    48    19    20    1
    49    22    23    1
