@<TRIPOS>MOLECULE
mol_data/opt/m06hf/geoms/mol2/13ge13ge.out
 24 25 0 0 0
SMALL
GASTEIGER

@<TRIPOS>ATOM
      1 C           1.0854   -0.3347    0.7161 C.ar    1  LIG1        0.0167
      2 C           0.8031    0.9392    0.2968 C.ar    1  LIG1        0.0381
      3 C          -0.5779    0.9630   -0.0764 C.ar    1  LIG1        0.0645
      4 C          -1.0812   -0.3063    0.1400 C.ar    1  LIG1        0.0806
      5 N          -0.0615   -1.0760    0.6122 N.ar    1  LIG1       -0.3575
      6 H          -0.1769   -2.0201    0.9449 H       1  LIG1        0.1654
      7 H           2.0044   -0.7604    1.0794 H       1  LIG1        0.0818
      8 S           1.9444    2.2845    0.2191 S.3     1  LIG1       -0.1400
      9 H           1.0577    3.1435   -0.2979 H       1  LIG1        0.1072
     10 C          -1.3065    2.0737   -0.6048 C.1     1  LIG1       -0.0664
     11 C          -1.9114    3.0156   -1.0455 C.1     1  LIG1       -0.1138
     12 H          -2.4661    3.8390   -1.4314 H       1  LIG1        0.1232
     13 C          -2.4215   -0.8422   -0.0865 C.ar    1  LIG1        0.0787
     14 C          -3.6572   -0.3876    0.3116 C.ar    1  LIG1        0.0469
     15 C          -4.6258   -1.3193   -0.1865 C.ar    1  LIG1        0.0557
     16 C          -3.9356   -2.3030   -0.8611 C.ar    1  LIG1        0.0188
     17 N          -2.6145   -2.0038   -0.7981 N.ar    1  LIG1       -0.3575
     18 H          -1.8807   -2.4888   -1.2906 H       1  LIG1        0.1654
     19 H          -4.3053   -3.1732   -1.3747 H       1  LIG1        0.0820
     20 S          -3.9801    1.0729    1.2467 S.3     1  LIG1       -0.1394
     21 H          -4.9181    0.4943    2.0060 H       1  LIG1        0.1072
     22 C          -6.0422   -1.2538    0.0154 C.1     1  LIG1       -0.0671
     23 C          -7.2270   -1.1798    0.2062 C.1     1  LIG1       -0.1138
     24 H          -8.2777   -1.1121    0.3686 H       1  LIG1        0.1232
@<TRIPOS>BOND
     1    12    11    1
     2    19    16    1
     3    18    17    1
     4    11    10    3
     5    16    17   ar
     6    16    15   ar
     7    17    13   ar
     8    10     3    1
     9     9     8    1
    10    15    22    1
    11    15    14   ar
    12    13     4    1
    13    13    14   ar
    14     3     4   ar
    15     3     2   ar
    16    22    23    3
    17     4     5   ar
    18    23    24    1
    19     8     2    1
    20     2     1   ar
    21    14    20    1
    22     5     1   ar
    23     5     6    1
    24     1     7    1
    25    20    21    1
