@<TRIPOS>MOLECULE
mol_data/opt/m06hf/geoms/mol2/13gf13gf-13gf.out
 32 34 0 0 0
SMALL
GASTEIGER

@<TRIPOS>ATOM
      1 C           1.0797   -0.0532   -0.9376 C.ar    1  LIG1        0.0191
      2 C           0.8362    0.9604   -0.0424 C.ar    1  LIG1        0.0643
      3 C          -0.5155    0.8242    0.3855 C.ar    1  LIG1        0.1566
      4 C          -1.0492   -0.2693   -0.2613 C.ar    1  LIG1        0.1072
      5 N          -0.0532   -0.7997   -1.0545 N.ar    1  LIG1       -0.3555
      6 H          -0.2089   -1.5047   -1.7568 H       1  LIG1        0.1655
      7 H           1.9714   -0.2767   -1.4973 H       1  LIG1        0.0819
      8 S           2.0027    2.1520    0.5389 S.3     1  LIG1       -0.1377
      9 H           1.1839    3.2041    0.4233 H       1  LIG1        0.1073
     10 O          -1.1092    1.6466    1.2832 O.3     1  LIG1       -0.5035
     11 H          -2.0350    1.7814    1.0248 H       1  LIG1        0.2923
     12 C          -2.3752   -0.8700   -0.1563 C.ar    1  LIG1        0.0840
     13 C          -3.6264   -0.2855   -0.1339 C.ar    1  LIG1        0.0739
     14 C          -4.5828   -1.3293   -0.0251 C.ar    1  LIG1        0.1573
     15 C          -3.8958   -2.5237    0.0175 C.ar    1  LIG1        0.1076
     16 N          -2.5556   -2.2201   -0.0782 N.ar    1  LIG1       -0.3479
     17 H          -1.8078   -2.8960   -0.0787 H       1  LIG1        0.1661
     18 S          -3.9726    1.4379   -0.2964 S.3     1  LIG1       -0.1370
     19 H          -4.8867    1.4848    0.6794 H       1  LIG1        0.1073
     20 O          -5.9186   -1.1192    0.0630 O.3     1  LIG1       -0.5035
     21 H          -6.3818   -1.7928   -0.4599 H       1  LIG1        0.2923
     22 C          -4.3869   -3.8873    0.1862 C.ar    1  LIG1        0.0835
     23 C          -5.4561   -4.5306   -0.4011 C.ar    1  LIG1        0.0732
     24 C          -5.4901   -5.8512    0.1249 C.ar    1  LIG1        0.1478
     25 C          -4.4510   -5.9790    1.0110 C.ar    1  LIG1        0.0453
     26 N          -3.7821   -4.7781    1.0245 N.ar    1  LIG1       -0.3555
     27 H          -3.0590   -4.5264    1.6793 H       1  LIG1        0.1655
     28 H          -4.1419   -6.8109    1.6188 H       1  LIG1        0.0845
     29 S          -6.5092   -3.8679   -1.6525 S.3     1  LIG1       -0.1370
     30 H          -7.6572   -4.2984   -1.1163 H       1  LIG1        0.1073
     31 O          -6.4371   -6.7521   -0.2531 O.3     1  LIG1       -0.5042
     32 H          -6.2869   -7.6002    0.1763 H       1  LIG1        0.2923
@<TRIPOS>BOND
     1     6     5    1
     2    29    30    1
     3    29    23    1
     4     7     1    1
     5     5     1   ar
     6     5     4   ar
     7     1     2   ar
     8    21    20    1
     9    23    24   ar
    10    23    22   ar
    11    18    13    1
    12    18    19    1
    13     4    12    1
    14     4     3   ar
    15    31    24    1
    16    31    32    1
    17    12    13   ar
    18    12    16   ar
    19    13    14   ar
    20    17    16    1
    21    16    15   ar
    22     2     3   ar
    23     2     8    1
    24    14    15   ar
    25    14    20    1
    26    15    22    1
    27    24    25   ar
    28    22    26   ar
    29     3    10    1
    30     9     8    1
    31    25    26   ar
    32    25    28    1
    33    26    27    1
    34    11    10    1
