@<TRIPOS>MOLECULE
mol_data/opt/m06hf/geoms/mol2/13gf13gf13gf13gf.out
 42 45 0 0 0
SMALL
GASTEIGER

@<TRIPOS>ATOM
      1 C           1.2107   -0.0220    0.2959 C.ar    1  LIG1        0.0191
      2 C           0.7469    1.1766   -0.1921 C.ar    1  LIG1        0.0643
      3 C          -0.6735    1.0798   -0.2568 C.ar    1  LIG1        0.1566
      4 C          -1.0250   -0.1752    0.1946 C.ar    1  LIG1        0.1072
      5 N           0.1440   -0.8353    0.5143 N.ar    1  LIG1       -0.3555
      6 H           0.1736   -1.7183    0.9968 H       1  LIG1        0.1655
      7 H           2.2204   -0.3299    0.5054 H       1  LIG1        0.0819
      8 S           1.7383    2.5292   -0.7386 S.3     1  LIG1       -0.1377
      9 H           1.1695    3.4539    0.0432 H       1  LIG1        0.1073
     10 O          -1.4746    2.0697   -0.7118 O.3     1  LIG1       -0.5035
     11 H          -2.3203    2.0491   -0.2370 H       1  LIG1        0.2923
     12 C          -2.3321   -0.8127    0.2953 C.ar    1  LIG1        0.0840
     13 C          -3.5430   -0.3133    0.7167 C.ar    1  LIG1        0.0739
     14 C          -4.5105   -1.3478    0.5657 C.ar    1  LIG1        0.1573
     15 C          -3.8629   -2.4533    0.0594 C.ar    1  LIG1        0.1077
     16 N          -2.5274   -2.1172   -0.0778 N.ar    1  LIG1       -0.3479
     17 H          -1.8948   -2.6008   -0.6979 H       1  LIG1        0.1661
     18 S          -3.8353    1.2795    1.4175 S.3     1  LIG1       -0.1370
     19 H          -5.0290    1.4465    0.8357 H       1  LIG1        0.1073
     20 O          -5.8045   -1.1956    0.9217 O.3     1  LIG1       -0.5035
     21 H          -6.3668   -1.7406    0.3442 H       1  LIG1        0.2923
     22 C          -4.3449   -3.7993   -0.2229 C.ar    1  LIG1        0.0840
     23 C          -5.5628   -4.2568   -0.6812 C.ar    1  LIG1        0.0739
     24 C          -5.4947   -5.6792   -0.7278 C.ar    1  LIG1        0.1573
     25 C          -4.2386   -6.0511   -0.3068 C.ar    1  LIG1        0.1076
     26 N          -3.5445   -4.8898   -0.0190 N.ar    1  LIG1       -0.3479
     27 H          -2.7233   -4.8618    0.5667 H       1  LIG1        0.1661
     28 S          -6.9201   -3.2790   -1.2411 S.3     1  LIG1       -0.1370
     29 H          -7.8499   -3.8993   -0.5059 H       1  LIG1        0.1073
     30 O          -6.5148   -6.4525   -1.1587 O.3     1  LIG1       -0.5035
     31 H          -6.5000   -7.3002   -0.6844 H       1  LIG1        0.2923
     32 C          -3.6171   -7.3675   -0.2160 C.ar    1  LIG1        0.0835
     33 C          -4.1256   -8.5791    0.2041 C.ar    1  LIG1        0.0732
     34 C          -3.0826   -9.5373    0.0772 C.ar    1  LIG1        0.1478
     35 C          -1.9744   -8.8933   -0.4095 C.ar    1  LIG1        0.0453
     36 N          -2.3146   -7.5707   -0.5688 N.ar    1  LIG1       -0.3555
     37 H          -1.7483   -6.8785   -1.0310 H       1  LIG1        0.1655
     38 H          -0.9934   -9.2624   -0.6515 H       1  LIG1        0.0845
     39 S          -5.7338   -8.8665    0.8718 S.3     1  LIG1       -0.1370
     40 H          -5.9787   -9.9812    0.1725 H       1  LIG1        0.1073
     41 O          -3.2659  -10.8447    0.4054 O.3     1  LIG1       -0.5042
     42 H          -2.4596  -11.3488    0.2563 H       1  LIG1        0.2923
@<TRIPOS>BOND
     1    28    23    1
     2    28    29    1
     3    30    24    1
     4    30    31    1
     5    37    36    1
     6     8     2    1
     7     8     9    1
     8    24    23   ar
     9    24    25   ar
    10    10     3    1
    11    10    11    1
    12    17    16    1
    13    23    22   ar
    14    38    35    1
    15    36    35   ar
    16    36    32   ar
    17    35    34   ar
    18    25    32    1
    19    25    26   ar
    20     3     2   ar
    21     3     4   ar
    22    22    26   ar
    23    22    15    1
    24    32    33   ar
    25     2     1   ar
    26    16    15   ar
    27    16    12   ar
    28    26    27    1
    29    15    14   ar
    30    34    33   ar
    31    34    41    1
    32    40    39    1
    33     4    12    1
    34     4     5   ar
    35    33    39    1
    36    42    41    1
    37    12    13   ar
    38     1     7    1
    39     1     5   ar
    40    21    20    1
    41     5     6    1
    42    14    13   ar
    43    14    20    1
    44    13    18    1
    45    19    18    1
