@<TRIPOS>MOLECULE
mol_data/opt/m06hf/geoms/mol2/13gf13gf-13gf13gf-.out
 42 45 0 0 0
SMALL
GASTEIGER

@<TRIPOS>ATOM
      1 C           0.7108    0.4664   -1.7754 C.ar    1  LIG1        0.0191
      2 C           0.7867    1.1348   -0.5776 C.ar    1  LIG1        0.0643
      3 C          -0.3835    0.7998    0.1604 C.ar    1  LIG1        0.1566
      4 C          -1.1316   -0.0632   -0.6095 C.ar    1  LIG1        0.1072
      5 N          -0.4396   -0.2654   -1.7829 N.ar    1  LIG1       -0.3555
      6 H          -0.8235   -0.7251   -2.5929 H       1  LIG1        0.1655
      7 H           1.3838    0.4757   -2.6151 H       1  LIG1        0.0819
      8 S           2.1131    2.1501   -0.0057 S.3     1  LIG1       -0.1377
      9 H           1.3259    2.9705    0.6979 H       1  LIG1        0.1073
     10 O          -0.6519    1.2660    1.4057 O.3     1  LIG1       -0.5035
     11 H          -1.6028    1.4489    1.4752 H       1  LIG1        0.2923
     12 C          -2.3878   -0.7375   -0.2979 C.ar    1  LIG1        0.0840
     13 C          -3.5501   -0.2473    0.2638 C.ar    1  LIG1        0.0739
     14 C          -4.4661   -1.3274    0.3582 C.ar    1  LIG1        0.1573
     15 C          -3.8424   -2.4503   -0.1426 C.ar    1  LIG1        0.1077
     16 N          -2.5841   -2.0646   -0.5487 N.ar    1  LIG1       -0.3479
     17 H          -1.8986   -2.6704   -0.9713 H       1  LIG1        0.1661
     18 S          -3.8668    1.4279    0.7235 S.3     1  LIG1       -0.1370
     19 H          -4.4398    1.1285    1.8943 H       1  LIG1        0.1073
     20 O          -5.7023   -1.2228    0.9028 O.3     1  LIG1       -0.5035
     21 H          -6.3282   -1.7398    0.3701 H       1  LIG1        0.2923
     22 C          -4.3143   -3.8299   -0.1953 C.ar    1  LIG1        0.0840
     23 C          -5.5370   -4.3408   -0.5837 C.ar    1  LIG1        0.0739
     24 C          -5.4806   -5.7505   -0.4219 C.ar    1  LIG1        0.1573
     25 C          -4.2283   -6.0654    0.0621 C.ar    1  LIG1        0.1076
     26 N          -3.5315   -4.8841    0.1779 N.ar    1  LIG1       -0.3479
     27 H          -2.5833   -4.8058    0.5103 H       1  LIG1        0.1661
     28 S          -6.8961   -3.4170   -1.2274 S.3     1  LIG1       -0.1370
     29 H          -7.8357   -4.0460   -0.5133 H       1  LIG1        0.1073
     30 O          -6.5233   -6.5793   -0.6689 O.3     1  LIG1       -0.5035
     31 H          -6.1941   -7.3880   -1.0942 H       1  LIG1        0.2923
     32 C          -3.6750   -7.3541    0.4670 C.ar    1  LIG1        0.0835
     33 C          -3.7553   -8.5895   -0.1401 C.ar    1  LIG1        0.0732
     34 C          -3.0551   -9.5090    0.6878 C.ar    1  LIG1        0.1478
     35 C          -2.5695   -8.8177    1.7682 C.ar    1  LIG1        0.0453
     36 N          -2.9450   -7.5051    1.6102 N.ar    1  LIG1       -0.3555
     37 H          -2.8570   -6.7913    2.3163 H       1  LIG1        0.1655
     38 H          -2.0001   -9.1483    2.6188 H       1  LIG1        0.0845
     39 S          -4.4936   -8.9329   -1.7064 S.3     1  LIG1       -0.1370
     40 H          -5.1177  -10.0541   -1.3257 H       1  LIG1        0.1073
     41 O          -2.9515  -10.8278    0.3697 O.3     1  LIG1       -0.5042
     42 H          -2.4572  -11.3012    1.0462 H       1  LIG1        0.2923
@<TRIPOS>BOND
     1     7     1    1
     2     6     5    1
     3     5     1   ar
     4     5     4   ar
     5     1     2   ar
     6    39    40    1
     7    39    33    1
     8    28    23    1
     9    28    29    1
    10    31    30    1
    11    17    16    1
    12    30    24    1
    13     4    12    1
    14     4     3   ar
    15    23    24   ar
    16    23    22   ar
    17     2     8    1
    18     2     3   ar
    19    16    12   ar
    20    16    15   ar
    21    24    25   ar
    22    12    13   ar
    23    22    15    1
    24    22    26   ar
    25    15    14   ar
    26    33    32   ar
    27    33    34   ar
    28     8     9    1
    29    25    26   ar
    30    25    32    1
    31     3    10    1
    32    26    27    1
    33    13    14   ar
    34    13    18    1
    35    14    20    1
    36    41    34    1
    37    41    42    1
    38    21    20    1
    39    32    36   ar
    40    34    35   ar
    41    18    19    1
    42    10    11    1
    43    36    35   ar
    44    36    37    1
    45    35    38    1
