@<TRIPOS>MOLECULE
mol_data/opt/m06hf/geoms/mol2/13gf.out
 12 12 0 0 0
SMALL
GASTEIGER

@<TRIPOS>ATOM
      1 C           1.0953   -0.4168   -0.0001 C.ar    1  LIG1        0.0186
      2 C           0.6933    0.8962    0.0001 C.ar    1  LIG1        0.0636
      3 C          -0.7291    0.8869    0.0003 C.ar    1  LIG1        0.1472
      4 C          -1.1473   -0.4193    0.0003 C.ar    1  LIG1        0.0448
      5 N          -0.0205   -1.1995    0.0001 N.ar    1  LIG1       -0.3630
      6 H          -0.0193   -2.2052   -0.0001 H       1  LIG1        0.1649
      7 H          -2.1360   -0.8435    0.0004 H       1  LIG1        0.0844
      8 H           2.0850   -0.8385   -0.0003 H       1  LIG1        0.0819
      9 S           1.7146    2.3396    0.0001 S.3     1  LIG1       -0.1377
     10 H           0.6784    3.1867    0.0001 H       1  LIG1        0.1073
     11 O          -1.4578    2.0431    0.0005 O.3     1  LIG1       -0.5042
     12 H          -2.3996    1.8473    0.0004 H       1  LIG1        0.2923
@<TRIPOS>BOND
     1     8     1    1
     2     6     5    1
     3     1     5   ar
     4     1     2   ar
     5     9     2    1
     6     9    10    1
     7     5     4   ar
     8     2     3   ar
     9     4     3   ar
    10     4     7    1
    11     3    11    1
    12    12    11    1
