@<TRIPOS>MOLECULE
mol_data/opt/m06hf/geoms/mol2/13gf13gf-.out
 22 23 0 0 0
SMALL
GASTEIGER

@<TRIPOS>ATOM
      1 C           1.1471   -0.3271    0.3917 C.ar    1  LIG1        0.0191
      2 C           0.7768    0.9182   -0.0515 C.ar    1  LIG1        0.0643
      3 C          -0.6312    0.8860   -0.2563 C.ar    1  LIG1        0.1566
      4 C          -1.0742   -0.3784    0.0650 C.ar    1  LIG1        0.1072
      5 N           0.0294   -1.1075    0.4476 N.ar    1  LIG1       -0.3555
      6 H          -0.0188   -2.0123    0.8872 H       1  LIG1        0.1655
      7 H           2.1147   -0.7004    0.6790 H       1  LIG1        0.0819
      8 S           1.8211    2.3050   -0.3744 S.3     1  LIG1       -0.1377
      9 H           0.8316    3.1923   -0.2333 H       1  LIG1        0.1073
     10 O          -1.3471    1.9488   -0.7042 O.3     1  LIG1       -0.5035
     11 H          -2.1907    1.9820   -0.2242 H       1  LIG1        0.2923
     12 C          -2.4077   -0.9679   -0.0082 C.ar    1  LIG1        0.0835
     13 C          -3.6473   -0.4499    0.3086 C.ar    1  LIG1        0.0732
     14 C          -4.6061   -1.4678    0.0462 C.ar    1  LIG1        0.1478
     15 C          -3.9366   -2.5686   -0.4206 C.ar    1  LIG1        0.0453
     16 N          -2.5981   -2.2496   -0.4327 N.ar    1  LIG1       -0.3555
     17 H          -1.8743   -2.8085   -0.8546 H       1  LIG1        0.1655
     18 H          -4.2960   -3.5307   -0.7399 H       1  LIG1        0.0845
     19 S          -3.9786    1.1291    1.0219 S.3     1  LIG1       -0.1370
     20 H          -4.8760    1.5203    0.1063 H       1  LIG1        0.1073
     21 O          -5.9371   -1.2753    0.2530 O.3     1  LIG1       -0.5042
     22 H          -6.4225   -2.0923    0.1022 H       1  LIG1        0.2923
@<TRIPOS>BOND
     1    17    16    1
     2    18    15    1
     3    10     3    1
     4    10    11    1
     5    16    15   ar
     6    16    12   ar
     7    15    14   ar
     8     8     9    1
     9     8     2    1
    10     3     2   ar
    11     3     4   ar
    12     2     1   ar
    13    12     4    1
    14    12    13   ar
    15    14    21    1
    16    14    13   ar
    17     4     5   ar
    18    22    21    1
    19    20    19    1
    20    13    19    1
    21     1     5   ar
    22     1     7    1
    23     5     6    1
