@<TRIPOS>MOLECULE
mol_data/opt/m06hf/geoms/mol2/13gf13gf-13gf-.out
 32 34 0 0 0
SMALL
GASTEIGER

@<TRIPOS>ATOM
      1 C           1.2112   -0.1546   -0.1683 C.ar    1  LIG1        0.0191
      2 C           0.7678    0.9872    0.4561 C.ar    1  LIG1        0.0643
      3 C          -0.6540    0.9061    0.5152 C.ar    1  LIG1        0.1566
      4 C          -1.0271   -0.2828   -0.0756 C.ar    1  LIG1        0.1072
      5 N           0.1304   -0.9199   -0.4742 N.ar    1  LIG1       -0.3555
      6 H           0.1451   -1.7427   -1.0544 H       1  LIG1        0.1655
      7 H           2.2147   -0.4547   -0.4148 H       1  LIG1        0.0819
      8 S           1.7819    2.2554    1.1470 S.3     1  LIG1       -0.1377
      9 H           1.2466    3.2651    0.4527 H       1  LIG1        0.1073
     10 O          -1.4387    1.8483    1.0863 O.3     1  LIG1       -0.5035
     11 H          -2.2772    1.9091    0.6022 H       1  LIG1        0.2923
     12 C          -2.3438   -0.8883   -0.2366 C.ar    1  LIG1        0.0840
     13 C          -3.5525   -0.3290   -0.5847 C.ar    1  LIG1        0.0739
     14 C          -4.5301   -1.3648   -0.5488 C.ar    1  LIG1        0.1573
     15 C          -3.8909   -2.5284   -0.1868 C.ar    1  LIG1        0.1076
     16 N          -2.5518   -2.2247   -0.0189 N.ar    1  LIG1       -0.3479
     17 H          -1.9183   -2.7902    0.5268 H       1  LIG1        0.1661
     18 S          -3.8166    1.3318   -1.1173 S.3     1  LIG1       -0.1370
     19 H          -4.9830    1.4898   -0.4795 H       1  LIG1        0.1073
     20 O          -5.8273   -1.1617   -0.8712 O.3     1  LIG1       -0.5035
     21 H          -6.3872   -1.7655   -0.3565 H       1  LIG1        0.2923
     22 C          -4.3923   -3.8919   -0.0516 C.ar    1  LIG1        0.0835
     23 C          -5.5762   -4.3759    0.4649 C.ar    1  LIG1        0.0732
     24 C          -5.5349   -5.7930    0.3476 C.ar    1  LIG1        0.1478
     25 C          -4.3402   -6.1349   -0.2305 C.ar    1  LIG1        0.0453
     26 N          -3.6514   -4.9655   -0.4521 N.ar    1  LIG1       -0.3555
     27 H          -2.7984   -4.8848   -0.9809 H       1  LIG1        0.1655
     28 H          -3.9352   -7.0952   -0.4974 H       1  LIG1        0.0845
     29 S          -6.8563   -3.4295    1.2266 S.3     1  LIG1       -0.1370
     30 H          -7.8671   -4.0585    0.6177 H       1  LIG1        0.1073
     31 O          -6.5667   -6.5780    0.7610 O.3     1  LIG1       -0.5042
     32 H          -6.3380   -7.5093    0.6795 H       1  LIG1        0.2923
@<TRIPOS>BOND
     1    18    13    1
     2    18    19    1
     3     6     5    1
     4    27    26    1
     5    20    14    1
     6    20    21    1
     7    13    14   ar
     8    13    12   ar
     9    14    15   ar
    10    28    25    1
    11     5     1   ar
    12     5     4   ar
    13    26    25   ar
    14    26    22   ar
    15     7     1    1
    16    12     4    1
    17    12    16   ar
    18    25    24   ar
    19    15    22    1
    20    15    16   ar
    21     1     2   ar
    22     4     3   ar
    23    22    23   ar
    24    16    17    1
    25    24    23   ar
    26    24    31    1
    27     9     8    1
    28     2     3   ar
    29     2     8    1
    30    23    29    1
    31     3    10    1
    32    11    10    1
    33    30    29    1
    34    32    31    1
