@<TRIPOS>MOLECULE
mol_data/opt/m06hf/geoms/mol2/13gf13gf-13gf-13gf.out
 42 45 0 0 0
SMALL
GASTEIGER

@<TRIPOS>ATOM
      1 C           0.6823    0.3415    2.0811 C.ar    1  LIG1        0.0191
      2 C           0.7822    1.0805    0.9274 C.ar    1  LIG1        0.0643
      3 C          -0.3742    0.7940    0.1485 C.ar    1  LIG1        0.1566
      4 C          -1.1383   -0.1118    0.8505 C.ar    1  LIG1        0.1072
      5 N          -0.4692   -0.3862    2.0226 N.ar    1  LIG1       -0.3555
      6 H          -0.8692   -0.8929    2.7958 H       1  LIG1        0.1655
      7 H           1.3391    0.2983    2.9324 H       1  LIG1        0.0819
      8 S           2.1209    2.1248    0.4429 S.3     1  LIG1       -0.1377
      9 H           1.3487    2.9883   -0.2248 H       1  LIG1        0.1073
     10 O          -0.6181    1.3352   -1.0713 O.3     1  LIG1       -0.5035
     11 H          -1.5671    1.5246   -1.1477 H       1  LIG1        0.2923
     12 C          -2.3894   -0.7624    0.4750 C.ar    1  LIG1        0.0840
     13 C          -3.5399   -0.2360   -0.0782 C.ar    1  LIG1        0.0739
     14 C          -4.4557   -1.3059   -0.2550 C.ar    1  LIG1        0.1573
     15 C          -3.8438   -2.4587    0.1892 C.ar    1  LIG1        0.1077
     16 N          -2.5928   -2.1017    0.6417 N.ar    1  LIG1       -0.3479
     17 H          -1.9166   -2.7337    1.0400 H       1  LIG1        0.1661
     18 S          -3.8448    1.4647   -0.4422 S.3     1  LIG1       -0.1370
     19 H          -4.3953    1.2380   -1.6398 H       1  LIG1        0.1073
     20 O          -5.6810   -1.1649   -0.8159 O.3     1  LIG1       -0.5035
     21 H          -6.3177   -1.7121   -0.3280 H       1  LIG1        0.2923
     22 C          -4.3188   -3.8376    0.1497 C.ar    1  LIG1        0.0840
     23 C          -5.5495   -4.3677    0.4830 C.ar    1  LIG1        0.0739
     24 C          -5.4921   -5.7653    0.2377 C.ar    1  LIG1        0.1573
     25 C          -4.2311   -6.0538   -0.2403 C.ar    1  LIG1        0.1076
     26 N          -3.5305   -4.8695   -0.2713 N.ar    1  LIG1       -0.3479
     27 H          -2.5759   -4.7738   -0.5800 H       1  LIG1        0.1661
     28 S          -6.9194   -3.4809    1.1551 S.3     1  LIG1       -0.1370
     29 H          -7.8460   -4.0631    0.3866 H       1  LIG1        0.1073
     30 O          -6.5406   -6.6048    0.4143 O.3     1  LIG1       -0.5035
     31 H          -6.2208   -7.4383    0.7968 H       1  LIG1        0.2923
     32 C          -3.6720   -7.3173   -0.7111 C.ar    1  LIG1        0.0835
     33 C          -3.7656   -8.5866   -0.1808 C.ar    1  LIG1        0.0732
     34 C          -3.0507   -9.4566   -1.0487 C.ar    1  LIG1        0.1478
     35 C          -2.5435   -8.7030   -2.0761 C.ar    1  LIG1        0.0453
     36 N          -2.9202   -7.4013   -1.8471 N.ar    1  LIG1       -0.3555
     37 H          -2.8174   -6.6467   -2.5072 H       1  LIG1        0.1655
     38 H          -1.9581   -8.9835   -2.9340 H       1  LIG1        0.0845
     39 S          -4.5343   -9.0215    1.3476 S.3     1  LIG1       -0.1370
     40 H          -5.1529  -10.1161    0.8885 H       1  LIG1        0.1073
     41 O          -2.9550  -10.7923   -0.8083 O.3     1  LIG1       -0.5042
     42 H          -2.4482  -11.2255   -1.5023 H       1  LIG1        0.2923
@<TRIPOS>BOND
     1    38    35    1
     2    37    36    1
     3    35    36   ar
     4    35    34   ar
     5    36    32   ar
     6    19    18    1
     7    42    41    1
     8    11    10    1
     9    10     3    1
    10    34    41    1
    11    34    33   ar
    12    20    21    1
    13    20    14    1
    14    32    25    1
    15    32    33   ar
    16    27    26    1
    17    18    13    1
    18    26    25   ar
    19    26    22   ar
    20    14    13   ar
    21    14    15   ar
    22    25    24   ar
    23     9     8    1
    24    33    39    1
    25    13    12   ar
    26     3     4   ar
    27     3     2   ar
    28    22    15    1
    29    22    23   ar
    30    15    16   ar
    31    24    30    1
    32    24    23   ar
    33    29    28    1
    34    30    31    1
    35     8     2    1
    36    12    16   ar
    37    12     4    1
    38    23    28    1
    39    16    17    1
    40     4     5   ar
    41    40    39    1
    42     2     1   ar
    43     5     1   ar
    44     5     6    1
    45     1     7    1
