@<TRIPOS>MOLECULE
mol_data/opt/m06hf/geoms/mol2/13gf13gf13gf-13gf-.out
 42 45 0 0 0
SMALL
GASTEIGER

@<TRIPOS>ATOM
      1 C           0.7179    0.3730    1.9260 C.ar    1  LIG1        0.0191
      2 C           0.7999    1.0926    0.7586 C.ar    1  LIG1        0.0643
      3 C          -0.3689    0.7940    0.0031 C.ar    1  LIG1        0.1566
      4 C          -1.1224   -0.0992    0.7323 C.ar    1  LIG1        0.1072
      5 N          -0.4348   -0.3545    1.8980 N.ar    1  LIG1       -0.3555
      6 H          -0.8229   -0.8477    2.6860 H       1  LIG1        0.1655
      7 H           1.3882    0.3436    2.7673 H       1  LIG1        0.0819
      8 S           2.1315    2.1273    0.2355 S.3     1  LIG1       -0.1377
      9 H           1.3494    2.9802   -0.4344 H       1  LIG1        0.1073
     10 O          -0.6318    1.3149   -1.2216 O.3     1  LIG1       -0.5035
     11 H          -1.5818    1.5037   -1.2861 H       1  LIG1        0.2923
     12 C          -2.3796   -0.7550    0.3878 C.ar    1  LIG1        0.0840
     13 C          -3.5385   -0.2370   -0.1559 C.ar    1  LIG1        0.0739
     14 C          -4.4577   -1.3089   -0.3000 C.ar    1  LIG1        0.1573
     15 C          -3.8393   -2.4546    0.1536 C.ar    1  LIG1        0.1077
     16 N          -2.5811   -2.0912    0.5801 N.ar    1  LIG1       -0.3479
     17 H          -1.8989   -2.7170    0.9780 H       1  LIG1        0.1661
     18 S          -3.8482    1.4576   -0.5434 S.3     1  LIG1       -0.1370
     19 H          -4.4179    1.2112   -1.7281 H       1  LIG1        0.1073
     20 O          -5.6916   -1.1765   -0.8435 O.3     1  LIG1       -0.5035
     21 H          -6.3209   -1.7143   -0.3358 H       1  LIG1        0.2923
     22 C          -4.3158   -3.8336    0.1450 C.ar    1  LIG1        0.0840
     23 C          -5.5414   -4.3567    0.5071 C.ar    1  LIG1        0.0739
     24 C          -5.4891   -5.7583    0.2842 C.ar    1  LIG1        0.1573
     25 C          -4.2363   -6.0560   -0.2094 C.ar    1  LIG1        0.1076
     26 N          -3.5353   -4.8732   -0.2715 N.ar    1  LIG1       -0.3479
     27 H          -2.5858   -4.7837   -0.5971 H       1  LIG1        0.1661
     28 S          -6.8996   -3.4572    1.1862 S.3     1  LIG1       -0.1370
     29 H          -7.8390   -4.0512    0.4425 H       1  LIG1        0.1073
     30 O          -6.5354   -6.5934    0.4917 O.3     1  LIG1       -0.5035
     31 H          -6.2101   -7.4209    0.8825 H       1  LIG1        0.2923
     32 C          -3.6860   -7.3278   -0.6681 C.ar    1  LIG1        0.0835
     33 C          -3.7722   -8.5881   -0.1153 C.ar    1  LIG1        0.0732
     34 C          -3.0724   -9.4732   -0.9803 C.ar    1  LIG1        0.1478
     35 C          -2.5814   -8.7374   -2.0283 C.ar    1  LIG1        0.0453
     36 N          -2.9531   -7.4316   -1.8148 N.ar    1  LIG1       -0.3555
     37 H          -2.8604   -6.6882   -2.4889 H       1  LIG1        0.1655
     38 H          -2.0106   -9.0328   -2.8909 H       1  LIG1        0.0845
     39 S          -4.5162   -8.9965    1.4325 S.3     1  LIG1       -0.1370
     40 H          -5.1426  -10.0982    1.0020 H       1  LIG1        0.1073
     41 O          -2.9742  -10.8049   -0.7192 O.3     1  LIG1       -0.5042
     42 H          -2.4789  -11.2502   -1.4139 H       1  LIG1        0.2923
@<TRIPOS>BOND
     1    38    35    1
     2    37    36    1
     3    35    36   ar
     4    35    34   ar
     5    36    32   ar
     6    19    18    1
     7    42    41    1
     8    11    10    1
     9    10     3    1
    10    34    41    1
    11    34    33   ar
    12    20    21    1
    13    20    14    1
    14    32    25    1
    15    32    33   ar
    16    27    26    1
    17    18    13    1
    18     9     8    1
    19    14    13   ar
    20    14    15   ar
    21    26    25   ar
    22    26    22   ar
    23    25    24   ar
    24    13    12   ar
    25    33    39    1
    26     3     4   ar
    27     3     2   ar
    28    22    15    1
    29    22    23   ar
    30    15    16   ar
    31     8     2    1
    32    24    30    1
    33    24    23   ar
    34    12    16   ar
    35    12     4    1
    36    29    28    1
    37    30    31    1
    38    23    28    1
    39    16    17    1
    40     4     5   ar
    41     2     1   ar
    42    40    39    1
    43     5     1   ar
    44     5     6    1
    45     1     7    1
