@<TRIPOS>MOLECULE
mol_data/opt/m06hf/geoms/mol2/13gf13gf-13gf-13gf-.out
 42 45 0 0 0
SMALL
GASTEIGER

@<TRIPOS>ATOM
      1 C           0.8372    0.4420    1.4618 C.ar    1  LIG1        0.0191
      2 C           0.7854    1.1574    0.2900 C.ar    1  LIG1        0.0643
      3 C          -0.4537    0.8409   -0.3376 C.ar    1  LIG1        0.1566
      4 C          -1.1124   -0.0591    0.4711 C.ar    1  LIG1        0.1072
      5 N          -0.2999   -0.3002    1.5593 N.ar    1  LIG1       -0.3555
      6 H          -0.5970   -0.7943    2.3853 H       1  LIG1        0.1655
      7 H           1.5967    0.4274    2.2243 H       1  LIG1        0.0819
      8 S           2.0591    2.1889   -0.3631 S.3     1  LIG1       -0.1377
      9 H           1.2609    3.2191   -0.6622 H       1  LIG1        0.1073
     10 O          -0.8524    1.3534   -1.5262 O.3     1  LIG1       -0.5035
     11 H          -1.8110    1.5022   -1.5014 H       1  LIG1        0.2923
     12 C          -2.3874   -0.7415    0.2740 C.ar    1  LIG1        0.0840
     13 C          -3.6101   -0.2570   -0.1481 C.ar    1  LIG1        0.0739
     14 C          -4.5196   -1.3478   -0.1592 C.ar    1  LIG1        0.1573
     15 C          -3.8317   -2.4697    0.2544 C.ar    1  LIG1        0.1077
     16 N          -2.5402   -2.0733    0.5248 N.ar    1  LIG1       -0.3479
     17 H          -1.8020   -2.6842    0.8352 H       1  LIG1        0.1661
     18 S          -3.9915    1.4244   -0.5237 S.3     1  LIG1       -0.1370
     19 H          -4.6546    1.1641   -1.6555 H       1  LIG1        0.1073
     20 O          -5.8071   -1.2456   -0.5638 O.3     1  LIG1       -0.5035
     21 H          -6.3641   -1.8341   -0.0283 H       1  LIG1        0.2923
     22 C          -4.2750   -3.8546    0.3537 C.ar    1  LIG1        0.0840
     23 C          -5.4573   -4.3750    0.8285 C.ar    1  LIG1        0.0739
     24 C          -5.4114   -5.7854    0.6378 C.ar    1  LIG1        0.1573
     25 C          -4.2000   -6.0875    0.0573 C.ar    1  LIG1        0.1076
     26 N          -3.5092   -4.9000   -0.0927 N.ar    1  LIG1       -0.3479
     27 H          -2.7505   -4.7793   -0.7476 H       1  LIG1        0.1661
     28 S          -6.7513   -3.4767    1.6240 S.3     1  LIG1       -0.1370
     29 H          -7.7388   -4.2065    1.0931 H       1  LIG1        0.1073
     30 O          -6.4083   -6.6138    1.0226 O.3     1  LIG1       -0.5035
     31 H          -6.4626   -7.3607    0.4027 H       1  LIG1        0.2923
     32 C          -3.6153   -7.3727   -0.3104 C.ar    1  LIG1        0.0835
     33 C          -4.1847   -8.5026   -0.8621 C.ar    1  LIG1        0.0732
     34 C          -3.1469   -9.4627   -1.0136 C.ar    1  LIG1        0.1478
     35 C          -1.9820   -8.9013   -0.5585 C.ar    1  LIG1        0.0453
     36 N          -2.2849   -7.6250   -0.1462 N.ar    1  LIG1       -0.3555
     37 H          -1.6552   -7.0091    0.3415 H       1  LIG1        0.1655
     38 H          -0.9842   -9.2983   -0.4957 H       1  LIG1        0.0845
     39 S          -5.8581   -8.6905   -1.3903 S.3     1  LIG1       -0.1370
     40 H          -6.0562   -9.8814   -0.8114 H       1  LIG1        0.1073
     41 O          -3.3845  -10.6989   -1.5287 O.3     1  LIG1       -0.5042
     42 H          -2.5717  -11.2129   -1.5671 H       1  LIG1        0.2923
@<TRIPOS>BOND
     1    19    18    1
     2    42    41    1
     3    41    34    1
     4    10    11    1
     5    10     3    1
     6    39    33    1
     7    39    40    1
     8    34    33   ar
     9    34    35   ar
    10    33    32   ar
    11    27    26    1
    12     9     8    1
    13    20    14    1
    14    20    21    1
    15    35    38    1
    16    35    36   ar
    17    18    13    1
    18     8     2    1
    19     3     2   ar
    20     3     4   ar
    21    32    36   ar
    22    32    25    1
    23    14    13   ar
    24    14    15   ar
    25    13    12   ar
    26    36    37    1
    27    26    25   ar
    28    26    22   ar
    29    25    24   ar
    30    15    22    1
    31    15    16   ar
    32    12     4    1
    33    12    16   ar
    34     2     1   ar
    35    22    23   ar
    36    31    30    1
    37     4     5   ar
    38    16    17    1
    39    24    23   ar
    40    24    30    1
    41    23    28    1
    42    29    28    1
    43     1     5   ar
    44     1     7    1
    45     5     6    1
