@<TRIPOS>MOLECULE
mol_data/opt/m06hf/geoms/mol2/13gf13gf13gf-13gf.out
 42 45 0 0 0
SMALL
GASTEIGER

@<TRIPOS>ATOM
      1 C           0.7081    0.2439    1.9799 C.ar    1  LIG1        0.0191
      2 C           0.7935    1.0323    0.8561 C.ar    1  LIG1        0.0643
      3 C          -0.3887    0.8000    0.0939 C.ar    1  LIG1        0.1566
      4 C          -1.1509   -0.1205    0.7798 C.ar    1  LIG1        0.1072
      5 N          -0.4564   -0.4539    1.9253 N.ar    1  LIG1       -0.3555
      6 H          -0.8434   -0.9923    2.6838 H       1  LIG1        0.1655
      7 H           1.3935    0.1525    2.8048 H       1  LIG1        0.0819
      8 S           2.1728    2.0372    0.4064 S.3     1  LIG1       -0.1377
      9 H           1.5413    3.2164    0.4643 H       1  LIG1        0.1073
     10 O          -0.6560    1.3825   -1.0980 O.3     1  LIG1       -0.5035
     11 H          -1.6091    1.5512   -1.1629 H       1  LIG1        0.2923
     12 C          -2.4112   -0.7576    0.4116 C.ar    1  LIG1        0.0840
     13 C          -3.5732   -0.2234   -0.1091 C.ar    1  LIG1        0.0739
     14 C          -4.4928   -1.2912   -0.2835 C.ar    1  LIG1        0.1573
     15 C          -3.8716   -2.4506    0.1297 C.ar    1  LIG1        0.1077
     16 N          -2.6115   -2.0996    0.5610 N.ar    1  LIG1       -0.3479
     17 H          -1.9271   -2.7376    0.9349 H       1  LIG1        0.1661
     18 S          -3.8881    1.4831   -0.4337 S.3     1  LIG1       -0.1370
     19 H          -4.4458    1.2825   -1.6331 H       1  LIG1        0.1073
     20 O          -5.7300   -1.1408   -0.8151 O.3     1  LIG1       -0.5035
     21 H          -6.3573   -1.6906   -0.3183 H       1  LIG1        0.2923
     22 C          -4.3425   -3.8309    0.0888 C.ar    1  LIG1        0.0840
     23 C          -5.5639   -4.3707    0.4405 C.ar    1  LIG1        0.0739
     24 C          -5.4971   -5.7687    0.1994 C.ar    1  LIG1        0.1573
     25 C          -4.2403   -6.0480   -0.2941 C.ar    1  LIG1        0.1076
     26 N          -3.5507   -4.8573   -0.3391 N.ar    1  LIG1       -0.3479
     27 H          -2.6024   -4.7542   -0.6640 H       1  LIG1        0.1661
     28 S          -6.9297   -3.4959    1.1356 S.3     1  LIG1       -0.1370
     29 H          -7.8630   -4.0688    0.3680 H       1  LIG1        0.1073
     30 O          -6.5340   -6.6180    0.3964 O.3     1  LIG1       -0.5035
     31 H          -6.2000   -7.4438    0.7835 H       1  LIG1        0.2923
     32 C          -3.6733   -7.3095   -0.7611 C.ar    1  LIG1        0.0835
     33 C          -3.7445   -8.5745   -0.2170 C.ar    1  LIG1        0.0732
     34 C          -3.0285   -9.4441   -1.0845 C.ar    1  LIG1        0.1478
     35 C          -2.5434   -8.6948   -2.1256 C.ar    1  LIG1        0.0453
     36 N          -2.9338   -7.3955   -1.9050 N.ar    1  LIG1       -0.3555
     37 H          -2.8504   -6.6470   -2.5746 H       1  LIG1        0.1655
     38 H          -1.9649   -8.9766   -2.9877 H       1  LIG1        0.0845
     39 S          -4.4923   -9.0055    1.3230 S.3     1  LIG1       -0.1370
     40 H          -5.1085  -10.1068    0.8771 H       1  LIG1        0.1073
     41 O          -2.9125  -10.7757   -0.8313 O.3     1  LIG1       -0.5042
     42 H          -2.4047  -11.2090   -1.5244 H       1  LIG1        0.2923
@<TRIPOS>BOND
     1    38    35    1
     2    37    36    1
     3    35    36   ar
     4    35    34   ar
     5    36    32   ar
     6    19    18    1
     7    42    41    1
     8    11    10    1
     9    10     3    1
    10    34    41    1
    11    34    33   ar
    12    20    21    1
    13    20    14    1
    14    32    25    1
    15    32    33   ar
    16    27    26    1
    17    18    13    1
    18    26    25   ar
    19    26    22   ar
    20    25    24   ar
    21    14    13   ar
    22    14    15   ar
    23    33    39    1
    24    13    12   ar
    25    22    15    1
    26    22    23   ar
    27     3     4   ar
    28     3     2   ar
    29    15    16   ar
    30    24    30    1
    31    24    23   ar
    32    29    28    1
    33    30    31    1
    34     8     9    1
    35     8     2    1
    36    12    16   ar
    37    12     4    1
    38    23    28    1
    39    16    17    1
    40     4     5   ar
    41     2     1   ar
    42    40    39    1
    43     5     1   ar
    44     5     6    1
    45     1     7    1
