@<TRIPOS>MOLECULE
mol_data/opt/m06hf/geoms/mol2/13gf13gf13gf13gf-.out
 42 45 0 0 0
SMALL
GASTEIGER

@<TRIPOS>ATOM
      1 C           1.2147   -0.0175    0.1692 C.ar    1  LIG1        0.0191
      2 C           0.7446    1.1715   -0.3357 C.ar    1  LIG1        0.0643
      3 C          -0.6766    1.0738   -0.3796 C.ar    1  LIG1        0.1566
      4 C          -1.0221   -0.1722    0.1005 C.ar    1  LIG1        0.1072
      5 N           0.1511   -0.8263    0.4173 N.ar    1  LIG1       -0.3555
      6 H           0.1872   -1.6996    0.9166 H       1  LIG1        0.1655
      7 H           2.2271   -0.3217    0.3711 H       1  LIG1        0.0819
      8 S           1.7285    2.5131   -0.9213 S.3     1  LIG1       -0.1377
      9 H           1.1698    3.4529   -0.1505 H       1  LIG1        0.1073
     10 O          -1.4838    2.0549   -0.8429 O.3     1  LIG1       -0.5035
     11 H          -2.3228    2.0439   -0.3563 H       1  LIG1        0.2923
     12 C          -2.3277   -0.8073    0.2310 C.ar    1  LIG1        0.0840
     13 C          -3.5329   -0.2993    0.6586 C.ar    1  LIG1        0.0739
     14 C          -4.5023   -1.3363    0.5408 C.ar    1  LIG1        0.1573
     15 C          -3.8615   -2.4517    0.0476 C.ar    1  LIG1        0.1077
     16 N          -2.5280   -2.1187   -0.1139 N.ar    1  LIG1       -0.3479
     17 H          -1.9038   -2.6145   -0.7329 H       1  LIG1        0.1661
     18 S          -3.8159    1.3069    1.3319 S.3     1  LIG1       -0.1370
     19 H          -5.0171    1.4630    0.7628 H       1  LIG1        0.1073
     20 O          -5.7915   -1.1768    0.9109 O.3     1  LIG1       -0.5035
     21 H          -6.3614   -1.7328    0.3515 H       1  LIG1        0.2923
     22 C          -4.3473   -3.8027   -0.2020 C.ar    1  LIG1        0.0840
     23 C          -5.5712   -4.2686   -0.6353 C.ar    1  LIG1        0.0739
     24 C          -5.5038   -5.6917   -0.6552 C.ar    1  LIG1        0.1573
     25 C          -4.2423   -6.0558   -0.2435 C.ar    1  LIG1        0.1076
     26 N          -3.5443   -4.8893    0.0123 N.ar    1  LIG1       -0.3479
     27 H          -2.7154   -4.8502    0.5863 H       1  LIG1        0.1661
     28 S          -6.9357   -3.3015   -1.1961 S.3     1  LIG1       -0.1370
     29 H          -7.8558   -3.9072   -0.4368 H       1  LIG1        0.1073
     30 O          -6.5294   -6.4729   -1.0578 O.3     1  LIG1       -0.5035
     31 H          -6.5086   -7.3112   -0.5672 H       1  LIG1        0.2923
     32 C          -3.6199   -7.3703   -0.1353 C.ar    1  LIG1        0.0835
     33 C          -4.1229   -8.5733    0.3152 C.ar    1  LIG1        0.0732
     34 C          -3.0817   -9.5342    0.1934 C.ar    1  LIG1        0.1478
     35 C          -1.9801   -8.9003   -0.3205 C.ar    1  LIG1        0.0453
     36 N          -2.3222   -7.5809   -0.5011 N.ar    1  LIG1       -0.3555
     37 H          -1.7620   -6.8981   -0.9843 H       1  LIG1        0.1655
     38 H          -1.0023   -9.2744   -0.5681 H       1  LIG1        0.0845
     39 S          -5.7221   -8.8471    1.0097 S.3     1  LIG1       -0.1370
     40 H          -5.9761   -9.9754    0.3359 H       1  LIG1        0.1073
     41 O          -3.2608  -10.8348    0.5496 O.3     1  LIG1       -0.5042
     42 H          -2.4566  -11.3420    0.4000 H       1  LIG1        0.2923
@<TRIPOS>BOND
     1    28    23    1
     2    28    29    1
     3    30    24    1
     4    30    31    1
     5    37    36    1
     6     8     2    1
     7     8     9    1
     8    10     3    1
     9    10    11    1
    10    17    16    1
    11    24    23   ar
    12    24    25   ar
    13    23    22   ar
    14    38    35    1
    15    36    35   ar
    16    36    32   ar
    17     3     2   ar
    18     3     4   ar
    19     2     1   ar
    20    35    34   ar
    21    25    32    1
    22    25    26   ar
    23    22    26   ar
    24    22    15    1
    25    32    33   ar
    26    16    15   ar
    27    16    12   ar
    28    26    27    1
    29    15    14   ar
    30     4    12    1
    31     4     5   ar
    32     1     7    1
    33     1     5   ar
    34    34    33   ar
    35    34    41    1
    36    12    13   ar
    37    33    39    1
    38    40    39    1
    39    21    20    1
    40    42    41    1
    41     5     6    1
    42    14    13   ar
    43    14    20    1
    44    13    18    1
    45    19    18    1
