@<TRIPOS>MOLECULE
mol_data/opt/m06hf/geoms/mol2/13gf13gf.out
 22 23 0 0 0
SMALL
GASTEIGER

@<TRIPOS>ATOM
      1 C           1.1517   -0.3170    0.3971 C.ar    1  LIG1        0.0191
      2 C           0.7822    0.9115   -0.0926 C.ar    1  LIG1        0.0643
      3 C          -0.6237    0.8675   -0.3101 C.ar    1  LIG1        0.1566
      4 C          -1.0656   -0.3866    0.0504 C.ar    1  LIG1        0.1072
      5 N           0.0360   -1.0984    0.4691 N.ar    1  LIG1       -0.3555
      6 H          -0.0138   -1.9911    0.9325 H       1  LIG1        0.1655
      7 H           2.1178   -0.6769    0.7056 H       1  LIG1        0.0819
      8 S           1.8278    2.2881   -0.4526 S.3     1  LIG1       -0.1377
      9 H           0.8452    3.1837   -0.3153 H       1  LIG1        0.1073
     10 O          -1.3390    1.9112   -0.8021 O.3     1  LIG1       -0.5035
     11 H          -2.1888    1.9597   -0.3352 H       1  LIG1        0.2923
     12 C          -2.4014   -0.9728   -0.0040 C.ar    1  LIG1        0.0835
     13 C          -3.6305   -0.4417    0.3272 C.ar    1  LIG1        0.0732
     14 C          -4.6027   -1.4501    0.0822 C.ar    1  LIG1        0.1478
     15 C          -3.9502   -2.5602   -0.3879 C.ar    1  LIG1        0.0453
     16 N          -2.6094   -2.2556   -0.4191 N.ar    1  LIG1       -0.3555
     17 H          -1.8958   -2.8244   -0.8451 H       1  LIG1        0.1655
     18 H          -4.3243   -3.5199   -0.6976 H       1  LIG1        0.0845
     19 S          -3.9273    1.1451    1.0389 S.3     1  LIG1       -0.1370
     20 H          -4.9542    1.4656    0.2437 H       1  LIG1        0.1073
     21 O          -5.9290   -1.2404    0.3057 O.3     1  LIG1       -0.5042
     22 H          -6.4265   -2.0522    0.1664 H       1  LIG1        0.2923
@<TRIPOS>BOND
     1    17    16    1
     2    10    11    1
     3    10     3    1
     4    18    15    1
     5     8     9    1
     6     8     2    1
     7    16    15   ar
     8    16    12   ar
     9    15    14   ar
    10     3     2   ar
    11     3     4   ar
    12     2     1   ar
    13    12     4    1
    14    12    13   ar
    15     4     5   ar
    16    14    21    1
    17    14    13   ar
    18    22    21    1
    19    20    19    1
    20    13    19    1
    21     1     5   ar
    22     1     7    1
    23     5     6    1
