@<TRIPOS>MOLECULE
mol_data/opt/m06hf/geoms/mol2/13gf13gf13gf-.out
 32 34 0 0 0
SMALL
GASTEIGER

@<TRIPOS>ATOM
      1 C           1.2084   -0.1482    0.1626 C.ar    1  LIG1        0.0191
      2 C           0.7600    1.0001   -0.4459 C.ar    1  LIG1        0.0643
      3 C          -0.6619    0.9169   -0.4998 C.ar    1  LIG1        0.1566
      4 C          -1.0301   -0.2799    0.0782 C.ar    1  LIG1        0.1072
      5 N           0.1305   -0.9194    0.4639 N.ar    1  LIG1       -0.3555
      6 H           0.1494   -1.7491    1.0341 H       1  LIG1        0.1655
      7 H           2.2136   -0.4493    0.4011 H       1  LIG1        0.0819
      8 S           1.7685    2.2787   -1.1257 S.3     1  LIG1       -0.1377
      9 H           1.2343    3.2789   -0.4169 H       1  LIG1        0.1073
     10 O          -1.4510    1.8644   -1.0559 O.3     1  LIG1       -0.5035
     11 H          -2.2874    1.9176   -0.5673 H       1  LIG1        0.2923
     12 C          -2.3448   -0.8899    0.2377 C.ar    1  LIG1        0.0840
     13 C          -3.5531   -0.3374    0.5978 C.ar    1  LIG1        0.0739
     14 C          -4.5288   -1.3746    0.5537 C.ar    1  LIG1        0.1573
     15 C          -3.8888   -2.5325    0.1748 C.ar    1  LIG1        0.1076
     16 N          -2.5511   -2.2240    0.0046 N.ar    1  LIG1       -0.3479
     17 H          -1.9190   -2.7815   -0.5507 H       1  LIG1        0.1661
     18 S          -3.8180    1.3164    1.1517 S.3     1  LIG1       -0.1370
     19 H          -4.9875    1.4797    0.5211 H       1  LIG1        0.1073
     20 O          -5.8249   -1.1780    0.8843 O.3     1  LIG1       -0.5035
     21 H          -6.3859   -1.7767    0.3647 H       1  LIG1        0.2923
     22 C          -4.3882   -3.8951    0.0252 C.ar    1  LIG1        0.0835
     23 C          -5.5735   -4.3753   -0.4919 C.ar    1  LIG1        0.0732
     24 C          -5.5288   -5.7935   -0.3921 C.ar    1  LIG1        0.1478
     25 C          -4.3309   -6.1401    0.1765 C.ar    1  LIG1        0.0453
     26 N          -3.6434   -4.9721    0.4093 N.ar    1  LIG1       -0.3555
     27 H          -2.7882   -4.8962    0.9353 H       1  LIG1        0.1655
     28 H          -3.9229   -7.1027    0.4299 H       1  LIG1        0.0845
     29 S          -6.8588   -3.4222   -1.2364 S.3     1  LIG1       -0.1370
     30 H          -7.8656   -4.0606   -0.6307 H       1  LIG1        0.1073
     31 O          -6.5610   -6.5756   -0.8104 O.3     1  LIG1       -0.5042
     32 H          -6.3301   -7.5073   -0.7412 H       1  LIG1        0.2923
@<TRIPOS>BOND
     1    29    30    1
     2    29    23    1
     3     8     2    1
     4     8     9    1
     5    10    11    1
     6    10     3    1
     7    31    32    1
     8    31    24    1
     9    17    16    1
    10     3     2   ar
    11     3     4   ar
    12    23    24   ar
    13    23    22   ar
    14     2     1   ar
    15    24    25   ar
    16    16    15   ar
    17    16    12   ar
    18    22    15    1
    19    22    26   ar
    20     4    12    1
    21     4     5   ar
    22     1     7    1
    23     1     5   ar
    24    15    14   ar
    25    25    26   ar
    26    25    28    1
    27    12    13   ar
    28    21    20    1
    29    26    27    1
    30     5     6    1
    31    19    18    1
    32    14    13   ar
    33    14    20    1
    34    13    18    1
