@<TRIPOS>MOLECULE
mol_data/opt/m06hf/geoms/mol2/13gf13gf13gf.out
 32 34 0 0 0
SMALL
GASTEIGER

@<TRIPOS>ATOM
      1 C           1.2104   -0.1532    0.1631 C.ar    1  LIG1        0.0191
      2 C           0.7638    0.9954   -0.4464 C.ar    1  LIG1        0.0643
      3 C          -0.6581    0.9138   -0.5012 C.ar    1  LIG1        0.1566
      4 C          -1.0282   -0.2822    0.0772 C.ar    1  LIG1        0.1072
      5 N           0.1313   -0.9229    0.4641 N.ar    1  LIG1       -0.3555
      6 H           0.1488   -1.7523    1.0348 H       1  LIG1        0.1655
      7 H           2.2151   -0.4553    0.4025 H       1  LIG1        0.0819
      8 S           1.7744    2.2723   -1.1263 S.3     1  LIG1       -0.1377
      9 H           1.2409    3.2735   -0.4184 H       1  LIG1        0.1073
     10 O          -1.4457    1.8619   -1.0585 O.3     1  LIG1       -0.5035
     11 H          -2.2824    1.9165   -0.5706 H       1  LIG1        0.2923
     12 C          -2.3437   -0.8905    0.2360 C.ar    1  LIG1        0.0840
     13 C          -3.5516   -0.3363    0.5949 C.ar    1  LIG1        0.0739
     14 C          -4.5286   -1.3724    0.5507 C.ar    1  LIG1        0.1573
     15 C          -3.8897   -2.5312    0.1730 C.ar    1  LIG1        0.1076
     16 N          -2.5515   -2.2245    0.0037 N.ar    1  LIG1       -0.3479
     17 H          -1.9196   -2.7831   -0.5509 H       1  LIG1        0.1661
     18 S          -3.8150    1.3181    1.1477 S.3     1  LIG1       -0.1370
     19 H          -4.9838    1.4825    0.5160 H       1  LIG1        0.1073
     20 O          -5.8247   -1.1740    0.8802 O.3     1  LIG1       -0.5035
     21 H          -6.3860   -1.7723    0.3606 H       1  LIG1        0.2923
     22 C          -4.3906   -3.8934    0.0238 C.ar    1  LIG1        0.0835
     23 C          -5.5761   -4.3724   -0.4939 C.ar    1  LIG1        0.0732
     24 C          -5.5332   -5.7907   -0.3932 C.ar    1  LIG1        0.1478
     25 C          -4.3362   -6.1383    0.1765 C.ar    1  LIG1        0.0453
     26 N          -3.6475   -4.9710    0.4091 N.ar    1  LIG1       -0.3555
     27 H          -2.7925   -4.8958    0.9358 H       1  LIG1        0.1655
     28 H          -3.9295   -7.1013    0.4309 H       1  LIG1        0.0845
     29 S          -6.8597   -3.4183   -1.2399 S.3     1  LIG1       -0.1370
     30 H          -7.8678   -4.0551   -0.6346 H       1  LIG1        0.1073
     31 O          -6.5660   -6.5717   -0.8118 O.3     1  LIG1       -0.5042
     32 H          -6.3363   -7.5037   -0.7419 H       1  LIG1        0.2923
@<TRIPOS>BOND
     1    29    30    1
     2    29    23    1
     3     8     2    1
     4     8     9    1
     5    10    11    1
     6    10     3    1
     7    31    32    1
     8    31    24    1
     9    17    16    1
    10     3     2   ar
    11     3     4   ar
    12    23    24   ar
    13    23    22   ar
    14     2     1   ar
    15    24    25   ar
    16    16    15   ar
    17    16    12   ar
    18    22    15    1
    19    22    26   ar
    20     4    12    1
    21     4     5   ar
    22     1     7    1
    23     1     5   ar
    24    15    14   ar
    25    25    26   ar
    26    25    28    1
    27    12    13   ar
    28    21    20    1
    29    26    27    1
    30     5     6    1
    31    19    18    1
    32    14    13   ar
    33    14    20    1
    34    13    18    1
