@<TRIPOS>MOLECULE
mol_data/opt/m06hf/geoms/mol2/13gf13gf-13gf13gf.out
 42 45 0 0 0
SMALL
GASTEIGER

@<TRIPOS>ATOM
      1 C           0.7200    0.4217    1.8608 C.ar    1  LIG1        0.0191
      2 C           0.8027    1.1096    0.6745 C.ar    1  LIG1        0.0643
      3 C          -0.3661    0.7915   -0.0730 C.ar    1  LIG1        0.1566
      4 C          -1.1203   -0.0812    0.6798 C.ar    1  LIG1        0.1072
      5 N          -0.4332   -0.3057    1.8521 N.ar    1  LIG1       -0.3555
      6 H          -0.8217   -0.7773    2.6529 H       1  LIG1        0.1655
      7 H           1.3901    0.4144    2.7028 H       1  LIG1        0.0819
      8 S           2.1350    2.1291    0.1242 S.3     1  LIG1       -0.1377
      9 H           1.3535    2.9642   -0.5685 H       1  LIG1        0.1073
     10 O          -0.6284    1.2794   -1.3113 O.3     1  LIG1       -0.5035
     11 H          -1.5782    1.4671   -1.3811 H       1  LIG1        0.2923
     12 C          -2.3780   -0.7453    0.3527 C.ar    1  LIG1        0.0840
     13 C          -3.5364   -0.2413   -0.2048 C.ar    1  LIG1        0.0739
     14 C          -4.4562   -1.3161   -0.3203 C.ar    1  LIG1        0.1573
     15 C          -3.8386   -2.4497    0.1639 C.ar    1  LIG1        0.1077
     16 N          -2.5803   -2.0757    0.5807 N.ar    1  LIG1       -0.3479
     17 H          -1.8985   -2.6911    0.9953 H       1  LIG1        0.1661
     18 S          -3.8450    1.4425   -0.6376 S.3     1  LIG1       -0.1370
     19 H          -4.4147    1.1648   -1.8154 H       1  LIG1        0.1073
     20 O          -5.6901   -1.1976   -0.8673 O.3     1  LIG1       -0.5035
     21 H          -6.3197   -1.7212   -0.3455 H       1  LIG1        0.2923
     22 C          -4.3160   -3.8281    0.1920 C.ar    1  LIG1        0.0840
     23 C          -5.5419   -4.3406    0.5678 C.ar    1  LIG1        0.0739
     24 C          -5.4904   -5.7477    0.3826 C.ar    1  LIG1        0.1573
     25 C          -4.2376   -6.0593   -0.1024 C.ar    1  LIG1        0.1076
     26 N          -3.5359   -4.8789   -0.1962 N.ar    1  LIG1       -0.3479
     27 H          -2.5863   -4.7988   -0.5239 H       1  LIG1        0.1661
     28 S          -6.8996   -3.4224    1.2223 S.3     1  LIG1       -0.1370
     29 H          -7.8392   -4.0356    0.4947 H       1  LIG1        0.1073
     30 O          -6.5372   -6.5764    0.6122 O.3     1  LIG1       -0.5035
     31 H          -6.2125   -7.3933    1.0251 H       1  LIG1        0.2923
     32 C          -3.6880   -7.3433   -0.5268 C.ar    1  LIG1        0.0835
     33 C          -3.7750   -8.5882    0.0596 C.ar    1  LIG1        0.0732
     34 C          -3.0755   -9.4966   -0.7812 C.ar    1  LIG1        0.1478
     35 C          -2.5838   -8.7894   -1.8484 C.ar    1  LIG1        0.0453
     36 N          -2.9547   -7.4781   -1.6700 N.ar    1  LIG1       -0.3555
     37 H          -2.8614   -6.7530   -2.3638 H       1  LIG1        0.1655
     38 H          -2.0128   -9.1081   -2.7026 H       1  LIG1        0.0845
     39 S          -4.5196   -8.9546    1.6176 S.3     1  LIG1       -0.1370
     40 H          -5.1467  -10.0670    1.2165 H       1  LIG1        0.1073
     41 O          -2.9781  -10.8208   -0.4846 O.3     1  LIG1       -0.5042
     42 H          -2.4831  -11.2849   -1.1671 H       1  LIG1        0.2923
@<TRIPOS>BOND
     1    38    35    1
     2    37    36    1
     3    35    36   ar
     4    35    34   ar
     5    19    18    1
     6    36    32   ar
     7    11    10    1
     8    10     3    1
     9    42    41    1
    10    20    21    1
    11    20    14    1
    12    34    41    1
    13    34    33   ar
    14    18    13    1
    15     9     8    1
    16    32    25    1
    17    32    33   ar
    18    27    26    1
    19    14    13   ar
    20    14    15   ar
    21    13    12   ar
    22    26    25   ar
    23    26    22   ar
    24    25    24   ar
    25     3     2   ar
    26     3     4   ar
    27    33    39    1
    28     8     2    1
    29    15    22    1
    30    15    16   ar
    31    22    23   ar
    32    12    16   ar
    33    12     4    1
    34    24    23   ar
    35    24    30    1
    36    29    28    1
    37    23    28    1
    38    16    17    1
    39    30    31    1
    40     2     1   ar
    41     4     5   ar
    42    40    39    1
    43     5     1   ar
    44     5     6    1
    45     1     7    1
