@<TRIPOS>MOLECULE
mol_data/opt/m06hf/geoms/mol2/13gg13gg.out
 22 23 0 0 0
SMALL
GASTEIGER

@<TRIPOS>ATOM
      1 C           0.4019    0.6988    1.3240 C.ar    1  LIG1        0.0165
      2 C           0.6675    0.9987    0.0109 C.ar    1  LIG1        0.0359
      3 C          -0.4127    0.4786   -0.7629 C.ar    1  LIG1        0.0447
      4 C          -1.2932   -0.1303    0.1177 C.ar    1  LIG1        0.0784
      5 N          -0.7768    0.0235    1.3698 N.ar    1  LIG1       -0.3576
      6 H          -1.2333   -0.3424    2.1969 H       1  LIG1        0.1654
      7 H           0.9705    0.9204    2.2100 H       1  LIG1        0.0818
      8 S           2.0360    1.9610   -0.5557 S.3     1  LIG1       -0.1401
      9 H           2.6025    1.0100   -1.3097 H       1  LIG1        0.1072
     10 S          -0.5155    0.5250   -2.5279 S.3     1  LIG1       -0.1395
     11 H          -0.8441    1.8171   -2.6557 H       1  LIG1        0.1072
     12 C          -2.5606   -0.8362   -0.1018 C.ar    1  LIG1        0.0784
     13 C          -3.4537   -1.4266    0.7788 C.ar    1  LIG1        0.0447
     14 C          -4.5245   -1.9610   -0.0004 C.ar    1  LIG1        0.0359
     15 C          -4.2440   -1.6778   -1.3147 C.ar    1  LIG1        0.0165
     16 N          -3.0629   -1.0089   -1.3578 N.ar    1  LIG1       -0.3576
     17 H          -2.5909   -0.6681   -2.1869 H       1  LIG1        0.1654
     18 H          -4.8024   -1.9143   -2.2034 H       1  LIG1        0.0818
     19 S          -3.2952   -1.5613    2.5358 S.3     1  LIG1       -0.1395
     20 H          -4.1558   -0.5875    2.8632 H       1  LIG1        0.1072
     21 S          -5.9113   -2.9017    0.5571 S.3     1  LIG1       -0.1401
     22 H          -6.6165   -1.8854    1.0710 H       1  LIG1        0.1072
@<TRIPOS>BOND
     1    11    10    1
     2    10     3    1
     3    18    15    1
     4    17    16    1
     5    16    15   ar
     6    16    12   ar
     7    15    14   ar
     8     9     8    1
     9     3     2   ar
    10     3     4   ar
    11     8     2    1
    12    12     4    1
    13    12    13   ar
    14    14    21    1
    15    14    13   ar
    16     2     1   ar
    17     4     5   ar
    18    21    22    1
    19    13    19    1
    20     1     5   ar
    21     1     7    1
    22     5     6    1
    23    19    20    1
