@<TRIPOS>MOLECULE
mol_data/opt/m06hf/geoms/mol2/13gg13gg-.out
 22 23 0 0 0
SMALL
GASTEIGER

@<TRIPOS>ATOM
      1 C           1.0633   -0.1466   -0.8429 C.ar    1  LIG1        0.0165
      2 C           0.7674    0.9260   -0.0363 C.ar    1  LIG1        0.0359
      3 C          -0.5657    0.7374    0.4376 C.ar    1  LIG1        0.0447
      4 C          -1.0267   -0.4484   -0.1002 C.ar    1  LIG1        0.0784
      5 N          -0.0285   -0.9657   -0.8709 N.ar    1  LIG1       -0.3576
      6 H          -0.1301   -1.7880   -1.4452 H       1  LIG1        0.1654
      7 H           1.9582   -0.3743   -1.3953 H       1  LIG1        0.0818
      8 S           1.8690    2.2566    0.3425 S.3     1  LIG1       -0.1401
      9 H           0.9322    2.9830    0.9653 H       1  LIG1        0.1072
     10 S          -1.4453    1.7754    1.5654 S.3     1  LIG1       -0.1395
     11 H          -2.3228    2.2729    0.6843 H       1  LIG1        0.1072
     12 C          -2.3392   -1.0858    0.0348 C.ar    1  LIG1        0.0784
     13 C          -3.5669   -0.6628   -0.4170 C.ar    1  LIG1        0.0447
     14 C          -4.5276   -1.6312    0.0039 C.ar    1  LIG1        0.0359
     15 C          -3.8408   -2.6130    0.6837 C.ar    1  LIG1        0.0165
     16 N          -2.5293   -2.2750    0.6968 N.ar    1  LIG1       -0.3576
     17 H          -1.7972   -2.7686    1.1835 H       1  LIG1        0.1654
     18 H          -4.2119   -3.5106    1.1475 H       1  LIG1        0.0818
     19 S          -3.8296    0.8071   -1.3558 S.3     1  LIG1       -0.1395
     20 H          -5.1273    0.5556   -1.5656 H       1  LIG1        0.1072
     21 S          -6.2569   -1.6486   -0.3568 S.3     1  LIG1       -0.1401
     22 H          -6.6594   -0.8632    0.6497 H       1  LIG1        0.1072
@<TRIPOS>BOND
     1    20    19    1
     2     6     5    1
     3     7     1    1
     4    19    13    1
     5     5     1   ar
     6     5     4   ar
     7     1     2   ar
     8    13    14   ar
     9    13    12   ar
    10    21    14    1
    11    21    22    1
    12     4    12    1
    13     4     3   ar
    14     2     8    1
    15     2     3   ar
    16    14    15   ar
    17    12    16   ar
    18     8     9    1
    19     3    10    1
    20    15    16   ar
    21    15    18    1
    22    11    10    1
    23    16    17    1
