@<TRIPOS>MOLECULE
mol_data/opt/m06hf/geoms/mol2/13gg13gg-13gg.out
 32 34 0 0 0
SMALL
GASTEIGER

@<TRIPOS>ATOM
      1 C           0.8719   -0.0573   -1.4514 C.ar    1  LIG1        0.0165
      2 C           0.8858    0.8451   -0.4082 C.ar    1  LIG1        0.0359
      3 C          -0.3776    0.7474    0.2614 C.ar    1  LIG1        0.0447
      4 C          -1.1259   -0.2181   -0.4033 C.ar    1  LIG1        0.0784
      5 N          -0.3337   -0.7106   -1.4281 N.ar    1  LIG1       -0.3576
      6 H          -0.6826   -1.2973   -2.1706 H       1  LIG1        0.1654
      7 H           1.6220   -0.2707   -2.1972 H       1  LIG1        0.0818
      8 S           2.2956    1.8210    0.0470 S.3     1  LIG1       -0.1401
      9 H           1.6197    2.9601    0.3056 H       1  LIG1        0.1072
     10 S          -0.8221    1.6502    1.7218 S.3     1  LIG1       -0.1395
     11 H          -2.0200    2.0865    1.2660 H       1  LIG1        0.1072
     12 C          -2.4477   -0.7776   -0.1585 C.ar    1  LIG1        0.0789
     13 C          -3.7146   -0.2047   -0.0537 C.ar    1  LIG1        0.0454
     14 C          -4.6567   -1.2605    0.1307 C.ar    1  LIG1        0.0454
     15 C          -3.9548   -2.4598    0.1408 C.ar    1  LIG1        0.0789
     16 N          -2.6197   -2.1375   -0.0509 N.ar    1  LIG1       -0.3501
     17 H          -1.8672   -2.8088   -0.0624 H       1  LIG1        0.1661
     18 S          -4.0848    1.5168   -0.2715 S.3     1  LIG1       -0.1395
     19 H          -4.7774    1.6913    0.8766 H       1  LIG1        0.1072
     20 S          -6.3965   -1.0033    0.3328 S.3     1  LIG1       -0.1395
     21 H          -6.6906   -2.3005    0.5545 H       1  LIG1        0.1072
     22 C          -4.3919   -3.8332    0.3519 C.ar    1  LIG1        0.0784
     23 C          -5.1705   -4.6844   -0.4218 C.ar    1  LIG1        0.0447
     24 C          -5.2678   -5.9346    0.2751 C.ar    1  LIG1        0.0359
     25 C          -4.5304   -5.8131    1.4393 C.ar    1  LIG1        0.0165
     26 N          -4.0068   -4.5568    1.4779 N.ar    1  LIG1       -0.3576
     27 H          -3.5052   -4.1557    2.2554 H       1  LIG1        0.1654
     28 H          -4.3539   -6.5355    2.2217 H       1  LIG1        0.0818
     29 S          -5.8795   -4.2707   -1.9899 S.3     1  LIG1       -0.1395
     30 H          -6.1892   -5.5496   -2.2975 H       1  LIG1        0.1072
     31 S          -6.0421   -7.4262   -0.2897 S.3     1  LIG1       -0.1401
     32 H          -7.3220   -7.1268    0.0316 H       1  LIG1        0.1072
@<TRIPOS>BOND
     1    30    29    1
     2     7     1    1
     3     6     5    1
     4    29    23    1
     5     1     5   ar
     6     1     2   ar
     7     5     4   ar
     8    23    24   ar
     9    23    22   ar
    10     2     8    1
    11     2     3   ar
    12     4    12    1
    13     4     3   ar
    14    31    32    1
    15    31    24    1
    16    18    13    1
    17    18    19    1
    18    12    13   ar
    19    12    16   ar
    20    17    16    1
    21    13    14   ar
    22    16    15   ar
    23     8     9    1
    24    14    15   ar
    25    14    20    1
    26    15    22    1
    27     3    10    1
    28    24    25   ar
    29    20    21    1
    30    22    26   ar
    31    11    10    1
    32    25    26   ar
    33    25    28    1
    34    26    27    1
