@<TRIPOS>MOLECULE
mol_data/opt/m06hf/geoms/mol2/13gg13gg13gg.out
 32 34 0 0 0
SMALL
GASTEIGER

@<TRIPOS>ATOM
      1 C           1.1971    0.1912    0.4064 C.ar    1  LIG1        0.0165
      2 C           0.7313    1.0163   -0.5902 C.ar    1  LIG1        0.0359
      3 C          -0.6487    0.7078   -0.7847 C.ar    1  LIG1        0.0447
      4 C          -0.9671   -0.2939    0.1076 C.ar    1  LIG1        0.0784
      5 N           0.1662   -0.5948    0.8176 N.ar    1  LIG1       -0.3576
      6 H           0.1929   -1.2438    1.5879 H       1  LIG1        0.1654
      7 H           2.1792    0.1272    0.8420 H       1  LIG1        0.0818
      8 S           1.7267    2.1650   -1.4925 S.3     1  LIG1       -0.1401
      9 H           1.0313    3.2576   -1.1578 H       1  LIG1        0.1072
     10 S          -1.7232    1.4409   -1.9822 S.3     1  LIG1       -0.1395
     11 H          -2.6654    1.8140   -1.1033 H       1  LIG1        0.1072
     12 C          -2.2477   -0.9667    0.3444 C.ar    1  LIG1        0.0789
     13 C          -3.4374   -0.4569    0.8163 C.ar    1  LIG1        0.0454
     14 C          -4.3825   -1.5229    0.8304 C.ar    1  LIG1        0.0454
     15 C          -3.7302   -2.6493    0.3655 C.ar    1  LIG1        0.0789
     16 N          -2.4439   -2.2975    0.0816 N.ar    1  LIG1       -0.3501
     17 H          -1.7917   -2.8752   -0.4283 H       1  LIG1        0.1661
     18 S          -3.6655    1.2107    1.3508 S.3     1  LIG1       -0.1395
     19 H          -5.0011    1.1362    1.3419 H       1  LIG1        0.1072
     20 S          -6.0442   -1.4303    1.4237 S.3     1  LIG1       -0.1395
     21 H          -6.6449   -1.7411    0.2643 H       1  LIG1        0.1072
     22 C          -4.2568   -3.9987    0.1458 C.ar    1  LIG1        0.0784
     23 C          -5.2392   -4.4229   -0.7180 C.ar    1  LIG1        0.0447
     24 C          -5.4078   -5.8248   -0.5091 C.ar    1  LIG1        0.0359
     25 C          -4.5063   -6.1996    0.4621 C.ar    1  LIG1        0.0165
     26 N          -3.8186   -5.0973    0.8459 N.ar    1  LIG1       -0.3576
     27 H          -3.1433   -5.0554    1.5927 H       1  LIG1        0.1654
     28 H          -4.3273   -7.1710    0.8901 H       1  LIG1        0.0818
     29 S          -6.0646   -3.3793   -1.8763 S.3     1  LIG1       -0.1395
     30 H          -6.9079   -4.3355   -2.2861 H       1  LIG1        0.1072
     31 S          -6.5037   -6.9116   -1.3675 S.3     1  LIG1       -0.1401
     32 H          -7.5935   -6.6702   -0.6277 H       1  LIG1        0.1072
@<TRIPOS>BOND
     1    30    29    1
     2    10    11    1
     3    10     3    1
     4    29    23    1
     5     8     9    1
     6     8     2    1
     7    31    32    1
     8    31    24    1
     9     3     2   ar
    10     3     4   ar
    11    23    24   ar
    12    23    22   ar
    13     2     1   ar
    14    24    25   ar
    15    17    16    1
    16    16    12   ar
    17    16    15   ar
    18     4    12    1
    19     4     5   ar
    20    22    15    1
    21    22    26   ar
    22    21    20    1
    23    12    13   ar
    24    15    14   ar
    25     1     5   ar
    26     1     7    1
    27    25    26   ar
    28    25    28    1
    29    13    14   ar
    30    13    18    1
    31     5     6    1
    32    14    20    1
    33    26    27    1
    34    19    18    1
