@<TRIPOS>MOLECULE
mol_data/opt/m06hf/geoms/mol2/13gg13gg13gg-.out
 32 34 0 0 0
SMALL
GASTEIGER

@<TRIPOS>ATOM
      1 C           0.8714   -0.0127    1.5064 C.ar    1  LIG1        0.0165
      2 C           0.9178    0.7339    0.3533 C.ar    1  LIG1        0.0359
      3 C          -0.3210    0.5344   -0.3285 C.ar    1  LIG1        0.0447
      4 C          -1.0713   -0.3271    0.4413 C.ar    1  LIG1        0.0784
      5 N          -0.3303   -0.6510    1.5455 N.ar    1  LIG1       -0.3576
      6 H          -0.6727   -1.2112    2.3111 H       1  LIG1        0.1654
      7 H           1.6034   -0.1190    2.2880 H       1  LIG1        0.0818
      8 S           2.3220    1.6642   -0.1833 S.3     1  LIG1       -0.1401
      9 H           1.6880    2.8379   -0.2965 H       1  LIG1        0.1072
     10 S          -0.7880    1.2259   -1.8856 S.3     1  LIG1       -0.1395
     11 H          -1.7895    1.9813   -1.4110 H       1  LIG1        0.1072
     12 C          -2.4197   -0.8648    0.2287 C.ar    1  LIG1        0.0789
     13 C          -3.6496   -0.2340    0.2289 C.ar    1  LIG1        0.0454
     14 C          -4.6385   -1.2320    0.0099 C.ar    1  LIG1        0.0454
     15 C          -3.9794   -2.4354   -0.1351 C.ar    1  LIG1        0.0789
     16 N          -2.6390   -2.1908    0.0191 N.ar    1  LIG1       -0.3501
     17 H          -1.9149   -2.8906   -0.0476 H       1  LIG1        0.1661
     18 S          -3.9107    1.4891    0.5169 S.3     1  LIG1       -0.1395
     19 H          -4.5768    1.7185   -0.6227 H       1  LIG1        0.1072
     20 S          -6.3723   -0.9252   -0.0702 S.3     1  LIG1       -0.1395
     21 H          -6.7123   -2.2197   -0.0743 H       1  LIG1        0.1072
     22 C          -4.5052   -3.7662   -0.4554 C.ar    1  LIG1        0.0784
     23 C          -5.2312   -4.6577    0.3030 C.ar    1  LIG1        0.0447
     24 C          -5.4926   -5.7956   -0.5192 C.ar    1  LIG1        0.0359
     25 C          -4.9236   -5.5469   -1.7487 C.ar    1  LIG1        0.0165
     26 N          -4.3297   -4.3313   -1.6973 N.ar    1  LIG1       -0.3576
     27 H          -3.8810   -3.8572   -2.4665 H       1  LIG1        0.1654
     28 H          -4.9181   -6.1560   -2.6361 H       1  LIG1        0.0818
     29 S          -5.6823   -4.4090    1.9900 S.3     1  LIG1       -0.1395
     30 H          -6.6407   -5.3448    1.9689 H       1  LIG1        0.1072
     31 S          -6.4453   -7.2220   -0.0996 S.3     1  LIG1       -0.1401
     32 H          -5.5041   -7.8579    0.6090 H       1  LIG1        0.1072
@<TRIPOS>BOND
     1    28    25    1
     2    27    26    1
     3    10    11    1
     4    10     3    1
     5    25    26   ar
     6    25    24   ar
     7    26    22   ar
     8    19    18    1
     9    24    31    1
    10    24    23   ar
    11    22    15    1
    12    22    23   ar
    13     3     2   ar
    14     3     4   ar
    15     9     8    1
    16     8     2    1
    17    15    14   ar
    18    15    16   ar
    19    31    32    1
    20    21    20    1
    21    20    14    1
    22    17    16    1
    23    14    13   ar
    24    16    12   ar
    25    12    13   ar
    26    12     4    1
    27    13    18    1
    28    23    29    1
    29     2     1   ar
    30     4     5   ar
    31     1     5   ar
    32     1     7    1
    33     5     6    1
    34    30    29    1
