@<TRIPOS>MOLECULE
mol_data/opt/m06hf/geoms/mol2/13gg.out
 12 12 0 0 0
SMALL
GASTEIGER

@<TRIPOS>ATOM
      1 C           1.1187   -0.4326   -0.0001 C.ar    1  LIG1        0.0160
      2 C           0.7054    0.8767    0.0001 C.ar    1  LIG1        0.0352
      3 C          -0.7215    0.8649    0.0004 C.ar    1  LIG1        0.0352
      4 C          -1.1174   -0.4496    0.0003 C.ar    1  LIG1        0.0160
      5 N           0.0067   -1.2223   -0.0000 N.ar    1  LIG1       -0.3651
      6 H           0.0146   -2.2288   -0.0002 H       1  LIG1        0.1648
      7 H          -2.1028   -0.8813    0.0004 H       1  LIG1        0.0818
      8 H           2.1115   -0.8470   -0.0003 H       1  LIG1        0.0818
      9 S           1.7953    2.2754    0.0002 S.3     1  LIG1       -0.1401
     10 H           0.8311    3.1990   -0.0002 H       1  LIG1        0.1072
     11 S          -1.7222    2.3273    0.0007 S.3     1  LIG1       -0.1401
     12 H          -2.8975    1.6936    0.0007 H       1  LIG1        0.1072
@<TRIPOS>BOND
     1     8     1    1
     2    10     9    1
     3     6     5    1
     4     1     5   ar
     5     1     2   ar
     6     5     4   ar
     7     2     9    1
     8     2     3   ar
     9     4     7    1
    10     4     3   ar
    11     3    11    1
    12    11    12    1
