@<TRIPOS>MOLECULE
mol_data/opt/m06hf/geoms/mol2/13gh13gh13gh.out
 35 37 0 0 0
SMALL
GASTEIGER

@<TRIPOS>ATOM
      1 C           0.8304   -0.0705    1.2702 C.ar    1  LIG1        0.0173
      2 C           0.7824    0.9210    0.3181 C.ar    1  LIG1        0.0434
      3 C          -0.5110    0.8759   -0.2908 C.ar    1  LIG1        0.0650
      4 C          -1.2034   -0.1476    0.3217 C.ar    1  LIG1        0.0860
      5 N          -0.3620   -0.7117    1.2668 N.ar    1  LIG1       -0.3570
      6 H          -0.6608   -1.3945    1.9449 H       1  LIG1        0.1655
      7 H           1.6292   -0.3388    1.9403 H       1  LIG1        0.0819
      8 S           2.1084    1.9868   -0.1498 S.3     1  LIG1       -0.1394
      9 H           1.6727    3.0896    0.4733 H       1  LIG1        0.1072
     10 N          -0.9440    1.7507   -1.2840 N.pl3   1  LIG1       -0.3554
     11 H          -0.2362    1.9302   -1.9860 H       1  LIG1        0.1424
     12 H          -1.8402    1.5028   -1.6812 H       1  LIG1        0.1424
     13 C          -2.5214   -0.7248    0.0602 C.ar    1  LIG1        0.0804
     14 C          -3.7810   -0.1558   -0.0655 C.ar    1  LIG1        0.0529
     15 C          -4.7151   -1.2147   -0.2751 C.ar    1  LIG1        0.0657
     16 C          -4.0004   -2.3930   -0.2655 C.ar    1  LIG1        0.0865
     17 N          -2.6741   -2.0691   -0.0605 N.ar    1  LIG1       -0.3494
     18 H          -1.9176   -2.7352   -0.0301 H       1  LIG1        0.1661
     19 S          -4.1916    1.5587   -0.0209 S.3     1  LIG1       -0.1388
     20 H          -4.2810    1.6993    1.3081 H       1  LIG1        0.1072
     21 N          -6.0948   -1.0727   -0.4012 N.pl3   1  LIG1       -0.3554
     22 H          -6.3692   -0.1544   -0.7259 H       1  LIG1        0.1424
     23 H          -6.5338   -1.8207   -0.9229 H       1  LIG1        0.1424
     24 C          -4.4622   -3.7651   -0.4578 C.ar    1  LIG1        0.0799
     25 C          -5.4391   -4.4818    0.2057 C.ar    1  LIG1        0.0522
     26 C          -5.5268   -5.7670   -0.4112 C.ar    1  LIG1        0.0561
     27 C          -4.5904   -5.7949   -1.4159 C.ar    1  LIG1        0.0241
     28 N          -3.9556   -4.5762   -1.4312 N.ar    1  LIG1       -0.3570
     29 H          -3.3047   -4.2664   -2.1343 H       1  LIG1        0.1655
     30 H          -4.3262   -6.5797   -2.1026 H       1  LIG1        0.0826
     31 S          -6.4119   -3.9209    1.5677 S.3     1  LIG1       -0.1388
     32 H          -6.0268   -4.8893    2.4117 H       1  LIG1        0.1072
     33 N          -6.3662   -6.7978    0.0450 N.pl3   1  LIG1       -0.3560
     34 H          -7.2656   -6.4330    0.3412 H       1  LIG1        0.1424
     35 H          -6.4932   -7.5339   -0.6382 H       1  LIG1        0.1424
@<TRIPOS>BOND
     1    29    28    1
     2    30    27    1
     3    11    10    1
     4    12    10    1
     5    28    27   ar
     6    28    24   ar
     7    27    26   ar
     8    10     3    1
     9    23    21    1
    10    22    21    1
    11    35    33    1
    12    24    16    1
    13    24    25   ar
    14    26    33    1
    15    26    25   ar
    16    21    15    1
    17     3     2   ar
    18     3     4   ar
    19    15    16   ar
    20    15    14   ar
    21    16    17   ar
    22     8     2    1
    23     8     9    1
    24    14    19    1
    25    14    13   ar
    26    17    18    1
    27    17    13   ar
    28    19    20    1
    29    33    34    1
    30    13     4    1
    31    25    31    1
    32     2     1   ar
    33     4     5   ar
    34     5     1   ar
    35     5     6    1
    36     1     7    1
    37    31    32    1
