@<TRIPOS>MOLECULE
mol_data/opt/m06hf/geoms/mol2/13gh13gh13gh13gh.out
 46 49 0 0 0
SMALL
GASTEIGER

@<TRIPOS>ATOM
      1 C           0.4042    0.5436    2.1375 C.ar    1  LIG1        0.0173
      2 C           0.6979    1.1110    0.9177 C.ar    1  LIG1        0.0434
      3 C          -0.3415    0.7423    0.0099 C.ar    1  LIG1        0.0650
      4 C          -1.2334   -0.0320    0.7185 C.ar    1  LIG1        0.0860
      5 N          -0.7522   -0.1475    2.0109 N.ar    1  LIG1       -0.3570
      6 H          -1.2699   -0.5675    2.7660 H       1  LIG1        0.1655
      7 H           0.9442    0.6011    3.0667 H       1  LIG1        0.0819
      8 S           2.1405    2.0453    0.5147 S.3     1  LIG1       -0.1394
      9 H           1.5670    3.2559    0.5062 H       1  LIG1        0.1072
     10 N          -0.4238    1.1416   -1.3235 N.pl3   1  LIG1       -0.3554
     11 H           0.4884    1.2418   -1.7528 H       1  LIG1        0.1424
     12 H          -1.0444    0.5626   -1.8754 H       1  LIG1        0.1424
     13 C          -2.4585   -0.6944    0.2765 C.ar    1  LIG1        0.0804
     14 C          -3.5869   -0.1822   -0.3418 C.ar    1  LIG1        0.0529
     15 C          -4.4842   -1.2659   -0.5700 C.ar    1  LIG1        0.0657
     16 C          -3.8839   -2.4020   -0.0699 C.ar    1  LIG1        0.0865
     17 N          -2.6521   -2.0329    0.4308 N.ar    1  LIG1       -0.3494
     18 H          -1.9885   -2.6596    0.8575 H       1  LIG1        0.1661
     19 S          -3.8754    1.5030   -0.7820 S.3     1  LIG1       -0.1388
     20 H          -4.8947    1.7033    0.0654 H       1  LIG1        0.1072
     21 N          -5.7583   -1.1522   -1.1269 N.pl3   1  LIG1       -0.3554
     22 H          -5.8131   -0.4109   -1.8159 H       1  LIG1        0.1424
     23 H          -6.1226   -2.0292   -1.4801 H       1  LIG1        0.1424
     24 C          -4.3950   -3.7677   -0.0347 C.ar    1  LIG1        0.0804
     25 C          -5.6076   -4.2436    0.4218 C.ar    1  LIG1        0.0529
     26 C          -5.6234   -5.6553    0.2224 C.ar    1  LIG1        0.0657
     27 C          -4.4109   -6.0001   -0.3399 C.ar    1  LIG1        0.0865
     28 N          -3.6826   -4.8434   -0.4920 N.ar    1  LIG1       -0.3494
     29 H          -2.7507   -4.7978   -0.8726 H       1  LIG1        0.1661
     30 S          -6.9122   -3.3061    1.1521 S.3     1  LIG1       -0.1388
     31 H          -7.2991   -4.3207    1.9409 H       1  LIG1        0.1072
     32 N          -6.6935   -6.4791    0.6157 N.pl3   1  LIG1       -0.3554
     33 H          -7.5228   -6.3246    0.0510 H       1  LIG1        0.1424
     34 H          -6.4400   -7.4596    0.6288 H       1  LIG1        0.1424
     35 C          -3.8935   -7.2877   -0.8083 C.ar    1  LIG1        0.0799
     36 C          -3.7810   -8.5216   -0.1910 C.ar    1  LIG1        0.0522
     37 C          -3.1793   -9.4221   -1.1243 C.ar    1  LIG1        0.0561
     38 C          -2.9405   -8.7055   -2.2719 C.ar    1  LIG1        0.0241
     39 N          -3.3791   -7.4200   -2.0609 N.ar    1  LIG1       -0.3570
     40 H          -3.4298   -6.6991   -2.7629 H       1  LIG1        0.1655
     41 H          -2.4924   -9.0060   -3.2019 H       1  LIG1        0.0826
     42 S          -4.3051   -8.9543    1.4372 S.3     1  LIG1       -0.1388
     43 H          -3.1934   -8.6101    2.0988 H       1  LIG1        0.1072
     44 N          -2.8404  -10.7571   -0.8554 N.pl3   1  LIG1       -0.3560
     45 H          -3.2988  -11.0869   -0.0133 H       1  LIG1        0.1424
     46 H          -3.0328  -11.3793   -1.6303 H       1  LIG1        0.1424
@<TRIPOS>BOND
     1    41    38    1
     2    40    39    1
     3    38    39   ar
     4    38    37   ar
     5    39    35   ar
     6    12    10    1
     7    22    21    1
     8    11    10    1
     9    46    44    1
    10    23    21    1
    11    10     3    1
    12    21    15    1
    13    37    44    1
    14    37    36   ar
    15    29    28    1
    16    44    45    1
    17    35    27    1
    18    35    36   ar
    19    19    14    1
    20    19    20    1
    21    15    14   ar
    22    15    16   ar
    23    28    27   ar
    24    28    24   ar
    25    14    13   ar
    26    27    26   ar
    27    36    42    1
    28    16    24    1
    29    16    17   ar
    30    24    25   ar
    31     3     4   ar
    32     3     2   ar
    33    33    32    1
    34    26    25   ar
    35    26    32    1
    36    13    17   ar
    37    13     4    1
    38    25    30    1
    39    17    18    1
    40     9     8    1
    41     8     2    1
    42    32    34    1
    43     4     5   ar
    44     2     1   ar
    45    30    31    1
    46    42    43    1
    47     5     1   ar
    48     5     6    1
    49     1     7    1
