@<TRIPOS>MOLECULE
mol_data/opt/m06hf/geoms/mol2/13gh13gh-13gh-.out
 35 37 0 0 0
SMALL
GASTEIGER

@<TRIPOS>ATOM
      1 C           0.8240    0.1043    1.3775 C.ar    1  LIG1        0.0173
      2 C           0.7861    0.9535    0.2942 C.ar    1  LIG1        0.0434
      3 C          -0.4872    0.7929   -0.3341 C.ar    1  LIG1        0.0650
      4 C          -1.1768   -0.1494    0.3971 C.ar    1  LIG1        0.0860
      5 N          -0.3541   -0.5587    1.4320 N.ar    1  LIG1       -0.3570
      6 H          -0.6514   -1.1658    2.1790 H       1  LIG1        0.1655
      7 H           1.6092   -0.0526    2.0969 H       1  LIG1        0.0819
      8 S           2.1100    1.9621   -0.2903 S.3     1  LIG1       -0.1394
      9 H           1.6469    3.1400    0.1453 H       1  LIG1        0.1072
     10 N          -0.9235    1.5006   -1.4530 N.pl3   1  LIG1       -0.3554
     11 H          -0.1803    1.6694   -2.1203 H       1  LIG1        0.1424
     12 H          -1.7457    1.0979   -1.8842 H       1  LIG1        0.1424
     13 C          -2.4941   -0.7427    0.1693 C.ar    1  LIG1        0.0804
     14 C          -3.7475   -0.1620    0.0528 C.ar    1  LIG1        0.0529
     15 C          -4.6886   -1.2077   -0.1825 C.ar    1  LIG1        0.0657
     16 C          -3.9829   -2.3923   -0.1909 C.ar    1  LIG1        0.0865
     17 N          -2.6546   -2.0840    0.0194 N.ar    1  LIG1       -0.3494
     18 H          -1.9047   -2.7569    0.0532 H       1  LIG1        0.1661
     19 S          -4.1206    1.5602    0.1340 S.3     1  LIG1       -0.1388
     20 H          -4.6387    1.5664    1.3689 H       1  LIG1        0.1072
     21 N          -6.0664   -1.0412   -0.3128 N.pl3   1  LIG1       -0.3554
     22 H          -6.3121   -0.1458   -0.7184 H       1  LIG1        0.1424
     23 H          -6.5205   -1.8150   -0.7819 H       1  LIG1        0.1424
     24 C          -4.4569   -3.7551   -0.4203 C.ar    1  LIG1        0.0799
     25 C          -5.4404   -4.4821    0.2225 C.ar    1  LIG1        0.0522
     26 C          -5.5447   -5.7455   -0.4358 C.ar    1  LIG1        0.0561
     27 C          -4.6125   -5.7499   -1.4451 C.ar    1  LIG1        0.0241
     28 N          -3.9641   -4.5386   -1.4221 N.ar    1  LIG1       -0.3570
     29 H          -3.3121   -4.2122   -2.1168 H       1  LIG1        0.1655
     30 H          -4.3599   -6.5141   -2.1588 H       1  LIG1        0.0826
     31 S          -6.3986   -3.9550    1.6087 S.3     1  LIG1       -0.1388
     32 H          -6.0069   -4.9442    2.4244 H       1  LIG1        0.1072
     33 N          -6.3938   -6.7817   -0.0117 N.pl3   1  LIG1       -0.3560
     34 H          -7.2837   -6.4168    0.3113 H       1  LIG1        0.1424
     35 H          -6.5400   -7.4876   -0.7223 H       1  LIG1        0.1424
@<TRIPOS>BOND
     1    30    27    1
     2    11    10    1
     3    29    28    1
     4    12    10    1
     5    10     3    1
     6    27    28   ar
     7    27    26   ar
     8    28    24   ar
     9    23    21    1
    10    35    33    1
    11    22    21    1
    12    26    33    1
    13    26    25   ar
    14    24    16    1
    15    24    25   ar
    16     3     2   ar
    17     3     4   ar
    18    21    15    1
    19     8     9    1
    20     8     2    1
    21    16    15   ar
    22    16    17   ar
    23    15    14   ar
    24    33    34    1
    25    17    18    1
    26    17    13   ar
    27    14    19    1
    28    14    13   ar
    29    19    20    1
    30    13     4    1
    31    25    31    1
    32     2     1   ar
    33     4     5   ar
    34     1     5   ar
    35     1     7    1
    36     5     6    1
    37    31    32    1
