@<TRIPOS>MOLECULE
mol_data/opt/m06hf/geoms/mol2/13gh13gh-13gh.out
 35 37 0 0 0
SMALL
GASTEIGER

@<TRIPOS>ATOM
      1 C           0.8407    0.1005    1.3358 C.ar    1  LIG1        0.0173
      2 C           0.7870    0.9572    0.2590 C.ar    1  LIG1        0.0434
      3 C          -0.4943    0.7988   -0.3535 C.ar    1  LIG1        0.0650
      4 C          -1.1726   -0.1497    0.3803 C.ar    1  LIG1        0.0860
      5 N          -0.3356   -0.5648    1.4013 N.ar    1  LIG1       -0.3570
      6 H          -0.6216   -1.1782    2.1474 H       1  LIG1        0.1655
      7 H           1.6356   -0.0600    2.0436 H       1  LIG1        0.0819
      8 S           2.1012    1.9724   -0.3358 S.3     1  LIG1       -0.1394
      9 H           1.6415    3.1464    0.1141 H       1  LIG1        0.1072
     10 N          -0.9465    1.5135   -1.4615 N.pl3   1  LIG1       -0.3554
     11 H          -0.2126    1.6879   -2.1376 H       1  LIG1        0.1424
     12 H          -1.7739    1.1126   -1.8844 H       1  LIG1        0.1424
     13 C          -2.4921   -0.7434    0.1661 C.ar    1  LIG1        0.0804
     14 C          -3.7478   -0.1638    0.0709 C.ar    1  LIG1        0.0529
     15 C          -4.6905   -1.2093   -0.1588 C.ar    1  LIG1        0.0657
     16 C          -3.9833   -2.3927   -0.1852 C.ar    1  LIG1        0.0865
     17 N          -2.6527   -2.0839    0.0089 N.ar    1  LIG1       -0.3494
     18 H          -1.9014   -2.7559    0.0274 H       1  LIG1        0.1661
     19 S          -4.1222    1.5571    0.1696 S.3     1  LIG1       -0.1388
     20 H          -4.6239    1.5536    1.4113 H       1  LIG1        0.1072
     21 N          -6.0702   -1.0441   -0.2690 N.pl3   1  LIG1       -0.3554
     22 H          -6.3228   -0.1461   -0.6645 H       1  LIG1        0.1424
     23 H          -6.5295   -1.8153   -0.7374 H       1  LIG1        0.1424
     24 C          -4.4584   -3.7545   -0.4179 C.ar    1  LIG1        0.0799
     25 C          -5.4322   -4.4875    0.2328 C.ar    1  LIG1        0.0522
     26 C          -5.5438   -5.7462   -0.4331 C.ar    1  LIG1        0.0561
     27 C          -4.6252   -5.7422   -1.4548 C.ar    1  LIG1        0.0241
     28 N          -3.9780   -4.5302   -1.4317 N.ar    1  LIG1       -0.3570
     29 H          -3.3362   -4.1977   -2.1331 H       1  LIG1        0.1655
     30 H          -4.3811   -6.5009   -2.1772 H       1  LIG1        0.0826
     31 S          -6.3723   -3.9719    1.6356 S.3     1  LIG1       -0.1388
     32 H          -5.9687   -4.9668    2.4385 H       1  LIG1        0.1072
     33 N          -6.3858   -6.7866   -0.0051 N.pl3   1  LIG1       -0.3560
     34 H          -7.2716   -6.4252    0.3328 H       1  LIG1        0.1424
     35 H          -6.5408   -7.4876   -0.7187 H       1  LIG1        0.1424
@<TRIPOS>BOND
     1    30    27    1
     2    11    10    1
     3    29    28    1
     4    12    10    1
     5    10     3    1
     6    27    28   ar
     7    27    26   ar
     8    28    24   ar
     9    23    21    1
    10    35    33    1
    11    22    21    1
    12    26    33    1
    13    26    25   ar
    14    24    16    1
    15    24    25   ar
    16     3     2   ar
    17     3     4   ar
    18     8     9    1
    19     8     2    1
    20    21    15    1
    21    16    15   ar
    22    16    17   ar
    23    15    14   ar
    24    33    34    1
    25    17    18    1
    26    17    13   ar
    27    14    13   ar
    28    14    19    1
    29    13     4    1
    30    19    20    1
    31    25    31    1
    32     2     1   ar
    33     4     5   ar
    34     1     5   ar
    35     1     7    1
    36     5     6    1
    37    31    32    1
