@<TRIPOS>MOLECULE
mol_data/opt/m06hf/geoms/mol2/13gh13gh13gh13gh-.out
 46 49 0 0 0
SMALL
GASTEIGER

@<TRIPOS>ATOM
      1 C           0.3854    0.5676    2.1226 C.ar    1  LIG1        0.0173
      2 C           0.6825    1.1275    0.9002 C.ar    1  LIG1        0.0434
      3 C          -0.3524    0.7501   -0.0091 C.ar    1  LIG1        0.0650
      4 C          -1.2451   -0.0217    0.7012 C.ar    1  LIG1        0.0860
      5 N          -0.7687   -0.1271    1.9962 N.ar    1  LIG1       -0.3570
      6 H          -1.2883   -0.5436    2.7521 H       1  LIG1        0.1655
      7 H           0.9216    0.6328    3.0535 H       1  LIG1        0.0819
      8 S           2.1245    2.0626    0.4966 S.3     1  LIG1       -0.1394
      9 H           1.5480    3.2717    0.4776 H       1  LIG1        0.1072
     10 N          -0.4304    1.1401   -1.3456 N.pl3   1  LIG1       -0.3554
     11 H           0.4832    1.2395   -1.7721 H       1  LIG1        0.1424
     12 H          -1.0477    0.5562   -1.8958 H       1  LIG1        0.1424
     13 C          -2.4668   -0.6901    0.2588 C.ar    1  LIG1        0.0804
     14 C          -3.5941   -0.1848   -0.3672 C.ar    1  LIG1        0.0529
     15 C          -4.4879   -1.2721   -0.5916 C.ar    1  LIG1        0.0657
     16 C          -3.8867   -2.4034   -0.0818 C.ar    1  LIG1        0.0865
     17 N          -2.6577   -2.0280    0.4211 N.ar    1  LIG1       -0.3494
     18 H          -1.9943   -2.6502    0.8545 H       1  LIG1        0.1661
     19 S          -3.8851    1.4968   -0.8196 S.3     1  LIG1       -0.1388
     20 H          -4.9083    1.7000    0.0225 H       1  LIG1        0.1072
     21 N          -5.7601   -1.1652   -1.1542 N.pl3   1  LIG1       -0.3554
     22 H          -5.8140   -0.4287   -1.8484 H       1  LIG1        0.1424
     23 H          -6.1208   -2.0454   -1.5031 H       1  LIG1        0.1424
     24 C          -4.3946   -3.7702   -0.0396 C.ar    1  LIG1        0.0804
     25 C          -5.6078   -4.2460    0.4154 C.ar    1  LIG1        0.0529
     26 C          -5.6194   -5.6590    0.2251 C.ar    1  LIG1        0.0657
     27 C          -4.4039   -6.0045   -0.3302 C.ar    1  LIG1        0.0865
     28 N          -3.6778   -4.8470   -0.4871 N.ar    1  LIG1       -0.3494
     29 H          -2.7446   -4.8016   -0.8646 H       1  LIG1        0.1661
     30 S          -6.9174   -3.3069    1.1345 S.3     1  LIG1       -0.1388
     31 H          -7.3049   -4.3171    1.9286 H       1  LIG1        0.1072
     32 N          -6.6889   -6.4829    0.6197 N.pl3   1  LIG1       -0.3554
     33 H          -7.5167   -6.3336    0.0513 H       1  LIG1        0.1424
     34 H          -6.4332   -7.4628    0.6394 H       1  LIG1        0.1424
     35 C          -3.8817   -7.2939   -0.7883 C.ar    1  LIG1        0.0799
     36 C          -3.7685   -8.5233   -0.1624 C.ar    1  LIG1        0.0522
     37 C          -3.1615   -9.4287   -1.0876 C.ar    1  LIG1        0.0561
     38 C          -2.9205   -8.7191   -2.2391 C.ar    1  LIG1        0.0241
     39 N          -3.3629   -7.4334   -2.0382 N.ar    1  LIG1       -0.3570
     40 H          -3.4130   -6.7173   -2.7453 H       1  LIG1        0.1655
     41 H          -2.4683   -9.0248   -3.1654 H       1  LIG1        0.0826
     42 S          -4.2971   -8.9464    1.4669 S.3     1  LIG1       -0.1388
     43 H          -3.1887   -8.5946    2.1302 H       1  LIG1        0.1072
     44 N          -2.8204  -10.7612   -0.8089 N.pl3   1  LIG1       -0.3560
     45 H          -3.2781  -11.0854    0.0358 H       1  LIG1        0.1424
     46 H          -3.0125  -11.3894   -1.5790 H       1  LIG1        0.1424
@<TRIPOS>BOND
     1    41    38    1
     2    40    39    1
     3    38    39   ar
     4    38    37   ar
     5    39    35   ar
     6    12    10    1
     7    22    21    1
     8    11    10    1
     9    46    44    1
    10    23    21    1
    11    10     3    1
    12    21    15    1
    13    37    44    1
    14    37    36   ar
    15    29    28    1
    16    19    14    1
    17    19    20    1
    18    44    45    1
    19    35    27    1
    20    35    36   ar
    21    15    14   ar
    22    15    16   ar
    23    28    27   ar
    24    28    24   ar
    25    14    13   ar
    26    27    26   ar
    27    36    42    1
    28    16    24    1
    29    16    17   ar
    30    24    25   ar
    31     3     4   ar
    32     3     2   ar
    33    33    32    1
    34    26    25   ar
    35    26    32    1
    36    13    17   ar
    37    13     4    1
    38    25    30    1
    39    17    18    1
    40     9     8    1
    41     8     2    1
    42    32    34    1
    43     4     5   ar
    44     2     1   ar
    45    30    31    1
    46    42    43    1
    47     5     1   ar
    48     5     6    1
    49     1     7    1
