@<TRIPOS>MOLECULE
mol_data/opt/m06hf/geoms/mol2/13gh13gh-.out
 24 25 0 0 0
SMALL
GASTEIGER

@<TRIPOS>ATOM
      1 C           1.0457   -0.1325    0.5974 C.ar    1  LIG1        0.0173
      2 C           0.7472    0.9704   -0.1712 C.ar    1  LIG1        0.0434
      3 C          -0.6288    0.8774   -0.5412 C.ar    1  LIG1        0.0650
      4 C          -1.1169   -0.2807    0.0221 C.ar    1  LIG1        0.0860
      5 N          -0.0758   -0.8824    0.7060 N.ar    1  LIG1       -0.3570
      6 H          -0.1827   -1.7023    1.2809 H       1  LIG1        0.1655
      7 H           1.9748   -0.4100    1.0648 H       1  LIG1        0.0819
      8 S           1.8731    2.2309   -0.6804 S.3     1  LIG1       -0.1394
      9 H           1.3817    3.2118    0.0869 H       1  LIG1        0.1072
     10 N          -1.3230    1.8268   -1.2930 N.pl3   1  LIG1       -0.3554
     11 H          -0.7656    2.1965   -2.0546 H       1  LIG1        0.1424
     12 H          -2.2246    1.4932   -1.6109 H       1  LIG1        0.1424
     13 C          -2.4486   -0.8812   -0.0625 C.ar    1  LIG1        0.0799
     14 C          -3.6890   -0.3971    0.3160 C.ar    1  LIG1        0.0522
     15 C          -4.6626   -1.3878   -0.0179 C.ar    1  LIG1        0.0561
     16 C          -3.9822   -2.4439   -0.5751 C.ar    1  LIG1        0.0241
     17 N          -2.6474   -2.1173   -0.5961 N.ar    1  LIG1       -0.3570
     18 H          -1.9200   -2.6577   -1.0356 H       1  LIG1        0.1655
     19 H          -4.3402   -3.3898   -0.9409 H       1  LIG1        0.0826
     20 S          -4.0290    1.1629    1.0686 S.3     1  LIG1       -0.1388
     21 H          -4.1529    0.7172    2.3249 H       1  LIG1        0.1072
     22 N          -6.0326   -1.2899    0.2719 N.pl3   1  LIG1       -0.3560
     23 H          -6.3115   -0.3203    0.3793 H       1  LIG1        0.1424
     24 H          -6.6169   -1.7532   -0.4124 H       1  LIG1        0.1424
@<TRIPOS>BOND
     1    11    10    1
     2    12    10    1
     3    10     3    1
     4    18    17    1
     5    19    16    1
     6     8     2    1
     7     8     9    1
     8    17    16   ar
     9    17    13   ar
    10    16    15   ar
    11     3     2   ar
    12     3     4   ar
    13    24    22    1
    14     2     1   ar
    15    13     4    1
    16    13    14   ar
    17    15    22    1
    18    15    14   ar
    19     4     5   ar
    20    22    23    1
    21    14    20    1
    22     1     5   ar
    23     1     7    1
    24     5     6    1
    25    20    21    1
