@<TRIPOS>MOLECULE
mol_data/opt/m06hf/geoms/mol2/13gh13gh-13gh13gh-.out
 46 49 0 0 0
SMALL
GASTEIGER

@<TRIPOS>ATOM
      1 C           0.4153    0.5471    2.1421 C.ar    1  LIG1        0.0173
      2 C           0.6982    1.1164    0.9207 C.ar    1  LIG1        0.0434
      3 C          -0.3477    0.7468    0.0208 C.ar    1  LIG1        0.0650
      4 C          -1.2325   -0.0299    0.7356 C.ar    1  LIG1        0.0860
      5 N          -0.7408   -0.1460    2.0239 N.ar    1  LIG1       -0.3570
      6 H          -1.2517   -0.5679    2.7826 H       1  LIG1        0.1655
      7 H           0.9625    0.6046    3.0671 H       1  LIG1        0.0819
      8 S           2.1359    2.0538    0.5074 S.3     1  LIG1       -0.1394
      9 H           1.5602    3.2634    0.5049 H       1  LIG1        0.1072
     10 N          -0.4413    1.1474   -1.3115 N.pl3   1  LIG1       -0.3554
     11 H           0.4672    1.2497   -1.7480 H       1  LIG1        0.1424
     12 H          -1.0653    0.5680   -1.8590 H       1  LIG1        0.1424
     13 C          -2.4599   -0.6940    0.3026 C.ar    1  LIG1        0.0804
     14 C          -3.5942   -0.1830   -0.3059 C.ar    1  LIG1        0.0529
     15 C          -4.4914   -1.2679   -0.5282 C.ar    1  LIG1        0.0657
     16 C          -3.8850   -2.4036   -0.0347 C.ar    1  LIG1        0.0865
     17 N          -2.6499   -2.0331    0.4565 N.ar    1  LIG1       -0.3494
     18 H          -1.9817   -2.6591    0.8769 H       1  LIG1        0.1661
     19 S          -3.8893    1.5023   -0.7415 S.3     1  LIG1       -0.1388
     20 H          -4.9020    1.6997    0.1144 H       1  LIG1        0.1072
     21 N          -5.7702   -1.1558   -1.0746 N.pl3   1  LIG1       -0.3554
     22 H          -5.8320   -0.4137   -1.7622 H       1  LIG1        0.1424
     23 H          -6.1358   -2.0330   -1.4259 H       1  LIG1        0.1424
     24 C          -4.3936   -3.7703    0.0030 C.ar    1  LIG1        0.0804
     25 C          -5.6015   -4.2488    0.4691 C.ar    1  LIG1        0.0529
     26 C          -5.6167   -5.6603    0.2679 C.ar    1  LIG1        0.0657
     27 C          -4.4084   -6.0023   -0.3050 C.ar    1  LIG1        0.0865
     28 N          -3.6833   -4.8442   -0.4618 N.ar    1  LIG1       -0.3494
     29 H          -2.7547   -4.7966   -0.8502 H       1  LIG1        0.1661
     30 S          -6.9013   -3.3143    1.2117 S.3     1  LIG1       -0.1388
     31 H          -7.2800   -4.3307    2.0023 H       1  LIG1        0.1072
     32 N          -6.6820   -6.4863    0.6692 N.pl3   1  LIG1       -0.3554
     33 H          -7.5164   -6.3322    0.1118 H       1  LIG1        0.1424
     34 H          -6.4269   -7.4665    0.6785 H       1  LIG1        0.1424
     35 C          -3.8930   -7.2884   -0.7796 C.ar    1  LIG1        0.0799
     36 C          -3.7732   -8.5229   -0.1648 C.ar    1  LIG1        0.0522
     37 C          -3.1783   -9.4214   -1.1045 C.ar    1  LIG1        0.0561
     38 C          -2.9507   -8.7029   -2.2532 C.ar    1  LIG1        0.0241
     39 N          -3.3896   -7.4185   -2.0368 N.ar    1  LIG1       -0.3570
     40 H          -3.4477   -6.6968   -2.7376 H       1  LIG1        0.1655
     41 H          -2.5101   -9.0016   -3.1874 H       1  LIG1        0.0826
     42 S          -4.2822   -8.9584    1.4674 S.3     1  LIG1       -0.1388
     43 H          -3.1656   -8.6125    2.1198 H       1  LIG1        0.1072
     44 N          -2.8349  -10.7562   -0.8405 N.pl3   1  LIG1       -0.3560
     45 H          -3.2826  -11.0868    0.0071 H       1  LIG1        0.1424
     46 H          -3.0370  -11.3783   -1.6131 H       1  LIG1        0.1424
@<TRIPOS>BOND
     1    41    38    1
     2    40    39    1
     3    38    39   ar
     4    38    37   ar
     5    39    35   ar
     6    12    10    1
     7    22    21    1
     8    11    10    1
     9    46    44    1
    10    23    21    1
    11    10     3    1
    12    37    44    1
    13    37    36   ar
    14    21    15    1
    15    29    28    1
    16    44    45    1
    17    35    27    1
    18    35    36   ar
    19    19    14    1
    20    19    20    1
    21    15    14   ar
    22    15    16   ar
    23    28    27   ar
    24    28    24   ar
    25    14    13   ar
    26    27    26   ar
    27    36    42    1
    28    16    24    1
    29    16    17   ar
    30    24    25   ar
    31     3     4   ar
    32     3     2   ar
    33    33    32    1
    34    26    25   ar
    35    26    32    1
    36    13    17   ar
    37    13     4    1
    38    17    18    1
    39    25    30    1
    40     9     8    1
    41     8     2    1
    42    32    34    1
    43     4     5   ar
    44     2     1   ar
    45    30    31    1
    46    42    43    1
    47     5     1   ar
    48     5     6    1
    49     1     7    1
