@<TRIPOS>MOLECULE
mol_data/opt/m06hf/geoms/mol2/13gh13gh13gh-.out
 35 37 0 0 0
SMALL
GASTEIGER

@<TRIPOS>ATOM
      1 C           0.8643    0.0989    1.3770 C.ar    1  LIG1        0.0173
      2 C           0.7897    0.9696    0.3120 C.ar    1  LIG1        0.0434
      3 C          -0.4870    0.7870   -0.3023 C.ar    1  LIG1        0.0650
      4 C          -1.1412   -0.1874    0.4181 C.ar    1  LIG1        0.0860
      5 N          -0.2944   -0.5974    1.4319 N.ar    1  LIG1       -0.3570
      6 H          -0.5652   -1.2281    2.1692 H       1  LIG1        0.1655
      7 H           1.6639   -0.0532    2.0813 H       1  LIG1        0.0819
      8 S           2.0804    2.0192   -0.2730 S.3     1  LIG1       -0.1394
      9 H           1.6044    3.1803    0.1939 H       1  LIG1        0.1072
     10 N          -0.9680    1.5010   -1.3996 N.pl3   1  LIG1       -0.3554
     11 H          -0.2266    1.7928   -2.0254 H       1  LIG1        0.1424
     12 H          -1.7170    1.0262   -1.8883 H       1  LIG1        0.1424
     13 C          -2.4581   -0.7776    0.1920 C.ar    1  LIG1        0.0804
     14 C          -3.6983   -0.1761    0.0718 C.ar    1  LIG1        0.0529
     15 C          -4.6519   -1.2015   -0.1938 C.ar    1  LIG1        0.0657
     16 C          -3.9671   -2.3980   -0.2095 C.ar    1  LIG1        0.0865
     17 N          -2.6366   -2.1167    0.0179 N.ar    1  LIG1       -0.3494
     18 H          -1.8983   -2.8022    0.0436 H       1  LIG1        0.1661
     19 S          -4.0501    1.5480    0.2183 S.3     1  LIG1       -0.1388
     20 H          -4.9755    1.3987    1.1761 H       1  LIG1        0.1072
     21 N          -6.0272   -0.9959   -0.3346 N.pl3   1  LIG1       -0.3554
     22 H          -6.2348   -0.1579   -0.8668 H       1  LIG1        0.1424
     23 H          -6.5067   -1.8047   -0.7118 H       1  LIG1        0.1424
     24 C          -4.4615   -3.7517   -0.4558 C.ar    1  LIG1        0.0799
     25 C          -5.4434   -4.4827    0.1873 C.ar    1  LIG1        0.0522
     26 C          -5.5669   -5.7337   -0.4910 C.ar    1  LIG1        0.0561
     27 C          -4.6473   -5.7276   -1.5121 C.ar    1  LIG1        0.0241
     28 N          -3.9900   -4.5211   -1.4768 N.ar    1  LIG1       -0.3570
     29 H          -3.3404   -4.1889   -2.1711 H       1  LIG1        0.1655
     30 H          -4.4091   -6.4812   -2.2416 H       1  LIG1        0.0826
     31 S          -6.3860   -3.9693    1.5888 S.3     1  LIG1       -0.1388
     32 H          -5.9040   -4.8878    2.4373 H       1  LIG1        0.1072
     33 N          -6.4198   -6.7719   -0.0818 N.pl3   1  LIG1       -0.3560
     34 H          -7.2625   -6.4029    0.3462 H       1  LIG1        0.1424
     35 H          -6.6566   -7.4065   -0.8341 H       1  LIG1        0.1424
@<TRIPOS>BOND
     1    30    27    1
     2    29    28    1
     3    11    10    1
     4    12    10    1
     5    27    28   ar
     6    27    26   ar
     7    28    24   ar
     8    10     3    1
     9    22    21    1
    10    35    33    1
    11    23    21    1
    12    26    33    1
    13    26    25   ar
    14    24    16    1
    15    24    25   ar
    16    21    15    1
    17     3     2   ar
    18     3     4   ar
    19     8     9    1
    20     8     2    1
    21    16    15   ar
    22    16    17   ar
    23    15    14   ar
    24    33    34    1
    25    17    18    1
    26    17    13   ar
    27    14    13   ar
    28    14    19    1
    29    25    31    1
    30    13     4    1
    31    19    20    1
    32     2     1   ar
    33     4     5   ar
    34     1     5   ar
    35     1     7    1
    36     5     6    1
    37    31    32    1
