@<TRIPOS>MOLECULE
mol_data/opt/m06hf/geoms/mol2/13gh13gh-13gh-13gh-.out
 46 49 0 0 0
SMALL
GASTEIGER

@<TRIPOS>ATOM
      1 C           0.4528    0.5424    2.0904 C.ar    1  LIG1        0.0173
      2 C           0.7204    1.1092    0.8643 C.ar    1  LIG1        0.0434
      3 C          -0.3383    0.7403   -0.0208 C.ar    1  LIG1        0.0650
      4 C          -1.2150   -0.0334    0.7071 C.ar    1  LIG1        0.0860
      5 N          -0.7062   -0.1484    1.9889 N.ar    1  LIG1       -0.3570
      6 H          -1.2076   -0.5682    2.7551 H       1  LIG1        0.1655
      7 H           1.0126    0.6003    3.0077 H       1  LIG1        0.0819
      8 S           2.1547    2.0425    0.4301 S.3     1  LIG1       -0.1394
      9 H           1.5820    3.2535    0.4343 H       1  LIG1        0.1072
     10 N          -0.4491    1.1388   -1.3524 N.pl3   1  LIG1       -0.3554
     11 H           0.4537    1.2399   -1.8009 H       1  LIG1        0.1424
     12 H          -1.0805    0.5589   -1.8908 H       1  LIG1        0.1424
     13 C          -2.4492   -0.6957    0.2910 C.ar    1  LIG1        0.0804
     14 C          -3.5899   -0.1831   -0.3039 C.ar    1  LIG1        0.0529
     15 C          -4.4912   -1.2667   -0.5155 C.ar    1  LIG1        0.0657
     16 C          -3.8810   -2.4031   -0.0283 C.ar    1  LIG1        0.0865
     17 N          -2.6395   -2.0344    0.4479 N.ar    1  LIG1       -0.3494
     18 H          -1.9671   -2.6615    0.8600 H       1  LIG1        0.1661
     19 S          -3.8872    1.5025   -0.7369 S.3     1  LIG1       -0.1388
     20 H          -4.8893    1.7020    0.1310 H       1  LIG1        0.1072
     21 N          -5.7755   -1.1535   -1.0487 N.pl3   1  LIG1       -0.3554
     22 H          -5.8440   -0.4089   -1.7330 H       1  LIG1        0.1424
     23 H          -6.1428   -2.0296   -1.4011 H       1  LIG1        0.1424
     24 C          -4.3904   -3.7693    0.0118 C.ar    1  LIG1        0.0804
     25 C          -5.5968   -4.2463    0.4840 C.ar    1  LIG1        0.0529
     26 C          -5.6178   -5.6565    0.2754 C.ar    1  LIG1        0.0657
     27 C          -4.4143   -5.9996   -0.3063 C.ar    1  LIG1        0.0865
     28 N          -3.6864   -4.8423   -0.4624 N.ar    1  LIG1       -0.3494
     29 H          -2.7620   -4.7952   -0.8605 H       1  LIG1        0.1661
     30 S          -6.8882   -3.3101    1.2397 S.3     1  LIG1       -0.1388
     31 H          -7.2488   -4.3168    2.0506 H       1  LIG1        0.1072
     32 N          -6.6805   -6.4829    0.6784 N.pl3   1  LIG1       -0.3554
     33 H          -7.5342   -6.2828    0.1668 H       1  LIG1        0.1424
     34 H          -6.4457   -7.4667    0.6230 H       1  LIG1        0.1424
     35 C          -3.9076   -7.2870   -0.7861 C.ar    1  LIG1        0.0799
     36 C          -3.7827   -8.5200   -0.1691 C.ar    1  LIG1        0.0522
     37 C          -3.2043   -9.4233   -1.1143 C.ar    1  LIG1        0.0561
     38 C          -2.9910   -8.7091   -2.2685 C.ar    1  LIG1        0.0241
     39 N          -3.4231   -7.4227   -2.0502 N.ar    1  LIG1       -0.3570
     40 H          -3.4877   -6.7026   -2.7520 H       1  LIG1        0.1655
     41 H          -2.5646   -9.0121   -3.2078 H       1  LIG1        0.0826
     42 S          -4.2693   -8.9468    1.4725 S.3     1  LIG1       -0.1388
     43 H          -3.1398   -8.6067    2.1056 H       1  LIG1        0.1072
     44 N          -2.8614  -10.7585   -0.8515 N.pl3   1  LIG1       -0.3560
     45 H          -3.2929  -11.0829    0.0070 H       1  LIG1        0.1424
     46 H          -3.0829  -11.3832   -1.6165 H       1  LIG1        0.1424
@<TRIPOS>BOND
     1    41    38    1
     2    40    39    1
     3    38    39   ar
     4    38    37   ar
     5    39    35   ar
     6    12    10    1
     7    11    10    1
     8    22    21    1
     9    46    44    1
    10    23    21    1
    11    10     3    1
    12    37    44    1
    13    37    36   ar
    14    21    15    1
    15    29    28    1
    16    44    45    1
    17    35    27    1
    18    35    36   ar
    19    19    14    1
    20    19    20    1
    21    15    14   ar
    22    15    16   ar
    23    28    27   ar
    24    28    24   ar
    25    27    26   ar
    26    14    13   ar
    27    36    42    1
    28    16    24    1
    29    16    17   ar
    30     3     4   ar
    31     3     2   ar
    32    24    25   ar
    33    33    32    1
    34    26    25   ar
    35    26    32    1
    36    13    17   ar
    37    13     4    1
    38     8     9    1
    39     8     2    1
    40    17    18    1
    41    25    30    1
    42    34    32    1
    43     4     5   ar
    44     2     1   ar
    45    30    31    1
    46    42    43    1
    47     5     1   ar
    48     5     6    1
    49     1     7    1
