@<TRIPOS>MOLECULE
mol_data/opt/m06hf/geoms/mol2/13gh13gh.out
 24 25 0 0 0
SMALL
GASTEIGER

@<TRIPOS>ATOM
      1 C           1.0119   -0.1312    0.7402 C.ar    1  LIG1        0.0173
      2 C           0.7361    0.9972    0.0008 C.ar    1  LIG1        0.0434
      3 C          -0.6217    0.9066   -0.4322 C.ar    1  LIG1        0.0650
      4 C          -1.1220   -0.2759    0.0657 C.ar    1  LIG1        0.0860
      5 N          -0.1056   -0.8940    0.7717 N.ar    1  LIG1       -0.3570
      6 H          -0.2290   -1.7361    1.3100 H       1  LIG1        0.1655
      7 H           1.9225   -0.4180    1.2373 H       1  LIG1        0.0819
      8 S           1.8702    2.2854   -0.4115 S.3     1  LIG1       -0.1394
      9 H           1.3361    3.2326    0.3693 H       1  LIG1        0.1072
     10 N          -1.2921    1.8778   -1.1777 N.pl3   1  LIG1       -0.3554
     11 H          -0.7062    2.2801   -1.9004 H       1  LIG1        0.1424
     12 H          -2.1759    1.5491   -1.5464 H       1  LIG1        0.1424
     13 C          -2.4426   -0.8844   -0.0995 C.ar    1  LIG1        0.0799
     14 C          -3.7033   -0.4253    0.2413 C.ar    1  LIG1        0.0522
     15 C          -4.6510   -1.4112   -0.1717 C.ar    1  LIG1        0.0561
     16 C          -3.9360   -2.4400   -0.7367 C.ar    1  LIG1        0.0241
     17 N          -2.6051   -2.1014   -0.6864 N.ar    1  LIG1       -0.3570
     18 H          -1.8537   -2.6185   -1.1136 H       1  LIG1        0.1655
     19 H          -4.2680   -3.3746   -1.1526 H       1  LIG1        0.0826
     20 S          -4.0918    1.1023    1.0355 S.3     1  LIG1       -0.1388
     21 H          -4.2658    0.6087    2.2676 H       1  LIG1        0.1072
     22 N          -6.0335   -1.3359    0.0605 N.pl3   1  LIG1       -0.3560
     23 H          -6.3266   -0.3733    0.1910 H       1  LIG1        0.1424
     24 H          -6.5823   -1.7782   -0.6658 H       1  LIG1        0.1424
@<TRIPOS>BOND
     1    11    10    1
     2    12    10    1
     3    10     3    1
     4    19    16    1
     5    18    17    1
     6    16    17   ar
     7    16    15   ar
     8    17    13   ar
     9    24    22    1
    10     3     2   ar
    11     3     4   ar
    12     8     2    1
    13     8     9    1
    14    15    22    1
    15    15    14   ar
    16    13     4    1
    17    13    14   ar
    18     2     1   ar
    19    22    23    1
    20     4     5   ar
    21    14    20    1
    22     1     5   ar
    23     1     7    1
    24     5     6    1
    25    20    21    1
