@<TRIPOS>MOLECULE
mol_data/opt/m06hf/geoms/mol2/13gh13gh13gh-13gh-.out
 46 49 0 0 0
SMALL
GASTEIGER

@<TRIPOS>ATOM
      1 C           0.4199    0.5351    2.1117 C.ar    1  LIG1        0.0173
      2 C           0.7029    1.1071    0.8916 C.ar    1  LIG1        0.0434
      3 C          -0.3445    0.7420   -0.0084 C.ar    1  LIG1        0.0650
      4 C          -1.2303   -0.0349    0.7051 C.ar    1  LIG1        0.0860
      5 N          -0.7376   -0.1554    1.9926 N.ar    1  LIG1       -0.3570
      6 H          -1.2487   -0.5782    2.7507 H       1  LIG1        0.1655
      7 H           0.9681    0.5890    3.0363 H       1  LIG1        0.0819
      8 S           2.1421    2.0428    0.4794 S.3     1  LIG1       -0.1394
      9 H           1.5686    3.2534    0.4803 H       1  LIG1        0.1072
     10 N          -0.4385    1.1463   -1.3396 N.pl3   1  LIG1       -0.3554
     11 H           0.4699    1.2480   -1.7765 H       1  LIG1        0.1424
     12 H          -1.0639    0.5695   -1.8881 H       1  LIG1        0.1424
     13 C          -2.4592   -0.6954    0.2712 C.ar    1  LIG1        0.0804
     14 C          -3.5928   -0.1809   -0.3356 C.ar    1  LIG1        0.0529
     15 C          -4.4919   -1.2637   -0.5606 C.ar    1  LIG1        0.0657
     16 C          -3.8876   -2.4017   -0.0699 C.ar    1  LIG1        0.0865
     17 N          -2.6515   -2.0346    0.4218 N.ar    1  LIG1       -0.3494
     18 H          -1.9845   -2.6628    0.8406 H       1  LIG1        0.1661
     19 S          -3.8851    1.5060   -0.7668 S.3     1  LIG1       -0.1388
     20 H          -4.8974    1.7027    0.0898 H       1  LIG1        0.1072
     21 N          -5.7705   -1.1480   -1.1068 N.pl3   1  LIG1       -0.3554
     22 H          -5.8309   -0.4039   -1.7923 H       1  LIG1        0.1424
     23 H          -6.1374   -2.0236   -1.4608 H       1  LIG1        0.1424
     24 C          -4.3976   -3.7679   -0.0367 C.ar    1  LIG1        0.0804
     25 C          -5.6068   -4.2467    0.4256 C.ar    1  LIG1        0.0529
     26 C          -5.6225   -5.6578    0.2207 C.ar    1  LIG1        0.0657
     27 C          -4.4132   -5.9990   -0.3506 C.ar    1  LIG1        0.0865
     28 N          -3.6871   -4.8410   -0.5028 N.ar    1  LIG1       -0.3494
     29 H          -2.7574   -4.7931   -0.8887 H       1  LIG1        0.1661
     30 S          -6.9076   -3.3135    1.1681 S.3     1  LIG1       -0.1388
     31 H          -7.2878   -4.3315    1.9560 H       1  LIG1        0.1072
     32 N          -6.6893   -6.4840    0.6176 N.pl3   1  LIG1       -0.3554
     33 H          -7.5222   -6.3288    0.0583 H       1  LIG1        0.1424
     34 H          -6.4347   -7.4643    0.6264 H       1  LIG1        0.1424
     35 C          -3.8964   -7.2837   -0.8278 C.ar    1  LIG1        0.0799
     36 C          -3.7794   -8.5206   -0.2174 C.ar    1  LIG1        0.0522
     37 C          -3.1789   -9.4148   -1.1574 C.ar    1  LIG1        0.0561
     38 C          -2.9457   -8.6918   -2.3021 C.ar    1  LIG1        0.0241
     39 N          -3.3855   -7.4079   -2.0825 N.ar    1  LIG1       -0.3570
     40 H          -3.4406   -6.6836   -2.7807 H       1  LIG1        0.1655
     41 H          -2.5009   -8.9864   -3.2357 H       1  LIG1        0.0826
     42 S          -4.2960   -8.9629    1.4105 S.3     1  LIG1       -0.1388
     43 H          -3.1795   -8.6260    2.0678 H       1  LIG1        0.1072
     44 N          -2.8351  -10.7490   -0.8936 N.pl3   1  LIG1       -0.3560
     45 H          -3.3147  -11.0948   -0.0702 H       1  LIG1        0.1424
     46 H          -2.9920  -11.3637   -1.6821 H       1  LIG1        0.1424
@<TRIPOS>BOND
     1    41    38    1
     2    40    39    1
     3    38    39   ar
     4    38    37   ar
     5    39    35   ar
     6    12    10    1
     7    22    21    1
     8    11    10    1
     9    46    44    1
    10    23    21    1
    11    10     3    1
    12    37    44    1
    13    37    36   ar
    14    21    15    1
    15    44    45    1
    16    29    28    1
    17    35    27    1
    18    35    36   ar
    19    19    14    1
    20    19    20    1
    21    15    14   ar
    22    15    16   ar
    23    28    27   ar
    24    28    24   ar
    25    27    26   ar
    26    14    13   ar
    27    36    42    1
    28    16    24    1
    29    16    17   ar
    30    24    25   ar
    31     3     4   ar
    32     3     2   ar
    33    33    32    1
    34    26    25   ar
    35    26    32    1
    36    13    17   ar
    37    13     4    1
    38    17    18    1
    39    25    30    1
    40     8     9    1
    41     8     2    1
    42    32    34    1
    43     4     5   ar
    44     2     1   ar
    45    30    31    1
    46    42    43    1
    47     5     1   ar
    48     5     6    1
    49     1     7    1
