@<TRIPOS>MOLECULE
mol_data/opt/m06hf/geoms/mol2/13gh13gh-13gh-13gh.out
 46 49 0 0 0
SMALL
GASTEIGER

@<TRIPOS>ATOM
      1 C           0.4189    0.5598    2.0955 C.ar    1  LIG1        0.0173
      2 C           0.7008    1.1184    0.8688 C.ar    1  LIG1        0.0434
      3 C          -0.3473    0.7430   -0.0262 C.ar    1  LIG1        0.0650
      4 C          -1.2323   -0.0261    0.6966 C.ar    1  LIG1        0.0860
      5 N          -0.7385   -0.1322    1.9850 N.ar    1  LIG1       -0.3570
      6 H          -1.2488   -0.5469    2.7481 H       1  LIG1        0.1655
      7 H           0.9678    0.6242    3.0190 H       1  LIG1        0.0819
      8 S           2.1392    2.0501    0.4451 S.3     1  LIG1       -0.1394
      9 H           1.5652    3.2604    0.4334 H       1  LIG1        0.1072
     10 N          -0.4425    1.1324   -1.3617 N.pl3   1  LIG1       -0.3554
     11 H           0.4655    1.2301   -1.8004 H       1  LIG1        0.1424
     12 H          -1.0679    0.5491   -1.9034 H       1  LIG1        0.1424
     13 C          -2.4613   -0.6919    0.2709 C.ar    1  LIG1        0.0804
     14 C          -3.5955   -0.1843   -0.3406 C.ar    1  LIG1        0.0529
     15 C          -4.4944   -1.2698   -0.5532 C.ar    1  LIG1        0.0657
     16 C          -3.8892   -2.4022   -0.0508 C.ar    1  LIG1        0.0865
     17 N          -2.6530   -2.0294    0.4361 N.ar    1  LIG1       -0.3494
     18 H          -1.9855   -2.6528    0.8613 H       1  LIG1        0.1661
     19 S          -3.8887    1.4978   -0.7897 S.3     1  LIG1       -0.1388
     20 H          -4.9005    1.7033    0.0655 H       1  LIG1        0.1072
     21 N          -5.7733   -1.1605   -1.0999 N.pl3   1  LIG1       -0.3554
     22 H          -5.8345   -0.4237   -1.7932 H       1  LIG1        0.1424
     23 H          -6.1398   -2.0400   -1.4445 H       1  LIG1        0.1424
     24 C          -4.3985   -3.7682   -0.0026 C.ar    1  LIG1        0.0804
     25 C          -5.6071   -4.2430    0.4655 C.ar    1  LIG1        0.0529
     26 C          -5.6218   -5.6562    0.2760 C.ar    1  LIG1        0.0657
     27 C          -4.4126   -6.0027   -0.2923 C.ar    1  LIG1        0.0865
     28 N          -3.6875   -4.8458   -0.4575 N.ar    1  LIG1       -0.3494
     29 H          -2.7580   -4.8015   -0.8442 H       1  LIG1        0.1661
     30 S          -6.9082   -3.3029    1.1986 S.3     1  LIG1       -0.1388
     31 H          -7.2873   -4.3127    1.9973 H       1  LIG1        0.1072
     32 N          -6.6879   -6.4788    0.6825 N.pl3   1  LIG1       -0.3554
     33 H          -7.5209   -6.3308    0.1214 H       1  LIG1        0.1424
     34 H          -6.4324   -7.4586    0.7029 H       1  LIG1        0.1424
     35 C          -3.8946   -7.2919   -0.7558 C.ar    1  LIG1        0.0799
     36 C          -3.7764   -8.5222   -0.1324 C.ar    1  LIG1        0.0522
     37 C          -3.1743   -9.4254   -1.0628 C.ar    1  LIG1        0.0561
     38 C          -2.9418   -8.7143   -2.2150 C.ar    1  LIG1        0.0241
     39 N          -3.3829   -7.4286   -2.0088 N.ar    1  LIG1       -0.3570
     40 H          -3.4393   -6.7119   -2.7148 H       1  LIG1        0.1655
     41 H          -2.4964   -9.0181   -3.1453 H       1  LIG1        0.0826
     42 S          -4.2926   -8.9480    1.4999 S.3     1  LIG1       -0.1388
     43 H          -3.1762   -8.6040    2.1535 H       1  LIG1        0.1072
     44 N          -2.8284  -10.7560   -0.7841 N.pl3   1  LIG1       -0.3560
     45 H          -3.3129  -11.0961    0.0388 H       1  LIG1        0.1424
     46 H          -2.9759  -11.3784   -1.5682 H       1  LIG1        0.1424
@<TRIPOS>BOND
     1    41    38    1
     2    40    39    1
     3    38    39   ar
     4    38    37   ar
     5    39    35   ar
     6    12    10    1
     7    11    10    1
     8    22    21    1
     9    46    44    1
    10    23    21    1
    11    10     3    1
    12    21    15    1
    13    37    44    1
    14    37    36   ar
    15    29    28    1
    16    19    14    1
    17    19    20    1
    18    44    45    1
    19    35    27    1
    20    35    36   ar
    21    15    14   ar
    22    15    16   ar
    23    28    27   ar
    24    28    24   ar
    25    14    13   ar
    26    27    26   ar
    27    36    42    1
    28    16    24    1
    29    16    17   ar
    30     3     4   ar
    31     3     2   ar
    32    24    25   ar
    33    33    32    1
    34    13    17   ar
    35    13     4    1
    36    26    25   ar
    37    26    32    1
    38     9     8    1
    39    17    18    1
    40     8     2    1
    41    25    30    1
    42    32    34    1
    43     4     5   ar
    44     2     1   ar
    45    30    31    1
    46    42    43    1
    47     5     1   ar
    48     5     6    1
    49     1     7    1
