@<TRIPOS>MOLECULE
mol_data/opt/m06hf/geoms/mol2/13gi13gi13gi-13gi.out
 50 53 0 0 0
SMALL
GASTEIGER

@<TRIPOS>ATOM
      1 C           0.2678    0.4569   -2.4301 C.ar    1  LIG1        0.0157
      2 C           0.6305    1.0172   -1.2282 C.ar    1  LIG1        0.0256
      3 C          -0.3677    0.6811   -0.2627 C.ar    1  LIG1       -0.0106
      4 C          -1.3109   -0.0649   -0.9319 C.ar    1  LIG1        0.0680
      5 N          -0.9044   -0.2029   -2.2398 N.ar    1  LIG1       -0.3583
      6 H          -1.4621   -0.6283   -2.9633 H       1  LIG1        0.1654
      7 H           0.7614    0.4919   -3.3858 H       1  LIG1        0.0818
      8 S           2.1235    1.9245   -0.9394 S.3     1  LIG1       -0.1409
      9 H           1.5747    3.1459   -0.9048 H       1  LIG1        0.1072
     10 C          -0.3719    1.0541    1.1954 C.3     1  LIG1       -0.0366
     11 H          -1.1195    0.4644    1.7267 H       1  LIG1        0.0279
     12 H          -0.6125    2.1116    1.3189 H       1  LIG1        0.0279
     13 H           0.6119    0.8702    1.6284 H       1  LIG1        0.0279
     14 C          -2.5502   -0.6844   -0.4534 C.ar    1  LIG1        0.0772
     15 C          -3.6481   -0.1495    0.1938 C.ar    1  LIG1        0.0351
     16 C          -4.5810   -1.2017    0.4347 C.ar    1  LIG1       -0.0099
     17 C          -4.0222   -2.3435   -0.0970 C.ar    1  LIG1        0.0685
     18 N          -2.7948   -2.0173   -0.6184 N.ar    1  LIG1       -0.3508
     19 H          -2.1611   -2.6649   -1.0610 H       1  LIG1        0.1660
     20 S          -3.8285    1.5458    0.6666 S.3     1  LIG1       -0.1403
     21 H          -4.8236    1.8393   -0.1816 H       1  LIG1        0.1072
     22 C          -5.9060   -1.0821    1.1383 C.3     1  LIG1       -0.0366
     23 H          -6.2749   -2.0729    1.4066 H       1  LIG1        0.0279
     24 H          -6.6435   -0.6029    0.4917 H       1  LIG1        0.0279
     25 H          -5.7918   -0.4803    2.0404 H       1  LIG1        0.0279
     26 C          -4.5227   -3.7203   -0.1251 C.ar    1  LIG1        0.0772
     27 C          -5.7128   -4.2470   -0.5900 C.ar    1  LIG1        0.0351
     28 C          -5.6979   -5.6553   -0.3594 C.ar    1  LIG1       -0.0099
     29 C          -4.4807   -5.9394    0.2203 C.ar    1  LIG1        0.0685
     30 N          -3.7888   -4.7624    0.3641 N.ar    1  LIG1       -0.3508
     31 H          -2.8747   -4.6783    0.7813 H       1  LIG1        0.1660
     32 S          -7.0299   -3.3111   -1.3096 S.3     1  LIG1       -0.1403
     33 H          -6.9531   -3.8528   -2.5319 H       1  LIG1        0.1072
     34 C          -6.8029   -6.6276   -0.6729 C.3     1  LIG1       -0.0366
     35 H          -6.6269   -7.5690   -0.1511 H       1  LIG1        0.0279
     36 H          -6.8473   -6.8308   -1.7446 H       1  LIG1        0.0279
     37 H          -7.7600   -6.2105   -0.3568 H       1  LIG1        0.0279
     38 C          -3.9155   -7.2121    0.6776 C.ar    1  LIG1        0.0768
     39 C          -3.7321   -8.4139    0.0241 C.ar    1  LIG1        0.0344
     40 C          -3.1426   -9.3337    0.9461 C.ar    1  LIG1       -0.0193
     41 C          -2.9785   -8.6464    2.1224 C.ar    1  LIG1        0.0062
     42 N          -3.4462   -7.3726    1.9520 N.ar    1  LIG1       -0.3584
     43 H          -3.5533   -6.6854    2.6814 H       1  LIG1        0.1654
     44 H          -2.5726   -8.9730    3.0648 H       1  LIG1        0.0810
     45 S          -4.2088   -8.7479   -1.6454 S.3     1  LIG1       -0.1403
     46 H          -2.9769   -8.9066   -2.1477 H       1  LIG1        0.1072
     47 C          -2.7687  -10.7656    0.6627 C.3     1  LIG1       -0.0372
     48 H          -2.4186  -11.2498    1.5739 H       1  LIG1        0.0278
     49 H          -1.9757  -10.8190   -0.0856 H       1  LIG1        0.0278
     50 H          -3.6331  -11.3100    0.2805 H       1  LIG1        0.0278
@<TRIPOS>BOND
     1     7     1    1
     2     6     5    1
     3    33    32    1
     4     1     5   ar
     5     1     2   ar
     6     5     4   ar
     7    46    45    1
     8    36    34    1
     9    45    39    1
    10    32    27    1
    11     2     8    1
    12     2     3   ar
    13    19    18    1
    14     8     9    1
    15     4    14    1
    16     4     3   ar
    17    34    28    1
    18    34    37    1
    19    34    35    1
    20    18    14   ar
    21    18    17   ar
    22    27    28   ar
    23    27    26   ar
    24    14    15   ar
    25    28    29   ar
    26     3    10    1
    27    21    20    1
    28    26    17    1
    29    26    30   ar
    30    17    16   ar
    31    49    47    1
    32    39    38   ar
    33    39    40   ar
    34    15    16   ar
    35    15    20    1
    36    29    30   ar
    37    29    38    1
    38    50    47    1
    39    30    31    1
    40    16    22    1
    41    24    22    1
    42    47    40    1
    43    47    48    1
    44    38    42   ar
    45    40    41   ar
    46    22    23    1
    47    22    25    1
    48    10    12    1
    49    10    13    1
    50    10    11    1
    51    42    41   ar
    52    42    43    1
    53    41    44    1
