@<TRIPOS>MOLECULE
mol_data/opt/m06hf/geoms/mol2/13gi13gi-13gi-13gi.out
 50 53 0 0 0
SMALL
GASTEIGER

@<TRIPOS>ATOM
      1 C           0.2735    0.4249   -2.4450 C.ar    1  LIG1        0.0157
      2 C           0.6347    0.9999   -1.2495 C.ar    1  LIG1        0.0256
      3 C          -0.3652    0.6763   -0.2815 C.ar    1  LIG1       -0.0106
      4 C          -1.3077   -0.0775   -0.9428 C.ar    1  LIG1        0.0680
      5 N          -0.8993   -0.2319   -2.2484 N.ar    1  LIG1       -0.3583
      6 H          -1.4562   -0.6658   -2.9674 H       1  LIG1        0.1654
      7 H           0.7686    0.4479   -3.4003 H       1  LIG1        0.0818
      8 S           2.1277    1.9100   -0.9697 S.3     1  LIG1       -0.1409
      9 H           1.5794    3.1319   -0.9511 H       1  LIG1        0.1072
     10 C          -0.3714    1.0673    1.1719 C.3     1  LIG1       -0.0366
     11 H          -1.1202    0.4846    1.7092 H       1  LIG1        0.0279
     12 H          -0.6114    2.1263    1.2820 H       1  LIG1        0.0279
     13 H           0.6116    0.8881    1.6086 H       1  LIG1        0.0279
     14 C          -2.5480   -0.6903   -0.4586 C.ar    1  LIG1        0.0772
     15 C          -3.6467   -0.1469    0.1802 C.ar    1  LIG1        0.0351
     16 C          -4.5804   -1.1957    0.4330 C.ar    1  LIG1       -0.0099
     17 C          -4.0213   -2.3443   -0.0837 C.ar    1  LIG1        0.0685
     18 N          -2.7931   -2.0250   -0.6075 N.ar    1  LIG1       -0.3508
     19 H          -2.1591   -2.6784   -1.0411 H       1  LIG1        0.1660
     20 S          -3.8270    1.5542    0.6315 S.3     1  LIG1       -0.1403
     21 H          -4.8205    1.8375   -0.2220 H       1  LIG1        0.1072
     22 C          -5.9063   -1.0667    1.1331 C.3     1  LIG1       -0.0366
     23 H          -6.2761   -2.0539    1.4132 H       1  LIG1        0.0279
     24 H          -6.6427   -0.5952    0.4795 H       1  LIG1        0.0279
     25 H          -5.7931   -0.4537    2.0278 H       1  LIG1        0.0279
     26 C          -4.5225   -3.7210   -0.0954 C.ar    1  LIG1        0.0772
     27 C          -5.7121   -4.2529   -0.5555 C.ar    1  LIG1        0.0351
     28 C          -5.6985   -5.6582   -0.3074 C.ar    1  LIG1       -0.0099
     29 C          -4.4823   -5.9357    0.2777 C.ar    1  LIG1        0.0685
     30 N          -3.7899   -4.7574    0.4078 N.ar    1  LIG1       -0.3508
     31 H          -2.8764   -4.6686    0.8254 H       1  LIG1        0.1660
     32 S          -7.0277   -3.3253   -1.2888 S.3     1  LIG1       -0.1403
     33 H          -6.9493   -3.8821   -2.5041 H       1  LIG1        0.1072
     34 C          -6.8036   -6.6336   -0.6104 C.3     1  LIG1       -0.0366
     35 H          -6.6289   -7.5685   -0.0766 H       1  LIG1        0.0279
     36 H          -6.8465   -6.8501   -1.6795 H       1  LIG1        0.0279
     37 H          -7.7608   -6.2120   -0.3010 H       1  LIG1        0.0279
     38 C          -3.9185   -7.2030    0.7515 C.ar    1  LIG1        0.0768
     39 C          -3.7346   -8.4127    0.1129 C.ar    1  LIG1        0.0344
     40 C          -3.1469   -9.3215    1.0470 C.ar    1  LIG1       -0.0193
     41 C          -2.9842   -8.6200    2.2150 C.ar    1  LIG1        0.0062
     42 N          -3.4512   -7.3481    2.0284 N.ar    1  LIG1       -0.3584
     43 H          -3.5592   -6.6521    2.7492 H       1  LIG1        0.1654
     44 H          -2.5799   -8.9352    3.1619 H       1  LIG1        0.0810
     45 S          -4.2090   -8.7668   -1.5532 S.3     1  LIG1       -0.1403
     46 H          -2.9764   -8.9324   -2.0515 H       1  LIG1        0.1072
     47 C          -2.7732  -10.7568    0.7815 C.3     1  LIG1       -0.0372
     48 H          -2.4244  -11.2300    1.6990 H       1  LIG1        0.0278
     49 H          -1.9793  -10.8197    0.0349 H       1  LIG1        0.0278
     50 H          -3.6374  -11.3056    0.4050 H       1  LIG1        0.0278
@<TRIPOS>BOND
     1     7     1    1
     2     6     5    1
     3    33    32    1
     4     1     5   ar
     5     1     2   ar
     6     5     4   ar
     7    46    45    1
     8    36    34    1
     9    45    39    1
    10    32    27    1
    11     2     8    1
    12     2     3   ar
    13    19    18    1
    14     8     9    1
    15     4    14    1
    16     4     3   ar
    17    34    28    1
    18    34    37    1
    19    34    35    1
    20    18    14   ar
    21    18    17   ar
    22    27    28   ar
    23    27    26   ar
    24    14    15   ar
    25    28    29   ar
    26     3    10    1
    27    21    20    1
    28    26    17    1
    29    26    30   ar
    30    17    16   ar
    31    49    47    1
    32    39    38   ar
    33    39    40   ar
    34    15    16   ar
    35    15    20    1
    36    29    30   ar
    37    29    38    1
    38    50    47    1
    39    30    31    1
    40    16    22    1
    41    24    22    1
    42    38    42   ar
    43    47    40    1
    44    47    48    1
    45    40    41   ar
    46    22    23    1
    47    22    25    1
    48    10    12    1
    49    10    13    1
    50    10    11    1
    51    42    41   ar
    52    42    43    1
    53    41    44    1
