@<TRIPOS>MOLECULE
mol_data/opt/m06hf/geoms/mol2/13gi13gi.out
 26 27 0 0 0
SMALL
GASTEIGER

@<TRIPOS>ATOM
      1 C           1.0464   -0.2303   -0.7529 C.ar    1  LIG1        0.0157
      2 C           0.7720    0.9741   -0.1485 C.ar    1  LIG1        0.0256
      3 C          -0.5925    0.9564    0.2764 C.ar    1  LIG1       -0.0106
      4 C          -1.0961   -0.2663   -0.1052 C.ar    1  LIG1        0.0680
      5 N          -0.0881   -0.9758   -0.7174 N.ar    1  LIG1       -0.3583
      6 H          -0.2165   -1.8735   -1.1564 H       1  LIG1        0.1654
      7 H           1.9597   -0.5882   -1.1962 H       1  LIG1        0.0818
      8 S           1.9525    2.2659    0.1217 S.3     1  LIG1       -0.1409
      9 H           1.5720    3.0607   -0.8877 H       1  LIG1        0.1072
     10 C          -1.3250    2.0475    1.0103 C.3     1  LIG1       -0.0366
     11 H          -2.2436    1.6504    1.4436 H       1  LIG1        0.0279
     12 H          -1.5849    2.8599    0.3294 H       1  LIG1        0.0279
     13 H          -0.6944    2.4495    1.8040 H       1  LIG1        0.0279
     14 C          -2.4274   -0.8522    0.0789 C.ar    1  LIG1        0.0767
     15 C          -3.6799   -0.4154   -0.3018 C.ar    1  LIG1        0.0344
     16 C          -4.6399   -1.3736    0.1488 C.ar    1  LIG1       -0.0193
     17 C          -3.9278   -2.3655    0.7755 C.ar    1  LIG1        0.0062
     18 N          -2.6000   -2.0428    0.7295 N.ar    1  LIG1       -0.3584
     19 H          -1.8577   -2.5368    1.1985 H       1  LIG1        0.1654
     20 H          -4.2701   -3.2681    1.2528 H       1  LIG1        0.0810
     21 S          -4.0181    1.0925   -1.1630 S.3     1  LIG1       -0.1403
     22 H          -4.4552    0.5304   -2.2974 H       1  LIG1        0.1072
     23 C          -6.1320   -1.3013   -0.0464 C.3     1  LIG1       -0.0372
     24 H          -6.6230   -2.1092    0.4959 H       1  LIG1        0.0278
     25 H          -6.3906   -1.3863   -1.1037 H       1  LIG1        0.0278
     26 H          -6.5109   -0.3460    0.3186 H       1  LIG1        0.0278
@<TRIPOS>BOND
     1    22    21    1
     2     7     1    1
     3    21    15    1
     4     6     5    1
     5    25    23    1
     6     9     8    1
     7     1     5   ar
     8     1     2   ar
     9     5     4   ar
    10    15    14   ar
    11    15    16   ar
    12     2     8    1
    13     2     3   ar
    14     4    14    1
    15     4     3   ar
    16    23    16    1
    17    23    26    1
    18    23    24    1
    19    14    18   ar
    20    16    17   ar
    21     3    10    1
    22    12    10    1
    23    18    17   ar
    24    18    19    1
    25    17    20    1
    26    10    11    1
    27    10    13    1
