@<TRIPOS>MOLECULE
mol_data/opt/m06hf/geoms/mol2/13gi13gi-13gi13gi-.out
 50 53 0 0 0
SMALL
GASTEIGER

@<TRIPOS>ATOM
      1 C           0.2883    0.4155   -2.4297 C.ar    1  LIG1        0.0157
      2 C           0.6420    0.9953   -1.2343 C.ar    1  LIG1        0.0256
      3 C          -0.3637    0.6753   -0.2712 C.ar    1  LIG1       -0.0106
      4 C          -1.3021   -0.0811   -0.9353 C.ar    1  LIG1        0.0680
      5 N          -0.8856   -0.2406   -2.2377 N.ar    1  LIG1       -0.3583
      6 H          -1.4380   -0.6774   -2.9584 H       1  LIG1        0.1654
      7 H           0.7893    0.4348   -3.3820 H       1  LIG1        0.0818
      8 S           2.1332    1.9066   -0.9489 S.3     1  LIG1       -0.1409
      9 H           1.5847    3.1285   -0.9383 H       1  LIG1        0.1072
     10 C          -0.3788    1.0719    1.1806 C.3     1  LIG1       -0.0366
     11 H          -1.1311    0.4914    1.7156 H       1  LIG1        0.0279
     12 H          -0.6195    2.1314    1.2851 H       1  LIG1        0.0279
     13 H           0.6013    0.8943    1.6242 H       1  LIG1        0.0279
     14 C          -2.5454   -0.6921   -0.4564 C.ar    1  LIG1        0.0772
     15 C          -3.6480   -0.1463    0.1735 C.ar    1  LIG1        0.0351
     16 C          -4.5832   -1.1941    0.4245 C.ar    1  LIG1       -0.0099
     17 C          -4.0209   -2.3447   -0.0841 C.ar    1  LIG1        0.0685
     18 N          -2.7894   -2.0274   -0.6015 N.ar    1  LIG1       -0.3508
     19 H          -2.1528   -2.6824   -1.0287 H       1  LIG1        0.1660
     20 S          -3.8312    1.5566    0.6169 S.3     1  LIG1       -0.1403
     21 H          -4.8194    1.8365   -0.2439 H       1  LIG1        0.1072
     22 C          -5.9135   -1.0624    1.1158 C.3     1  LIG1       -0.0366
     23 H          -6.2851   -2.0486    1.3973 H       1  LIG1        0.0279
     24 H          -6.6457   -0.5934    0.4558 H       1  LIG1        0.0279
     25 H          -5.8059   -0.4460    2.0089 H       1  LIG1        0.0279
     26 C          -4.5220   -3.7214   -0.0935 C.ar    1  LIG1        0.0772
     27 C          -5.7088   -4.2552   -0.5587 C.ar    1  LIG1        0.0351
     28 C          -5.6965   -5.6595   -0.3051 C.ar    1  LIG1       -0.0099
     29 C          -4.4838   -5.9347    0.2883 C.ar    1  LIG1        0.0685
     30 N          -3.7924   -4.7559    0.4181 N.ar    1  LIG1       -0.3508
     31 H          -2.8814   -4.6654    0.8409 H       1  LIG1        0.1660
     32 S          -7.0200   -3.3304   -1.3031 S.3     1  LIG1       -0.1403
     33 H          -6.9346   -3.8920   -2.5158 H       1  LIG1        0.1072
     34 C          -6.7998   -6.6362   -0.6109 C.3     1  LIG1       -0.0366
     35 H          -6.6281   -7.5691   -0.0727 H       1  LIG1        0.0279
     36 H          -6.8365   -6.8565   -1.6794 H       1  LIG1        0.0279
     37 H          -7.7588   -6.2136   -0.3085 H       1  LIG1        0.0279
     38 C          -3.9228   -7.2001    0.7703 C.ar    1  LIG1        0.0768
     39 C          -3.7348   -8.4122    0.1375 C.ar    1  LIG1        0.0344
     40 C          -3.1528   -9.3173    1.0786 C.ar    1  LIG1       -0.0193
     41 C          -2.9973   -8.6113    2.2449 C.ar    1  LIG1        0.0062
     42 N          -3.4632   -7.3403    2.0507 N.ar    1  LIG1       -0.3584
     43 H          -3.5756   -6.6415    2.7681 H       1  LIG1        0.1654
     44 H          -2.5988   -8.9229    3.1955 H       1  LIG1        0.0810
     45 S          -4.1990   -8.7727   -1.5301 S.3     1  LIG1       -0.1403
     46 H          -2.9634   -8.9400   -2.0203 H       1  LIG1        0.1072
     47 C          -2.7774  -10.7537    0.8209 C.3     1  LIG1       -0.0372
     48 H          -2.4338  -11.2232    1.7423 H       1  LIG1        0.0278
     49 H          -1.9791  -10.8193    0.0793 H       1  LIG1        0.0278
     50 H          -3.6392  -11.3040    0.4415 H       1  LIG1        0.0278
@<TRIPOS>BOND
     1     7     1    1
     2     6     5    1
     3    33    32    1
     4     1     5   ar
     5     1     2   ar
     6     5     4   ar
     7    46    45    1
     8    36    34    1
     9    45    39    1
    10    32    27    1
    11     2     8    1
    12     2     3   ar
    13    19    18    1
    14     8     9    1
    15     4    14    1
    16     4     3   ar
    17    34    37    1
    18    34    28    1
    19    34    35    1
    20    18    14   ar
    21    18    17   ar
    22    27    28   ar
    23    27    26   ar
    24    14    15   ar
    25    28    29   ar
    26     3    10    1
    27    21    20    1
    28    26    17    1
    29    26    30   ar
    30    17    16   ar
    31    49    47    1
    32    39    38   ar
    33    39    40   ar
    34    15    16   ar
    35    15    20    1
    36    29    30   ar
    37    29    38    1
    38    30    31    1
    39    16    22    1
    40    50    47    1
    41    24    22    1
    42    38    42   ar
    43    47    40    1
    44    47    48    1
    45    40    41   ar
    46    22    23    1
    47    22    25    1
    48    10    12    1
    49    10    13    1
    50    10    11    1
    51    42    41   ar
    52    42    43    1
    53    41    44    1
