@<TRIPOS>MOLECULE
mol_data/opt/m06hf/geoms/mol2/13gi13gi-13gi13gi.out
 50 53 0 0 0
SMALL
GASTEIGER

@<TRIPOS>ATOM
      1 C           0.2955    0.4132   -2.4210 C.ar    1  LIG1        0.0157
      2 C           0.6462    0.9936   -1.2251 C.ar    1  LIG1        0.0256
      3 C          -0.3621    0.6745   -0.2644 C.ar    1  LIG1       -0.0106
      4 C          -1.2990   -0.0821   -0.9305 C.ar    1  LIG1        0.0680
      5 N          -0.8791   -0.2426   -2.2317 N.ar    1  LIG1       -0.3583
      6 H          -1.4297   -0.6796   -2.9536 H       1  LIG1        0.1654
      7 H           0.7989    0.4318   -3.3720 H       1  LIG1        0.0818
      8 S           2.1368    1.9048   -0.9363 S.3     1  LIG1       -0.1409
      9 H           1.5886    3.1268   -0.9279 H       1  LIG1        0.1072
     10 C          -0.3809    1.0720    1.1871 C.3     1  LIG1       -0.0366
     11 H          -1.1351    0.4924    1.7203 H       1  LIG1        0.0279
     12 H          -0.6211    2.1317    1.2903 H       1  LIG1        0.0279
     13 H           0.5979    0.8939    1.6335 H       1  LIG1        0.0279
     14 C          -2.5436   -0.6926   -0.4544 C.ar    1  LIG1        0.0772
     15 C          -3.6477   -0.1461    0.1722 C.ar    1  LIG1        0.0351
     16 C          -4.5838   -1.1935    0.4215 C.ar    1  LIG1       -0.0099
     17 C          -4.0205   -2.3445   -0.0850 C.ar    1  LIG1        0.0685
     18 N          -2.7876   -2.0279   -0.5994 N.ar    1  LIG1       -0.3508
     19 H          -2.1500   -2.6833   -1.0245 H       1  LIG1        0.1660
     20 S          -3.8316    1.5571    0.6142 S.3     1  LIG1       -0.1403
     21 H          -4.8174    1.8368   -0.2494 H       1  LIG1        0.1072
     22 C          -5.9158   -1.0611    1.1093 C.3     1  LIG1       -0.0366
     23 H          -6.2883   -2.0470    1.3907 H       1  LIG1        0.0279
     24 H          -6.6463   -0.5924    0.4471 H       1  LIG1        0.0279
     25 H          -5.8103   -0.4441    2.0022 H       1  LIG1        0.0279
     26 C          -4.5218   -3.7212   -0.0948 C.ar    1  LIG1        0.0772
     27 C          -5.7076   -4.2550   -0.5627 C.ar    1  LIG1        0.0351
     28 C          -5.6962   -5.6592   -0.3082 C.ar    1  LIG1       -0.0099
     29 C          -4.4851   -5.9342    0.2885 C.ar    1  LIG1        0.0685
     30 N          -3.7937   -4.7555    0.4193 N.ar    1  LIG1       -0.3508
     31 H          -2.8838   -4.6649    0.8444 H       1  LIG1        0.1660
     32 S          -7.0167   -3.3305   -1.3111 S.3     1  LIG1       -0.1403
     33 H          -6.9281   -3.8927   -2.5233 H       1  LIG1        0.1072
     34 C          -6.7989   -6.6358   -0.6162 C.3     1  LIG1       -0.0366
     35 H          -6.6287   -7.5685   -0.0771 H       1  LIG1        0.0279
     36 H          -6.8331   -6.8567   -1.6847 H       1  LIG1        0.0279
     37 H          -7.7587   -6.2129   -0.3164 H       1  LIG1        0.0279
     38 C          -3.9255   -7.1994    0.7726 C.ar    1  LIG1        0.0768
     39 C          -3.7361   -8.4119    0.1409 C.ar    1  LIG1        0.0344
     40 C          -3.1567   -9.3166    1.0840 C.ar    1  LIG1       -0.0193
     41 C          -3.0042   -8.6101    2.2504 C.ar    1  LIG1        0.0062
     42 N          -3.4694   -7.3391    2.0542 N.ar    1  LIG1       -0.3584
     43 H          -3.5836   -6.6399    2.7710 H       1  LIG1        0.1654
     44 H          -2.6082   -8.9213    3.2021 H       1  LIG1        0.0810
     45 S          -4.1958   -8.7732   -1.5277 S.3     1  LIG1       -0.1403
     46 H          -2.9589   -8.9410   -2.0145 H       1  LIG1        0.1072
     47 C          -2.7808  -10.7532    0.8280 C.3     1  LIG1       -0.0372
     48 H          -2.4398  -11.2223    1.7506 H       1  LIG1        0.0278
     49 H          -1.9805  -10.8192    0.0886 H       1  LIG1        0.0278
     50 H          -3.6416  -11.3036    0.4466 H       1  LIG1        0.0278
@<TRIPOS>BOND
     1     7     1    1
     2     6     5    1
     3    33    32    1
     4     1     5   ar
     5     1     2   ar
     6     5     4   ar
     7    46    45    1
     8    36    34    1
     9    45    39    1
    10    32    27    1
    11     2     8    1
    12     2     3   ar
    13    19    18    1
    14     8     9    1
    15     4    14    1
    16     4     3   ar
    17    34    37    1
    18    34    28    1
    19    34    35    1
    20    18    14   ar
    21    18    17   ar
    22    27    28   ar
    23    27    26   ar
    24    14    15   ar
    25    28    29   ar
    26     3    10    1
    27    21    20    1
    28    26    17    1
    29    26    30   ar
    30    17    16   ar
    31    49    47    1
    32    39    38   ar
    33    39    40   ar
    34    15    16   ar
    35    15    20    1
    36    29    30   ar
    37    29    38    1
    38    30    31    1
    39    16    22    1
    40    50    47    1
    41    24    22    1
    42    38    42   ar
    43    47    40    1
    44    47    48    1
    45    40    41   ar
    46    22    23    1
    47    22    25    1
    48    10    12    1
    49    10    13    1
    50    10    11    1
    51    42    41   ar
    52    42    43    1
    53    41    44    1
