@<TRIPOS>MOLECULE
mol_data/opt/m06hf/geoms/mol2/13gi13gi13gi-13gi-.out
 50 53 0 0 0
SMALL
GASTEIGER

@<TRIPOS>ATOM
      1 C           0.2606    0.4583   -2.4397 C.ar    1  LIG1        0.0157
      2 C           0.6262    1.0184   -1.2385 C.ar    1  LIG1        0.0256
      3 C          -0.3695    0.6818   -0.2707 C.ar    1  LIG1       -0.0106
      4 C          -1.3142   -0.0642   -0.9376 C.ar    1  LIG1        0.0680
      5 N          -0.9109   -0.2018   -2.2466 N.ar    1  LIG1       -0.3583
      6 H          -1.4704   -0.6271   -2.9688 H       1  LIG1        0.1654
      7 H           0.7518    0.4938   -3.3966 H       1  LIG1        0.0818
      8 S           2.1197    1.9259   -0.9533 S.3     1  LIG1       -0.1409
      9 H           1.5708    3.1471   -0.9167 H       1  LIG1        0.1072
     10 C          -0.3700    1.0544    1.1876 C.3     1  LIG1       -0.0366
     11 H          -1.1167    0.4647    1.7205 H       1  LIG1        0.0279
     12 H          -0.6100    2.1119    1.3120 H       1  LIG1        0.0279
     13 H           0.6146    0.8700    1.6182 H       1  LIG1        0.0279
     14 C          -2.5521   -0.6840   -0.4562 C.ar    1  LIG1        0.0772
     15 C          -3.6486   -0.1496    0.1938 C.ar    1  LIG1        0.0351
     16 C          -4.5806   -1.2021    0.4369 C.ar    1  LIG1       -0.0099
     17 C          -4.0229   -2.3436   -0.0965 C.ar    1  LIG1        0.0685
     18 N          -2.7969   -2.0169   -0.6211 N.ar    1  LIG1       -0.3508
     19 H          -2.1642   -2.6642   -1.0655 H       1  LIG1        0.1660
     20 S          -3.8281    1.5456    0.6674 S.3     1  LIG1       -0.1403
     21 H          -4.8253    1.8391   -0.1784 H       1  LIG1        0.1072
     22 C          -5.9038   -1.0829    1.1439 C.3     1  LIG1       -0.0366
     23 H          -6.2717   -2.0739    1.4131 H       1  LIG1        0.0279
     24 H          -6.6431   -0.6039    0.4993 H       1  LIG1        0.0279
     25 H          -5.7874   -0.4812    2.0458 H       1  LIG1        0.0279
     26 C          -4.5231   -3.7205   -0.1236 C.ar    1  LIG1        0.0772
     27 C          -5.7143   -4.2475   -0.5854 C.ar    1  LIG1        0.0351
     28 C          -5.6984   -5.6558   -0.3553 C.ar    1  LIG1       -0.0099
     29 C          -4.4794   -5.9397    0.2209 C.ar    1  LIG1        0.0685
     30 N          -3.7875   -4.7626    0.3632 N.ar    1  LIG1       -0.3508
     31 H          -2.8723   -4.6783    0.7780 H       1  LIG1        0.1660
     32 S          -7.0337   -3.3116   -1.3010 S.3     1  LIG1       -0.1403
     33 H          -6.9601   -3.8528   -2.5237 H       1  LIG1        0.1072
     34 C          -6.8040   -6.6283   -0.6660 C.3     1  LIG1       -0.0366
     35 H          -6.6262   -7.5698   -0.1449 H       1  LIG1        0.0279
     36 H          -6.8513   -6.8312   -1.7376 H       1  LIG1        0.0279
     37 H          -7.7602   -6.2116   -0.3471 H       1  LIG1        0.0279
     38 C          -3.9126   -7.2124    0.6763 C.ar    1  LIG1        0.0768
     39 C          -3.7306   -8.4139    0.0218 C.ar    1  LIG1        0.0344
     40 C          -3.1384   -9.3339    0.9419 C.ar    1  LIG1       -0.0193
     41 C          -2.9711   -8.6469    2.1179 C.ar    1  LIG1        0.0062
     42 N          -3.4397   -7.3732    1.9493 N.ar    1  LIG1       -0.3584
     43 H          -3.5452   -6.6863    2.6792 H       1  LIG1        0.1654
     44 H          -2.5626   -8.9737    3.0591 H       1  LIG1        0.0810
     45 S          -4.2119   -8.7475   -1.6465 S.3     1  LIG1       -0.1403
     46 H          -2.9813   -8.9058   -2.1522 H       1  LIG1        0.1072
     47 C          -2.7648  -10.7656    0.6570 C.3     1  LIG1       -0.0372
     48 H          -2.4122  -11.2500    1.5671 H       1  LIG1        0.0278
     49 H          -1.9736  -10.8184   -0.0933 H       1  LIG1        0.0278
     50 H          -3.6300  -11.3100    0.2768 H       1  LIG1        0.0278
@<TRIPOS>BOND
     1     7     1    1
     2     6     5    1
     3    33    32    1
     4     1     5   ar
     5     1     2   ar
     6     5     4   ar
     7    46    45    1
     8    36    34    1
     9    45    39    1
    10    32    27    1
    11     2     8    1
    12     2     3   ar
    13    19    18    1
    14     8     9    1
    15     4    14    1
    16     4     3   ar
    17    34    28    1
    18    34    37    1
    19    34    35    1
    20    18    14   ar
    21    18    17   ar
    22    27    28   ar
    23    27    26   ar
    24    14    15   ar
    25    28    29   ar
    26     3    10    1
    27    21    20    1
    28    26    17    1
    29    26    30   ar
    30    17    16   ar
    31    49    47    1
    32    39    38   ar
    33    39    40   ar
    34    15    16   ar
    35    15    20    1
    36    29    30   ar
    37    29    38    1
    38    50    47    1
    39    30    31    1
    40    16    22    1
    41    24    22    1
    42    47    40    1
    43    47    48    1
    44    38    42   ar
    45    40    41   ar
    46    22    23    1
    47    22    25    1
    48    10    12    1
    49    10    13    1
    50    10    11    1
    51    42    41   ar
    52    42    43    1
    53    41    44    1
