@<TRIPOS>MOLECULE
mol_data/opt/m06hf/geoms/mol2/13gi.out
 14 14 0 0 0
SMALL
GASTEIGER

@<TRIPOS>ATOM
      1 C           1.1121   -0.3620    0.0184 C.ar    1  LIG1        0.0152
      2 C           0.6543    0.9311    0.0889 C.ar    1  LIG1        0.0250
      3 C          -0.7765    0.8934    0.0866 C.ar    1  LIG1       -0.0200
      4 C          -1.1216   -0.4316    0.0065 C.ar    1  LIG1        0.0056
      5 N           0.0256   -1.1796   -0.0299 N.ar    1  LIG1       -0.3658
      6 H           0.0598   -2.1844   -0.0784 H       1  LIG1        0.1648
      7 H          -2.0929   -0.8951   -0.0243 H       1  LIG1        0.0810
      8 H           2.1203   -0.7396    0.0050 H       1  LIG1        0.0818
      9 S           1.6815    2.3628    0.2545 S.3     1  LIG1       -0.1409
     10 H           1.5136    2.8440   -0.9841 H       1  LIG1        0.1072
     11 C          -1.7027    2.0801    0.1526 C.3     1  LIG1       -0.0373
     12 H          -2.7371    1.7460    0.2338 H       1  LIG1        0.0278
     13 H          -1.6058    2.6963   -0.7429 H       1  LIG1        0.0278
     14 H          -1.4608    2.6990    1.0174 H       1  LIG1        0.0278
@<TRIPOS>BOND
     1    10     9    1
     2    13    11    1
     3     6     5    1
     4     5     4   ar
     5     5     1   ar
     6     7     4    1
     7     8     1    1
     8     4     3   ar
     9     1     2   ar
    10     3     2   ar
    11     3    11    1
    12     2     9    1
    13    11    12    1
    14    11    14    1
