@<TRIPOS>MOLECULE
mol_data/opt/m06hf/geoms/mol2/13gi13gi-13gi.out
 38 40 0 0 0
SMALL
GASTEIGER

@<TRIPOS>ATOM
      1 C           0.8294   -0.0321   -1.5139 C.ar    1  LIG1        0.0157
      2 C           0.7981    0.8899   -0.4938 C.ar    1  LIG1        0.0256
      3 C          -0.4737    0.7944    0.1510 C.ar    1  LIG1       -0.0106
      4 C          -1.1700   -0.1853   -0.5200 C.ar    1  LIG1        0.0680
      5 N          -0.3627   -0.6829   -1.5175 N.ar    1  LIG1       -0.3583
      6 H          -0.6621   -1.3567   -2.2048 H       1  LIG1        0.1654
      7 H           1.6112   -0.2552   -2.2192 H       1  LIG1        0.0818
      8 S           2.1637    1.9088   -0.0158 S.3     1  LIG1       -0.1409
      9 H           1.7011    3.0692   -0.4975 H       1  LIG1        0.1072
     10 C          -0.9483    1.5942    1.3344 C.3     1  LIG1       -0.0366
     11 H          -1.8298    1.1235    1.7713 H       1  LIG1        0.0279
     12 H          -1.2138    2.6076    1.0286 H       1  LIG1        0.0279
     13 H          -0.1587    1.6531    2.0842 H       1  LIG1        0.0279
     14 C          -2.5106   -0.7311   -0.2875 C.ar    1  LIG1        0.0772
     15 C          -3.7513   -0.1245   -0.2375 C.ar    1  LIG1        0.0351
     16 C          -4.7285   -1.1283    0.0340 C.ar    1  LIG1       -0.0099
     17 C          -4.0442   -2.3210    0.1218 C.ar    1  LIG1        0.0685
     18 N          -2.7091   -2.0630   -0.0654 N.ar    1  LIG1       -0.3508
     19 H          -1.9753   -2.7547   -0.0350 H       1  LIG1        0.1660
     20 S          -4.0399    1.6110   -0.4219 S.3     1  LIG1       -0.1403
     21 H          -4.7483    1.5343   -1.5564 H       1  LIG1        0.1072
     22 C          -6.2104   -0.9200    0.1935 C.3     1  LIG1       -0.0366
     23 H          -6.6578   -1.7908    0.6737 H       1  LIG1        0.0279
     24 H          -6.6854   -0.7801   -0.7793 H       1  LIG1        0.0279
     25 H          -6.3946   -0.0341    0.8024 H       1  LIG1        0.0279
     26 C          -4.5199   -3.6782    0.4063 C.ar    1  LIG1        0.0768
     27 C          -5.4619   -4.4677   -0.2216 C.ar    1  LIG1        0.0344
     28 C          -5.5385   -5.7104    0.4818 C.ar    1  LIG1       -0.0193
     29 C          -4.6268   -5.6292    1.5044 C.ar    1  LIG1        0.0062
     30 N          -4.0206   -4.4048    1.4516 N.ar    1  LIG1       -0.3584
     31 H          -3.3862   -4.0322    2.1404 H       1  LIG1        0.1654
     32 H          -4.3739   -6.3478    2.2656 H       1  LIG1        0.0810
     33 S          -6.4289   -3.9794   -1.6197 S.3     1  LIG1       -0.1403
     34 H          -5.8678   -4.8092   -2.5100 H       1  LIG1        0.1072
     35 C          -6.4357   -6.8732    0.1459 C.3     1  LIG1       -0.0372
     36 H          -6.3494   -7.6474    0.9082 H       1  LIG1        0.0278
     37 H          -6.1662   -7.3054   -0.8195 H       1  LIG1        0.0278
     38 H          -7.4732   -6.5420    0.0913 H       1  LIG1        0.0278
@<TRIPOS>BOND
     1    34    33    1
     2     7     1    1
     3     6     5    1
     4    33    27    1
     5    21    20    1
     6     5     1   ar
     7     5     4   ar
     8     1     2   ar
     9    37    35    1
    10    24    22    1
    11     4    14    1
    12     4     3   ar
    13     9     8    1
    14     2     8    1
    15     2     3   ar
    16    20    15    1
    17    14    15   ar
    18    14    18   ar
    19    15    16   ar
    20    27    26   ar
    21    27    28   ar
    22    18    19    1
    23    18    17   ar
    24    16    17   ar
    25    16    22    1
    26    38    35    1
    27    17    26    1
    28    35    28    1
    29    35    36    1
    30     3    10    1
    31    22    23    1
    32    22    25    1
    33    26    30   ar
    34    28    29   ar
    35    12    10    1
    36    10    11    1
    37    10    13    1
    38    30    29   ar
    39    30    31    1
    40    29    32    1
