@<TRIPOS>MOLECULE
mol_data/opt/m06hf/geoms/mol2/13gi13gi13gi13gi-.out
 50 53 0 0 0
SMALL
GASTEIGER

@<TRIPOS>ATOM
      1 C           0.2801    0.4315   -2.4453 C.ar    1  LIG1        0.0157
      2 C           0.6361    1.0049   -1.2476 C.ar    1  LIG1        0.0256
      3 C          -0.3673    0.6790   -0.2840 C.ar    1  LIG1       -0.0106
      4 C          -1.3066   -0.0745   -0.9501 C.ar    1  LIG1        0.0680
      5 N          -0.8929   -0.2266   -2.2543 N.ar    1  LIG1       -0.3583
      6 H          -1.4466   -0.6598   -2.9762 H       1  LIG1        0.1654
      7 H           0.7789    0.4564   -3.3986 H       1  LIG1        0.0818
      8 S           2.1272    1.9158   -0.9605 S.3     1  LIG1       -0.1409
      9 H           1.5778    3.1373   -0.9421 H       1  LIG1        0.1072
     10 C          -0.3795    1.0677    1.1700 C.3     1  LIG1       -0.0366
     11 H          -1.1302    0.4838    1.7034 H       1  LIG1        0.0279
     12 H          -0.6206    2.1264    1.2808 H       1  LIG1        0.0279
     13 H           0.6018    0.8883    1.6104 H       1  LIG1        0.0279
     14 C          -2.5484   -0.6890   -0.4718 C.ar    1  LIG1        0.0772
     15 C          -3.6498   -0.1474    0.1637 C.ar    1  LIG1        0.0351
     16 C          -4.5838   -1.1972    0.4110 C.ar    1  LIG1       -0.0099
     17 C          -4.0220   -2.3446   -0.1053 C.ar    1  LIG1        0.0685
     18 N          -2.7918   -2.0237   -0.6237 N.ar    1  LIG1       -0.3508
     19 H          -2.1557   -2.6758   -1.0559 H       1  LIG1        0.1660
     20 S          -3.8330    1.5528    0.6173 S.3     1  LIG1       -0.1403
     21 H          -4.8233    1.8370   -0.2398 H       1  LIG1        0.1072
     22 C          -5.9126   -1.0703    1.1062 C.3     1  LIG1       -0.0366
     23 H          -6.2828   -2.0582    1.3832 H       1  LIG1        0.0279
     24 H          -6.6467   -0.5982    0.4505 H       1  LIG1        0.0279
     25 H          -5.8033   -0.4587    2.0024 H       1  LIG1        0.0279
     26 C          -4.5222   -3.7216   -0.1214 C.ar    1  LIG1        0.0772
     27 C          -5.7096   -4.2535   -0.5871 C.ar    1  LIG1        0.0351
     28 C          -5.6959   -5.6593   -0.3412 C.ar    1  LIG1       -0.0099
     29 C          -4.4819   -5.9369    0.2481 C.ar    1  LIG1        0.0685
     30 N          -3.7909   -4.7584    0.3830 N.ar    1  LIG1       -0.3508
     31 H          -2.8791   -4.6696    0.8043 H       1  LIG1        0.1660
     32 S          -7.0229   -3.3256   -1.3240 S.3     1  LIG1       -0.1403
     33 H          -6.9394   -3.8806   -2.5399 H       1  LIG1        0.1072
     34 C          -6.7992   -6.6349   -0.6503 C.3     1  LIG1       -0.0366
     35 H          -6.6258   -7.5707   -0.1175 H       1  LIG1        0.0279
     36 H          -6.8379   -6.8495   -1.7199 H       1  LIG1        0.0279
     37 H          -7.7579   -6.2146   -0.3436 H       1  LIG1        0.0279
     38 C          -3.9190   -7.2046    0.7219 C.ar    1  LIG1        0.0768
     39 C          -3.7316   -8.4131    0.0819 C.ar    1  LIG1        0.0344
     40 C          -3.1470   -9.3230    1.0167 C.ar    1  LIG1       -0.0193
     41 C          -2.9895   -8.6234    2.1867 C.ar    1  LIG1        0.0062
     42 N          -3.4567   -7.3516    2.0005 N.ar    1  LIG1       -0.3584
     43 H          -3.5680   -6.6569    2.7220 H       1  LIG1        0.1654
     44 H          -2.5888   -8.9401    3.1346 H       1  LIG1        0.0810
     45 S          -4.1991   -8.7646   -1.5866 S.3     1  LIG1       -0.1403
     46 H          -2.9644   -8.9284   -2.0803 H       1  LIG1        0.1072
     47 C          -2.7712  -10.7577    0.7503 C.3     1  LIG1       -0.0372
     48 H          -2.4254  -11.2321    1.6683 H       1  LIG1        0.0278
     49 H          -1.9744  -10.8186    0.0066 H       1  LIG1        0.0278
     50 H          -3.6334  -11.3064    0.3697 H       1  LIG1        0.0278
@<TRIPOS>BOND
     1     7     1    1
     2     6     5    1
     3    33    32    1
     4     1     5   ar
     5     1     2   ar
     6     5     4   ar
     7    46    45    1
     8    36    34    1
     9    45    39    1
    10    32    27    1
    11     2     8    1
    12     2     3   ar
    13    19    18    1
    14     8     9    1
    15     4    14    1
    16     4     3   ar
    17    34    37    1
    18    34    28    1
    19    34    35    1
    20    18    14   ar
    21    18    17   ar
    22    27    28   ar
    23    27    26   ar
    24    14    15   ar
    25    28    29   ar
    26     3    10    1
    27    21    20    1
    28    26    17    1
    29    26    30   ar
    30    17    16   ar
    31    49    47    1
    32    39    38   ar
    33    39    40   ar
    34    15    16   ar
    35    15    20    1
    36    29    30   ar
    37    29    38    1
    38    50    47    1
    39    30    31    1
    40    16    22    1
    41    24    22    1
    42    38    42   ar
    43    47    40    1
    44    47    48    1
    45    40    41   ar
    46    22    23    1
    47    22    25    1
    48    10    12    1
    49    10    13    1
    50    10    11    1
    51    42    41   ar
    52    42    43    1
    53    41    44    1
