@<TRIPOS>MOLECULE
mol_data/opt/m06hf/geoms/mol2/13gi13gi-13gi-.out
 38 40 0 0 0
SMALL
GASTEIGER

@<TRIPOS>ATOM
      1 C           0.8274   -0.0341   -1.5193 C.ar    1  LIG1        0.0157
      2 C           0.7977    0.8888   -0.5001 C.ar    1  LIG1        0.0256
      3 C          -0.4731    0.7941    0.1467 C.ar    1  LIG1       -0.0106
      4 C          -1.1705   -0.1861   -0.5223 C.ar    1  LIG1        0.0680
      5 N          -0.3647   -0.6849   -1.5204 N.ar    1  LIG1       -0.3583
      6 H          -0.6653   -1.3593   -2.2066 H       1  LIG1        0.1654
      7 H           1.6081   -0.2581   -2.2256 H       1  LIG1        0.0818
      8 S           2.1642    1.9081   -0.0252 S.3     1  LIG1       -0.1409
      9 H           1.7009    3.0681   -0.5073 H       1  LIG1        0.1072
     10 C          -0.9458    1.5951    1.3300 C.3     1  LIG1       -0.0366
     11 H          -1.8268    1.1251    1.7686 H       1  LIG1        0.0279
     12 H          -1.2116    2.6083    1.0236 H       1  LIG1        0.0279
     13 H          -0.1551    1.6546    2.0787 H       1  LIG1        0.0279
     14 C          -2.5108   -0.7315   -0.2873 C.ar    1  LIG1        0.0772
     15 C          -3.7514   -0.1246   -0.2361 C.ar    1  LIG1        0.0351
     16 C          -4.7283   -1.1281    0.0378 C.ar    1  LIG1       -0.0099
     17 C          -4.0440   -2.3208    0.1258 C.ar    1  LIG1        0.0685
     18 N          -2.7092   -2.0632   -0.0635 N.ar    1  LIG1       -0.3508
     19 H          -1.9754   -2.7549   -0.0335 H       1  LIG1        0.1660
     20 S          -4.0401    1.6107   -0.4219 S.3     1  LIG1       -0.1403
     21 H          -4.7500    1.5329   -1.5554 H       1  LIG1        0.1072
     22 C          -6.2099   -0.9194    0.1993 C.3     1  LIG1       -0.0366
     23 H          -6.6568   -1.7896    0.6811 H       1  LIG1        0.0279
     24 H          -6.6863   -0.7805   -0.7729 H       1  LIG1        0.0279
     25 H          -6.3932   -0.0329    0.8076 H       1  LIG1        0.0279
     26 C          -4.5195   -3.6776    0.4123 C.ar    1  LIG1        0.0768
     27 C          -5.4626   -4.4676   -0.2134 C.ar    1  LIG1        0.0344
     28 C          -5.5383   -5.7096    0.4912 C.ar    1  LIG1       -0.0193
     29 C          -4.6251   -5.6276    1.5124 C.ar    1  LIG1        0.0062
     30 N          -4.0188   -4.4034    1.4575 N.ar    1  LIG1       -0.3584
     31 H          -3.3833   -4.0302    2.1451 H       1  LIG1        0.1654
     32 H          -4.3711   -6.3455    2.2738 H       1  LIG1        0.0810
     33 S          -6.4317   -3.9805   -1.6104 S.3     1  LIG1       -0.1403
     34 H          -5.8719   -4.8110   -2.5009 H       1  LIG1        0.1072
     35 C          -6.4362   -6.8726    0.1578 C.3     1  LIG1       -0.0372
     36 H          -6.3485   -7.6462    0.9205 H       1  LIG1        0.0278
     37 H          -6.1686   -7.3054   -0.8078 H       1  LIG1        0.0278
     38 H          -7.4738   -6.5414    0.1049 H       1  LIG1        0.0278
@<TRIPOS>BOND
     1    34    33    1
     2     7     1    1
     3     6     5    1
     4    33    27    1
     5    21    20    1
     6     5     1   ar
     7     5     4   ar
     8     1     2   ar
     9    37    35    1
    10    24    22    1
    11     4    14    1
    12     4     3   ar
    13     9     8    1
    14     2     8    1
    15     2     3   ar
    16    20    15    1
    17    14    15   ar
    18    14    18   ar
    19    15    16   ar
    20    27    26   ar
    21    27    28   ar
    22    18    19    1
    23    18    17   ar
    24    16    17   ar
    25    16    22    1
    26    38    35    1
    27    17    26    1
    28     3    10    1
    29    35    28    1
    30    35    36    1
    31    22    23    1
    32    22    25    1
    33    26    30   ar
    34    28    29   ar
    35    12    10    1
    36    10    11    1
    37    10    13    1
    38    30    29   ar
    39    30    31    1
    40    29    32    1
