@<TRIPOS>MOLECULE
mol_data/opt/m06hf/geoms/mol2/13gi13gi13gi.out
 38 40 0 0 0
SMALL
GASTEIGER

@<TRIPOS>ATOM
      1 C           0.8182   -0.0086   -1.5303 C.ar    1  LIG1        0.0157
      2 C           0.7915    0.9012   -0.4993 C.ar    1  LIG1        0.0256
      3 C          -0.4763    0.7964    0.1516 C.ar    1  LIG1       -0.0106
      4 C          -1.1752   -0.1763   -0.5269 C.ar    1  LIG1        0.0680
      5 N          -0.3730   -0.6611   -1.5347 N.ar    1  LIG1       -0.3583
      6 H          -0.6755   -1.3271   -2.2282 H       1  LIG1        0.1654
      7 H           1.5962   -0.2224   -2.2427 H       1  LIG1        0.0818
      8 S           2.1586    1.9164   -0.0172 S.3     1  LIG1       -0.1409
      9 H           1.6916    3.0817   -0.4825 H       1  LIG1        0.1072
     10 C          -0.9452    1.5815    1.3471 C.3     1  LIG1       -0.0366
     11 H          -1.8236    1.1046    1.7834 H       1  LIG1        0.0279
     12 H          -1.2137    2.5981    1.0548 H       1  LIG1        0.0279
     13 H          -0.1514    1.6326    2.0930 H       1  LIG1        0.0279
     14 C          -2.5137   -0.7266   -0.2932 C.ar    1  LIG1        0.0772
     15 C          -3.7549   -0.1223   -0.2289 C.ar    1  LIG1        0.0351
     16 C          -4.7293   -1.1306    0.0363 C.ar    1  LIG1       -0.0099
     17 C          -4.0428   -2.3234    0.1062 C.ar    1  LIG1        0.0685
     18 N          -2.7092   -2.0613   -0.0855 N.ar    1  LIG1       -0.3508
     19 H          -1.9744   -2.7522   -0.0674 H       1  LIG1        0.1660
     20 S          -4.0469    1.6148   -0.3914 S.3     1  LIG1       -0.1403
     21 H          -4.7616    1.5503   -1.5228 H       1  LIG1        0.1072
     22 C          -6.2105   -0.9262    0.2067 C.3     1  LIG1       -0.0366
     23 H          -6.6540   -1.8032    0.6793 H       1  LIG1        0.0279
     24 H          -6.6912   -0.7757   -0.7616 H       1  LIG1        0.0279
     25 H          -6.3924   -0.0478    0.8270 H       1  LIG1        0.0279
     26 C          -4.5152   -3.6844    0.3774 C.ar    1  LIG1        0.0768
     27 C          -5.4598   -4.4677   -0.2543 C.ar    1  LIG1        0.0344
     28 C          -5.5306   -5.7187    0.4347 C.ar    1  LIG1       -0.0193
     29 C          -4.6132   -5.6484    1.4530 C.ar    1  LIG1        0.0062
     30 N          -4.0089   -4.4227    1.4111 N.ar    1  LIG1       -0.3584
     31 H          -3.3711   -4.0573    2.1008 H       1  LIG1        0.1654
     32 H          -4.3549   -6.3756    2.2041 H       1  LIG1        0.0810
     33 S          -6.4356   -3.9643   -1.6409 S.3     1  LIG1       -0.1403
     34 H          -5.8784   -4.7825   -2.5442 H       1  LIG1        0.1072
     35 C          -6.4283   -6.8788    0.0903 C.3     1  LIG1       -0.0372
     36 H          -6.3362   -7.6619    0.8427 H       1  LIG1        0.0278
     37 H          -6.1642   -7.2988   -0.8819 H       1  LIG1        0.0278
     38 H          -7.4666   -6.5485    0.0461 H       1  LIG1        0.0278
@<TRIPOS>BOND
     1    34    33    1
     2     7     1    1
     3     6     5    1
     4    33    27    1
     5     5     1   ar
     6     5     4   ar
     7     1     2   ar
     8    21    20    1
     9    37    35    1
    10    24    22    1
    11     4    14    1
    12     4     3   ar
    13     2     8    1
    14     2     3   ar
    15     9     8    1
    16    20    15    1
    17    14    15   ar
    18    14    18   ar
    19    27    26   ar
    20    27    28   ar
    21    15    16   ar
    22    18    19    1
    23    18    17   ar
    24    16    17   ar
    25    16    22    1
    26    38    35    1
    27    35    28    1
    28    35    36    1
    29    17    26    1
    30     3    10    1
    31    22    23    1
    32    22    25    1
    33    26    30   ar
    34    28    29   ar
    35    12    10    1
    36    10    11    1
    37    10    13    1
    38    30    29   ar
    39    30    31    1
    40    29    32    1
