@<TRIPOS>MOLECULE
mol_data/opt/m06hf/geoms/mol2/13gi13gi13gi13gi.out
 50 53 0 0 0
SMALL
GASTEIGER

@<TRIPOS>ATOM
      1 C           0.2889    0.4394   -2.4169 C.ar    1  LIG1        0.0157
      2 C           0.6424    1.0072   -1.2157 C.ar    1  LIG1        0.0256
      3 C          -0.3636    0.6777   -0.2561 C.ar    1  LIG1       -0.0106
      4 C          -1.3019   -0.0720   -0.9279 C.ar    1  LIG1        0.0680
      5 N          -0.8851   -0.2185   -2.2317 N.ar    1  LIG1       -0.3583
      6 H          -1.4374   -0.6480   -2.9569 H       1  LIG1        0.1654
      7 H           0.7901    0.4682   -3.3689 H       1  LIG1        0.0818
      8 S           2.1335    1.9156   -0.9209 S.3     1  LIG1       -0.1409
      9 H           1.5851    3.1374   -0.8982 H       1  LIG1        0.1072
     10 C          -0.3790    1.0599    1.1996 C.3     1  LIG1       -0.0366
     11 H          -1.1318    0.4746    1.7285 H       1  LIG1        0.0279
     12 H          -0.6190    2.1184    1.3146 H       1  LIG1        0.0279
     13 H           0.6009    0.8772    1.6418 H       1  LIG1        0.0279
     14 C          -2.5453   -0.6876   -0.4554 C.ar    1  LIG1        0.0772
     15 C          -3.6479   -0.1480    0.1797 C.ar    1  LIG1        0.0351
     16 C          -4.5833   -1.1981    0.4201 C.ar    1  LIG1       -0.0099
     17 C          -4.0210   -2.3437   -0.0998 C.ar    1  LIG1        0.0685
     18 N          -2.7894   -2.0214   -0.6138 N.ar    1  LIG1       -0.3508
     19 H          -2.1528   -2.6721   -1.0474 H       1  LIG1        0.1660
     20 S          -3.8310    1.5504    0.6402 S.3     1  LIG1       -0.1403
     21 H          -4.8190    1.8391   -0.2180 H       1  LIG1        0.1072
     22 C          -5.9137   -1.0732    1.1125 C.3     1  LIG1       -0.0366
     23 H          -6.2854   -2.0621    1.3843 H       1  LIG1        0.0279
     24 H          -6.6458   -0.5978    0.4570 H       1  LIG1        0.0279
     25 H          -5.8062   -0.4657    2.0116 H       1  LIG1        0.0279
     26 C          -4.5222   -3.7202   -0.1230 C.ar    1  LIG1        0.0772
     27 C          -5.7089   -4.2493   -0.5937 C.ar    1  LIG1        0.0351
     28 C          -5.6967   -5.6561   -0.3541 C.ar    1  LIG1       -0.0099
     29 C          -4.4842   -5.9372    0.2367 C.ar    1  LIG1        0.0685
     30 N          -3.7927   -4.7597    0.3784 N.ar    1  LIG1       -0.3508
     31 H          -2.8818   -4.6735    0.8022 H       1  LIG1        0.1660
     32 S          -7.0200   -3.3172   -1.3293 S.3     1  LIG1       -0.1403
     33 H          -6.9341   -3.8666   -2.5475 H       1  LIG1        0.1072
     34 C          -6.7999   -6.6296   -0.6699 C.3     1  LIG1       -0.0366
     35 H          -6.6283   -7.5679   -0.1411 H       1  LIG1        0.0279
     36 H          -6.8367   -6.8392   -1.7405 H       1  LIG1        0.0279
     37 H          -7.7591   -6.2101   -0.3633 H       1  LIG1        0.0279
     38 C          -3.9232   -7.2073    0.7062 C.ar    1  LIG1        0.0768
     39 C          -3.7350   -8.4130    0.0612 C.ar    1  LIG1        0.0344
     40 C          -3.1533   -9.3276    0.9933 C.ar    1  LIG1       -0.0193
     41 C          -2.9982   -8.6333    2.1668 C.ar    1  LIG1        0.0062
     42 N          -3.4640   -7.3604    1.9852 N.ar    1  LIG1       -0.3584
     43 H          -3.5767   -6.6689    2.7095 H       1  LIG1        0.1654
     44 H          -2.5998   -8.9544    3.1143 H       1  LIG1        0.0810
     45 S          -4.1987   -8.7568   -1.6100 S.3     1  LIG1       -0.1403
     46 H          -2.9629   -8.9191   -2.1014 H       1  LIG1        0.1072
     47 C          -2.7777  -10.7612    0.7214 C.3     1  LIG1       -0.0372
     48 H          -2.4345  -11.2400    1.6381 H       1  LIG1        0.0278
     49 H          -1.9791  -10.8193   -0.0206 H       1  LIG1        0.0278
     50 H          -3.6393  -11.3077    0.3361 H       1  LIG1        0.0278
@<TRIPOS>BOND
     1     7     1    1
     2     6     5    1
     3    33    32    1
     4     1     5   ar
     5     1     2   ar
     6     5     4   ar
     7    46    45    1
     8    36    34    1
     9    45    39    1
    10    32    27    1
    11     2     8    1
    12     2     3   ar
    13    19    18    1
    14     4    14    1
    15     4     3   ar
    16     8     9    1
    17    34    37    1
    18    34    28    1
    19    34    35    1
    20    18    14   ar
    21    18    17   ar
    22    27    28   ar
    23    27    26   ar
    24    14    15   ar
    25    28    29   ar
    26     3    10    1
    27    21    20    1
    28    26    17    1
    29    26    30   ar
    30    17    16   ar
    31    49    47    1
    32    39    38   ar
    33    39    40   ar
    34    15    16   ar
    35    15    20    1
    36    29    30   ar
    37    29    38    1
    38    50    47    1
    39    30    31    1
    40    16    22    1
    41    24    22    1
    42    38    42   ar
    43    47    40    1
    44    47    48    1
    45    40    41   ar
    46    22    23    1
    47    22    25    1
    48    10    12    1
    49    10    13    1
    50    10    11    1
    51    42    41   ar
    52    42    43    1
    53    41    44    1
