@<TRIPOS>MOLECULE
mol_data/opt/m06hf/geoms/mol2/13gi13gi-13gi-13gi-.out
 50 53 0 0 0
SMALL
GASTEIGER

@<TRIPOS>ATOM
      1 C           0.2691    0.4262   -2.4507 C.ar    1  LIG1        0.0157
      2 C           0.6319    1.0009   -1.2556 C.ar    1  LIG1        0.0256
      3 C          -0.3664    0.6768   -0.2862 C.ar    1  LIG1       -0.0106
      4 C          -1.3098   -0.0769   -0.9463 C.ar    1  LIG1        0.0680
      5 N          -0.9033   -0.2308   -2.2525 N.ar    1  LIG1       -0.3583
      6 H          -1.4611   -0.6647   -2.9708 H       1  LIG1        0.1654
      7 H           0.7627    0.4496   -3.4067 H       1  LIG1        0.0818
      8 S           2.1252    1.9111   -0.9777 S.3     1  LIG1       -0.1409
      9 H           1.5768    3.1330   -0.9577 H       1  LIG1        0.1072
     10 C          -0.3705    1.0674    1.1673 C.3     1  LIG1       -0.0366
     11 H          -1.1189    0.4848    1.7055 H       1  LIG1        0.0279
     12 H          -0.6102    2.1265    1.2780 H       1  LIG1        0.0279
     13 H           0.6129    0.8878    1.6027 H       1  LIG1        0.0279
     14 C          -2.5494   -0.6901   -0.4605 C.ar    1  LIG1        0.0772
     15 C          -3.6472   -0.1470    0.1800 C.ar    1  LIG1        0.0351
     16 C          -4.5804   -1.1959    0.4337 C.ar    1  LIG1       -0.0099
     17 C          -4.0220   -2.3443   -0.0841 C.ar    1  LIG1        0.0685
     18 N          -2.7945   -2.0248   -0.6095 N.ar    1  LIG1       -0.3508
     19 H          -2.1610   -2.6779   -1.0442 H       1  LIG1        0.1660
     20 S          -3.8270    1.5539    0.6322 S.3     1  LIG1       -0.1403
     21 H          -4.8219    1.8375   -0.2198 H       1  LIG1        0.1072
     22 C          -5.9054   -1.0674    1.1358 C.3     1  LIG1       -0.0366
     23 H          -6.2745   -2.0548    1.4162 H       1  LIG1        0.0279
     24 H          -6.6428   -0.5960    0.4834 H       1  LIG1        0.0279
     25 H          -5.7910   -0.4546    2.0305 H       1  LIG1        0.0279
     26 C          -4.5229   -3.7211   -0.0955 C.ar    1  LIG1        0.0772
     27 C          -5.7132   -4.2532   -0.5537 C.ar    1  LIG1        0.0351
     28 C          -5.6986   -5.6586   -0.3062 C.ar    1  LIG1       -0.0099
     29 C          -4.4813   -5.9360    0.2766 C.ar    1  LIG1        0.0685
     30 N          -3.7891   -4.7575    0.4061 N.ar    1  LIG1       -0.3508
     31 H          -2.8749   -4.6686    0.8222 H       1  LIG1        0.1660
     32 S          -7.0302   -3.3256   -1.2843 S.3     1  LIG1       -0.1403
     33 H          -6.9537   -3.8819   -2.5000 H       1  LIG1        0.1072
     34 C          -6.8039   -6.6343   -0.6077 C.3     1  LIG1       -0.0366
     35 H          -6.6281   -7.5693   -0.0746 H       1  LIG1        0.0279
     36 H          -6.8487   -6.8504   -1.6768 H       1  LIG1        0.0279
     37 H          -7.7608   -6.2131   -0.2964 H       1  LIG1        0.0279
     38 C          -3.9164   -7.2032    0.7492 C.ar    1  LIG1        0.0768
     39 C          -3.7334   -8.4128    0.1101 C.ar    1  LIG1        0.0344
     40 C          -3.1440   -9.3217    1.0430 C.ar    1  LIG1       -0.0193
     41 C          -2.9794   -8.6203    2.2109 C.ar    1  LIG1        0.0062
     42 N          -3.4469   -7.3485    2.0253 N.ar    1  LIG1       -0.3584
     43 H          -3.5538   -6.6526    2.7463 H       1  LIG1        0.1654
     44 H          -2.5735   -8.9356    3.1571 H       1  LIG1        0.0810
     45 S          -4.2105   -8.7668   -1.5552 S.3     1  LIG1       -0.1403
     46 H          -2.9787   -8.9319   -2.0557 H       1  LIG1        0.1072
     47 C          -2.7705  -10.7569    0.7768 C.3     1  LIG1       -0.0372
     48 H          -2.4205  -11.2303    1.6937 H       1  LIG1        0.0278
     49 H          -1.9774  -10.8195    0.0293 H       1  LIG1        0.0278
     50 H          -3.6350  -11.3056    0.4011 H       1  LIG1        0.0278
@<TRIPOS>BOND
     1     7     1    1
     2     6     5    1
     3    33    32    1
     4     1     5   ar
     5     1     2   ar
     6     5     4   ar
     7    46    45    1
     8    36    34    1
     9    45    39    1
    10    32    27    1
    11     2     8    1
    12     2     3   ar
    13    19    18    1
    14     8     9    1
    15     4    14    1
    16     4     3   ar
    17    18    14   ar
    18    18    17   ar
    19    34    28    1
    20    34    37    1
    21    34    35    1
    22    27    28   ar
    23    27    26   ar
    24    14    15   ar
    25    28    29   ar
    26     3    10    1
    27    21    20    1
    28    26    17    1
    29    26    30   ar
    30    17    16   ar
    31    49    47    1
    32    39    38   ar
    33    39    40   ar
    34    15    16   ar
    35    15    20    1
    36    29    30   ar
    37    29    38    1
    38    50    47    1
    39    30    31    1
    40    16    22    1
    41    24    22    1
    42    38    42   ar
    43    47    40    1
    44    47    48    1
    45    40    41   ar
    46    22    23    1
    47    22    25    1
    48    10    12    1
    49    10    13    1
    50    10    11    1
    51    42    41   ar
    52    42    43    1
    53    41    44    1
