@<TRIPOS>MOLECULE
mol_data/opt/m06hf/geoms/mol2/13gi13gi13gi-.out
 38 40 0 0 0
SMALL
GASTEIGER

@<TRIPOS>ATOM
      1 C           0.8183   -0.0120   -1.5317 C.ar    1  LIG1        0.0157
      2 C           0.7928    0.8986   -0.5013 C.ar    1  LIG1        0.0256
      3 C          -0.4748    0.7949    0.1504 C.ar    1  LIG1       -0.0106
      4 C          -1.1746   -0.1778   -0.5269 C.ar    1  LIG1        0.0680
      5 N          -0.3733   -0.6638   -1.5349 N.ar    1  LIG1       -0.3583
      6 H          -0.6765   -1.3302   -2.2277 H       1  LIG1        0.1654
      7 H           1.5957   -0.2267   -2.2444 H       1  LIG1        0.0818
      8 S           2.1606    1.9134   -0.0207 S.3     1  LIG1       -0.1409
      9 H           1.6940    3.0786   -0.4866 H       1  LIG1        0.1072
     10 C          -0.9425    1.5812    1.3456 C.3     1  LIG1       -0.0366
     11 H          -1.8209    1.1051    1.7828 H       1  LIG1        0.0279
     12 H          -1.2106    2.5977    1.0527 H       1  LIG1        0.0279
     13 H          -0.1482    1.6324    2.0911 H       1  LIG1        0.0279
     14 C          -2.5133   -0.7273   -0.2920 C.ar    1  LIG1        0.0772
     15 C          -3.7541   -0.1222   -0.2275 C.ar    1  LIG1        0.0351
     16 C          -4.7289   -1.1298    0.0390 C.ar    1  LIG1       -0.0099
     17 C          -4.0430   -2.3229    0.1094 C.ar    1  LIG1        0.0685
     18 N          -2.7093   -2.0617   -0.0833 N.ar    1  LIG1       -0.3508
     19 H          -1.9749   -2.7530   -0.0651 H       1  LIG1        0.1660
     20 S          -4.0453    1.6149   -0.3910 S.3     1  LIG1       -0.1403
     21 H          -4.7606    1.5500   -1.5220 H       1  LIG1        0.1072
     22 C          -6.2098   -0.9245    0.2102 C.3     1  LIG1       -0.0366
     23 H          -6.6535   -1.8009    0.6836 H       1  LIG1        0.0279
     24 H          -6.6910   -0.7744   -0.7580 H       1  LIG1        0.0279
     25 H          -6.3909   -0.0455    0.8299 H       1  LIG1        0.0279
     26 C          -4.5159   -3.6835    0.3818 C.ar    1  LIG1        0.0768
     27 C          -5.4614   -4.4668   -0.2487 C.ar    1  LIG1        0.0344
     28 C          -5.5325   -5.7172    0.4413 C.ar    1  LIG1       -0.0193
     29 C          -4.6144   -5.6466    1.4589 C.ar    1  LIG1        0.0062
     30 N          -4.0095   -4.4213    1.4158 N.ar    1  LIG1       -0.3584
     31 H          -3.3710   -4.0557    2.1048 H       1  LIG1        0.1654
     32 H          -4.3560   -6.3734    2.2104 H       1  LIG1        0.0810
     33 S          -6.4377   -3.9638   -1.6351 S.3     1  LIG1       -0.1403
     34 H          -5.8814   -4.7830   -2.5382 H       1  LIG1        0.1072
     35 C          -6.4310   -6.8770    0.0982 C.3     1  LIG1       -0.0372
     36 H          -6.3389   -7.6597    0.8511 H       1  LIG1        0.0278
     37 H          -6.1676   -7.2979   -0.8738 H       1  LIG1        0.0278
     38 H          -7.4691   -6.5462    0.0543 H       1  LIG1        0.0278
@<TRIPOS>BOND
     1    34    33    1
     2     7     1    1
     3     6     5    1
     4    33    27    1
     5     5     1   ar
     6     5     4   ar
     7     1     2   ar
     8    21    20    1
     9    37    35    1
    10    24    22    1
    11     4    14    1
    12     4     3   ar
    13     2     8    1
    14     2     3   ar
    15     9     8    1
    16    20    15    1
    17    14    15   ar
    18    14    18   ar
    19    27    26   ar
    20    27    28   ar
    21    15    16   ar
    22    18    19    1
    23    18    17   ar
    24    16    17   ar
    25    16    22    1
    26    38    35    1
    27    35    28    1
    28    35    36    1
    29    17    26    1
    30     3    10    1
    31    22    23    1
    32    22    25    1
    33    26    30   ar
    34    28    29   ar
    35    12    10    1
    36    10    11    1
    37    10    13    1
    38    30    29   ar
    39    30    31    1
    40    29    32    1
