@<TRIPOS>MOLECULE
mol_data/opt/m06hf/geoms/mol2/13gl13gl13gl.out
 41 43 0 0 0
SMALL
GASTEIGER

@<TRIPOS>ATOM
      1 C           1.3668   -0.3321    0.3543 C.ar    1  LIG1        0.0191
      2 C           1.0640    0.8566   -0.2715 C.ar    1  LIG1        0.0645
      3 C          -0.3615    0.9100   -0.3866 C.ar    1  LIG1        0.1598
      4 C          -0.8652   -0.2398    0.1805 C.ar    1  LIG1        0.1074
      5 N           0.2074   -0.9856    0.6142 N.ar    1  LIG1       -0.3555
      6 H           0.1213   -1.8341    1.1504 H       1  LIG1        0.1655
      7 H           2.3286   -0.7367    0.6179 H       1  LIG1        0.0819
      8 S           2.2672    1.9734   -0.9314 S.3     1  LIG1       -0.1377
      9 H           2.3817    2.7691    0.1406 H       1  LIG1        0.1073
     10 O          -1.1397    1.8414   -0.9909 O.3     1  LIG1       -0.4918
     11 C          -0.9469    3.1906   -0.5650 C.3     1  LIG1        0.0789
     12 H          -1.8190    3.7388   -0.9132 H       1  LIG1        0.0660
     13 H          -0.8915    3.2332    0.5245 H       1  LIG1        0.0660
     14 H          -0.0424    3.6016   -1.0110 H       1  LIG1        0.0660
     15 C          -2.2390   -0.7178    0.2704 C.ar    1  LIG1        0.0840
     16 C          -3.4027   -0.0423    0.5584 C.ar    1  LIG1        0.0741
     17 C          -4.4721   -0.9873    0.4509 C.ar    1  LIG1        0.1605
     18 C          -3.9246   -2.2069    0.1274 C.ar    1  LIG1        0.1079
     19 N          -2.5611   -2.0284    0.0287 N.ar    1  LIG1       -0.3479
     20 H          -1.9577   -2.6665   -0.4687 H       1  LIG1        0.1661
     21 S          -3.4999    1.6570    1.0176 S.3     1  LIG1       -0.1370
     22 H          -4.3286    1.4619    2.0521 H       1  LIG1        0.1073
     23 O          -5.7869   -0.7669    0.7106 O.3     1  LIG1       -0.4918
     24 C          -6.4116    0.1665   -0.1796 C.3     1  LIG1        0.0789
     25 H          -7.4704    0.1466    0.0673 H       1  LIG1        0.0660
     26 H          -6.0033    1.1658   -0.0310 H       1  LIG1        0.0660
     27 H          -6.2595   -0.1517   -1.2106 H       1  LIG1        0.0660
     28 C          -4.5223   -3.5317   -0.0030 C.ar    1  LIG1        0.0835
     29 C          -5.7022   -3.9608   -0.5689 C.ar    1  LIG1        0.0734
     30 C          -5.7493   -5.3772   -0.4025 C.ar    1  LIG1        0.1511
     31 C          -4.6082   -5.7671    0.2501 C.ar    1  LIG1        0.0455
     32 N          -3.8740   -4.6377    0.4865 N.ar    1  LIG1       -0.3555
     33 H          -3.0483   -4.5881    1.0606 H       1  LIG1        0.1655
     34 H          -4.2769   -6.7476    0.5425 H       1  LIG1        0.0845
     35 S          -6.9365   -2.9712   -1.3439 S.3     1  LIG1       -0.1370
     36 H          -7.1619   -3.8275   -2.3482 H       1  LIG1        0.1073
     37 O          -6.7436   -6.1904   -0.8600 O.3     1  LIG1       -0.4925
     38 C          -7.8586   -6.2617    0.0288 C.3     1  LIG1        0.0789
     39 H          -8.6047   -6.8812   -0.4633 H       1  LIG1        0.0660
     40 H          -7.5526   -6.7179    0.9724 H       1  LIG1        0.0660
     41 H          -8.2584   -5.2634    0.2145 H       1  LIG1        0.0660
@<TRIPOS>BOND
     1    36    35    1
     2    35    29    1
     3    27    24    1
     4    14    11    1
     5    10    11    1
     6    10     3    1
     7     8     2    1
     8     8     9    1
     9    12    11    1
    10    37    30    1
    11    37    38    1
    12    29    30   ar
    13    29    28   ar
    14    11    13    1
    15    20    19    1
    16    39    38    1
    17    30    31   ar
    18     3     2   ar
    19     3     4   ar
    20     2     1   ar
    21    24    26    1
    22    24    25    1
    23    24    23    1
    24    28    18    1
    25    28    32   ar
    26    19    18   ar
    27    19    15   ar
    28    38    41    1
    29    38    40    1
    30    18    17   ar
    31     4    15    1
    32     4     5   ar
    33    31    32   ar
    34    31    34    1
    35    15    16   ar
    36     1     5   ar
    37     1     7    1
    38    17    16   ar
    39    17    23    1
    40    32    33    1
    41    16    21    1
    42     5     6    1
    43    21    22    1
