@<TRIPOS>MOLECULE
mol_data/opt/m06hf/geoms/mol2/13gl13gl.out
 28 29 0 0 0
SMALL
GASTEIGER

@<TRIPOS>ATOM
      1 C           1.2787   -0.4416    0.3117 C.ar    1  LIG1        0.0191
      2 C           1.0204    0.8193   -0.1763 C.ar    1  LIG1        0.0645
      3 C          -0.3978    0.9149   -0.3404 C.ar    1  LIG1        0.1598
      4 C          -0.9433   -0.2833    0.0608 C.ar    1  LIG1        0.1074
      5 N           0.0990   -1.0980    0.4424 N.ar    1  LIG1       -0.3555
      6 H          -0.0218   -2.0017    0.8709 H       1  LIG1        0.1655
      7 H           2.2222   -0.8949    0.5629 H       1  LIG1        0.0819
      8 S           2.2661    1.9787   -0.6583 S.3     1  LIG1       -0.1377
      9 H           2.2515    2.7339    0.4482 H       1  LIG1        0.1073
     10 O          -1.1292    1.9403   -0.8458 O.3     1  LIG1       -0.4918
     11 C          -0.9651    3.1949   -0.1855 C.3     1  LIG1        0.0789
     12 H          -1.8158    3.8036   -0.4832 H       1  LIG1        0.0660
     13 H          -0.9741    3.0494    0.8963 H       1  LIG1        0.0660
     14 H          -0.0375    3.6702   -0.5024 H       1  LIG1        0.0660
     15 C          -2.3292   -0.7419    0.0512 C.ar    1  LIG1        0.0835
     16 C          -3.4857   -0.1224    0.4690 C.ar    1  LIG1        0.0734
     17 C          -4.5573   -1.0288    0.2140 C.ar    1  LIG1        0.1511
     18 C          -4.0254   -2.1656   -0.3400 C.ar    1  LIG1        0.0455
     19 N          -2.6738   -1.9759   -0.4342 N.ar    1  LIG1       -0.3555
     20 H          -2.0325   -2.5890   -0.9106 H       1  LIG1        0.1655
     21 H          -4.5076   -3.0738   -0.6550 H       1  LIG1        0.0845
     22 S          -3.6136    1.4906    1.1682 S.3     1  LIG1       -0.1370
     23 H          -4.4125    1.1323    2.1798 H       1  LIG1        0.1073
     24 O          -5.8700   -0.8102    0.5101 O.3     1  LIG1       -0.4925
     25 C          -6.5271    0.0123   -0.4543 C.3     1  LIG1        0.0789
     26 H          -7.5477    0.1429   -0.1017 H       1  LIG1        0.0660
     27 H          -6.0275    0.9794   -0.5300 H       1  LIG1        0.0660
     28 H          -6.5243   -0.4827   -1.4275 H       1  LIG1        0.0660
@<TRIPOS>BOND
     1    28    25    1
     2    20    19    1
     3    10     3    1
     4    10    11    1
     5     8     2    1
     6     8     9    1
     7    21    18    1
     8    27    25    1
     9    14    11    1
    10    12    11    1
    11    25    26    1
    12    25    24    1
    13    19    18   ar
    14    19    15   ar
    15     3     2   ar
    16     3     4   ar
    17    18    17   ar
    18    11    13    1
    19     2     1   ar
    20    15     4    1
    21    15    16   ar
    22     4     5   ar
    23    17    16   ar
    24    17    24    1
    25     1     5   ar
    26     1     7    1
    27     5     6    1
    28    16    22    1
    29    22    23    1
