@<TRIPOS>MOLECULE
mol_data/opt/m06hf/geoms/mol2/13gl13gl13gl13gl-.out
 54 57 0 0 0
SMALL
GASTEIGER

@<TRIPOS>ATOM
      1 C           1.3840   -0.3446    0.1225 C.ar    1  LIG1        0.0191
      2 C           1.0722    0.8983   -0.3814 C.ar    1  LIG1        0.0645
      3 C          -0.3561    0.9817   -0.4176 C.ar    1  LIG1        0.1598
      4 C          -0.8522   -0.2071    0.0696 C.ar    1  LIG1        0.1074
      5 N           0.2275   -1.0032    0.3815 N.ar    1  LIG1       -0.3555
      6 H           0.1530   -1.8902    0.8528 H       1  LIG1        0.1655
      7 H           2.3501   -0.7838    0.3026 H       1  LIG1        0.0819
      8 S           2.2595    2.0416   -1.0236 S.3     1  LIG1       -0.1377
      9 H           2.4228    2.7780    0.0831 H       1  LIG1        0.1073
     10 O          -1.1400    1.9827   -0.8890 O.3     1  LIG1       -0.4918
     11 C          -0.9145    3.2644   -0.3007 C.3     1  LIG1        0.0789
     12 H          -1.7777    3.8703   -0.5656 H       1  LIG1        0.0660
     13 H          -0.8479    3.1662    0.7845 H       1  LIG1        0.0660
     14 H          -0.0064    3.7104   -0.7039 H       1  LIG1        0.0660
     15 C          -2.2239   -0.6863    0.1797 C.ar    1  LIG1        0.0840
     16 C          -3.3733   -0.0439    0.5800 C.ar    1  LIG1        0.0741
     17 C          -4.4448   -0.9838    0.4479 C.ar    1  LIG1        0.1605
     18 C          -3.9113   -2.1702   -0.0018 C.ar    1  LIG1        0.1079
     19 N          -2.5549   -1.9741   -0.1535 N.ar    1  LIG1       -0.3479
     20 H          -1.9745   -2.5639   -0.7312 H       1  LIG1        0.1661
     21 S          -3.4599    1.6002    1.2114 S.3     1  LIG1       -0.1370
     22 H          -4.1526    1.2694    2.3096 H       1  LIG1        0.1073
     23 O          -5.7429   -0.7936    0.7958 O.3     1  LIG1       -0.4918
     24 C          -6.4258    0.1872    0.0036 C.3     1  LIG1        0.0789
     25 H          -7.4670    0.1424    0.3133 H       1  LIG1        0.0660
     26 H          -6.0138    1.1786    0.1905 H       1  LIG1        0.0660
     27 H          -6.3363   -0.0674   -1.0523 H       1  LIG1        0.0660
     28 C          -4.5044   -3.4877   -0.1913 C.ar    1  LIG1        0.0840
     29 C          -5.7519   -3.8853   -0.6177 C.ar    1  LIG1        0.0741
     30 C          -5.7769   -5.3146   -0.5614 C.ar    1  LIG1        0.1605
     31 C          -4.5440   -5.7436   -0.1296 C.ar    1  LIG1        0.1079
     32 N          -3.7777   -4.6188    0.0850 N.ar    1  LIG1       -0.3479
     33 H          -2.9498   -4.6188    0.6619 H       1  LIG1        0.1661
     34 S          -7.0366   -2.8404   -1.2203 S.3     1  LIG1       -0.1370
     35 H          -7.3597   -3.6466   -2.2415 H       1  LIG1        0.1073
     36 O          -6.7935   -6.1190   -0.9656 O.3     1  LIG1       -0.4918
     37 C          -7.9621   -6.0406   -0.1386 C.3     1  LIG1        0.0789
     38 H          -8.6445   -6.7965   -0.5196 H       1  LIG1        0.0660
     39 H          -7.6955   -6.2593    0.8948 H       1  LIG1        0.0660
     40 H          -8.4118   -5.0502   -0.2096 H       1  LIG1        0.0660
     41 C          -3.9638   -7.0786   -0.0166 C.ar    1  LIG1        0.0835
     42 C          -4.4502   -8.2657    0.4857 C.ar    1  LIG1        0.0734
     43 C          -3.4204   -9.2390    0.3186 C.ar    1  LIG1        0.1511
     44 C          -2.3455   -8.6229   -0.2694 C.ar    1  LIG1        0.0455
     45 N          -2.6897   -7.3142   -0.4664 N.ar    1  LIG1       -0.3555
     46 H          -2.1557   -6.6432   -0.9941 H       1  LIG1        0.1655
     47 H          -1.3836   -9.0182   -0.5438 H       1  LIG1        0.0845
     48 S          -6.0363   -8.5506    1.1978 S.3     1  LIG1       -0.1370
     49 H          -5.5795   -9.2508    2.2420 H       1  LIG1        0.1073
     50 O          -3.4868  -10.5395    0.7216 O.3     1  LIG1       -0.4925
     51 C          -4.1983  -11.3733   -0.1938 C.3     1  LIG1        0.0789
     52 H          -4.2170  -12.3665    0.2482 H       1  LIG1        0.0660
     53 H          -5.2152  -11.0023   -0.3328 H       1  LIG1        0.0660
     54 H          -3.6788  -11.3969   -1.1537 H       1  LIG1        0.0660
@<TRIPOS>BOND
     1    35    34    1
     2    34    29    1
     3    54    51    1
     4    27    24    1
     5     8     2    1
     6     8     9    1
     7    46    45    1
     8    36    30    1
     9    36    37    1
    10    10     3    1
    11    10    11    1
    12    20    19    1
    13    14    11    1
    14    29    30   ar
    15    29    28   ar
    16    12    11    1
    17    30    31   ar
    18    47    44    1
    19    38    37    1
    20    45    44   ar
    21    45    41   ar
    22     3     2   ar
    23     3     4   ar
    24     2     1   ar
    25    53    51    1
    26    11    13    1
    27    44    43   ar
    28    40    37    1
    29    51    52    1
    30    51    50    1
    31    28    18    1
    32    28    32   ar
    33    19    18   ar
    34    19    15   ar
    35    37    39    1
    36    31    41    1
    37    31    32   ar
    38    41    42   ar
    39    18    17   ar
    40    24    26    1
    41    24    25    1
    42    24    23    1
    43     4    15    1
    44     4     5   ar
    45    32    33    1
    46     1     7    1
    47     1     5   ar
    48    15    16   ar
    49    43    42   ar
    50    43    50    1
    51     5     6    1
    52    17    16   ar
    53    17    23    1
    54    42    48    1
    55    16    21    1
    56    48    49    1
    57    21    22    1
