@<TRIPOS>MOLECULE
mol_data/opt/m06hf/geoms/mol2/13gl13gl-13gl13gl-.out
 54 57 0 0 0
SMALL
GASTEIGER

@<TRIPOS>ATOM
      1 C           1.0232    0.3786   -2.0246 C.ar    1  LIG1        0.0191
      2 C           1.0768    1.1548   -0.8884 C.ar    1  LIG1        0.0645
      3 C          -0.1714    0.9787   -0.2110 C.ar    1  LIG1        0.1598
      4 C          -0.9324    0.1135   -0.9633 C.ar    1  LIG1        0.1074
      5 N          -0.1785   -0.2483   -2.0577 N.ar    1  LIG1       -0.3555
      6 H          -0.5327   -0.7886   -2.8313 H       1  LIG1        0.1655
      7 H           1.7653    0.2429   -2.7924 H       1  LIG1        0.0819
      8 S           2.5119    2.0356   -0.3443 S.3     1  LIG1       -0.1377
      9 H           2.2170    3.2235   -0.8925 H       1  LIG1        0.1073
     10 O          -0.5690    1.4793    0.9855 O.3     1  LIG1       -0.4918
     11 C          -0.5627    2.9037    1.0898 C.3     1  LIG1        0.0789
     12 H          -1.1111    3.1367    1.9993 H       1  LIG1        0.0660
     13 H           0.4595    3.2735    1.1646 H       1  LIG1        0.0660
     14 H          -1.0680    3.3417    0.2273 H       1  LIG1        0.0660
     15 C          -2.2521   -0.4544   -0.7041 C.ar    1  LIG1        0.0840
     16 C          -3.4425    0.1450   -0.3499 C.ar    1  LIG1        0.0741
     17 C          -4.4107   -0.8893   -0.2417 C.ar    1  LIG1        0.1605
     18 C          -3.7931   -2.0869   -0.5255 C.ar    1  LIG1        0.1079
     19 N          -2.4792   -1.8032   -0.7947 N.ar    1  LIG1       -0.3479
     20 H          -1.7775   -2.4811   -1.0472 H       1  LIG1        0.1661
     21 S          -3.7147    1.8570   -0.0315 S.3     1  LIG1       -0.1370
     22 H          -4.8813    1.9099   -0.6821 H       1  LIG1        0.1073
     23 O          -5.7260   -0.7147    0.0580 O.3     1  LIG1       -0.4918
     24 C          -6.0399   -0.9588    1.4300 C.3     1  LIG1        0.0789
     25 H          -7.0964   -0.7301    1.5442 H       1  LIG1        0.0660
     26 H          -5.8568   -2.0085    1.6694 H       1  LIG1        0.0660
     27 H          -5.4374   -0.3129    2.0709 H       1  LIG1        0.0660
     28 C          -4.3525   -3.4321   -0.5147 C.ar    1  LIG1        0.0840
     29 C          -5.5688   -3.8878   -0.9796 C.ar    1  LIG1        0.0741
     30 C          -5.6171   -5.2811   -0.6958 C.ar    1  LIG1        0.1605
     31 C          -4.4446   -5.6362   -0.0675 C.ar    1  LIG1        0.1079
     32 N          -3.6909   -4.4974    0.0444 N.ar    1  LIG1       -0.3479
     33 H          -2.7734   -4.4505    0.4576 H       1  LIG1        0.1661
     34 S          -6.8378   -2.9383   -1.7554 S.3     1  LIG1       -0.1370
     35 H          -7.2287   -3.9466   -2.5479 H       1  LIG1        0.1073
     36 O          -6.6356   -6.1245   -1.0179 O.3     1  LIG1       -0.4918
     37 C          -7.5808   -6.3022    0.0383 C.3     1  LIG1        0.0789
     38 H          -8.3436   -6.9740   -0.3470 H       1  LIG1        0.0660
     39 H          -7.0880   -6.7509    0.9030 H       1  LIG1        0.0660
     40 H          -8.0203   -5.3407    0.3099 H       1  LIG1        0.0660
     41 C          -4.0356   -6.9389    0.4413 C.ar    1  LIG1        0.0835
     42 C          -4.2156   -8.1940   -0.0978 C.ar    1  LIG1        0.0734
     43 C          -3.6439   -9.1200    0.8246 C.ar    1  LIG1        0.1511
     44 C          -3.1384   -8.4109    1.8850 C.ar    1  LIG1        0.0455
     45 N          -3.3856   -7.0884    1.6415 N.ar    1  LIG1       -0.3555
     46 H          -3.2365   -6.3411    2.3002 H       1  LIG1        0.1655
     47 H          -2.6249   -8.7516    2.7663 H       1  LIG1        0.0845
     48 S          -4.9682   -8.6017   -1.6425 S.3     1  LIG1       -0.1370
     49 H          -4.1726   -9.6645   -1.8312 H       1  LIG1        0.1073
     50 O          -3.5839  -10.4705    0.6422 O.3     1  LIG1       -0.4925
     51 C          -4.7738  -11.1403    1.0581 C.3     1  LIG1        0.0789
     52 H          -4.6291  -12.1944    0.8341 H       1  LIG1        0.0660
     53 H          -4.9238  -10.9990    2.1306 H       1  LIG1        0.0660
     54 H          -5.6359  -10.7532    0.5114 H       1  LIG1        0.0660
@<TRIPOS>BOND
     1     6     5    1
     2     7     1    1
     3    35    34    1
     4     5     1   ar
     5     5     4   ar
     6     1     2   ar
     7    49    48    1
     8    34    29    1
     9    48    42    1
    10    20    19    1
    11    36    30    1
    12    36    37    1
    13    29    30   ar
    14    29    28   ar
    15     4    15    1
    16     4     3   ar
    17     9     8    1
    18     2     8    1
    19     2     3   ar
    20    19    15   ar
    21    19    18   ar
    22    15    16   ar
    23    30    31   ar
    24    22    21    1
    25    18    28    1
    26    18    17   ar
    27    28    32   ar
    28    16    17   ar
    29    16    21    1
    30    38    37    1
    31    17    23    1
    32     3    10    1
    33    42    41   ar
    34    42    43   ar
    35    31    32   ar
    36    31    41    1
    37    37    40    1
    38    37    39    1
    39    32    33    1
    40    23    24    1
    41    14    11    1
    42    41    45   ar
    43    54    51    1
    44    50    43    1
    45    50    51    1
    46    43    44   ar
    47    52    51    1
    48    10    11    1
    49    51    53    1
    50    11    13    1
    51    11    12    1
    52    24    25    1
    53    24    26    1
    54    24    27    1
    55    45    44   ar
    56    45    46    1
    57    44    47    1
