@<TRIPOS>MOLECULE
mol_data/opt/m06hf/geoms/mol2/13gl13gl-13gl-.out
 41 43 0 0 0
SMALL
GASTEIGER

@<TRIPOS>ATOM
      1 C           1.3686   -0.3357   -0.3500 C.ar    1  LIG1        0.0191
      2 C           1.0663    0.8501    0.2813 C.ar    1  LIG1        0.0645
      3 C          -0.3593    0.9045    0.3946 C.ar    1  LIG1        0.1598
      4 C          -0.8635   -0.2418   -0.1790 C.ar    1  LIG1        0.1074
      5 N           0.2089   -0.9866   -0.6150 N.ar    1  LIG1       -0.3555
      6 H           0.1227   -1.8323   -1.1556 H       1  LIG1        0.1655
      7 H           2.3304   -0.7401   -0.6143 H       1  LIG1        0.0819
      8 S           2.2697    1.9621    0.9487 S.3     1  LIG1       -0.1377
      9 H           2.3867    2.7632   -0.1191 H       1  LIG1        0.1073
     10 O          -1.1374    1.8336    1.0026 O.3     1  LIG1       -0.4918
     11 C          -0.9424    3.1848    0.5839 C.3     1  LIG1        0.0789
     12 H          -1.8145    3.7322    0.9336 H       1  LIG1        0.0660
     13 H          -0.0381    3.5926    1.0332 H       1  LIG1        0.0660
     14 H          -0.8855    3.2329   -0.5053 H       1  LIG1        0.0660
     15 C          -2.2376   -0.7179   -0.2733 C.ar    1  LIG1        0.0840
     16 C          -3.4002   -0.0395   -0.5596 C.ar    1  LIG1        0.0741
     17 C          -4.4708   -0.9839   -0.4585 C.ar    1  LIG1        0.1605
     18 C          -3.9252   -2.2057   -0.1404 C.ar    1  LIG1        0.1079
     19 N          -2.5616   -2.0293   -0.0388 N.ar    1  LIG1       -0.3479
     20 H          -1.9597   -2.6705    0.4563 H       1  LIG1        0.1661
     21 S          -3.4948    1.6622   -1.0103 S.3     1  LIG1       -0.1370
     22 H          -4.3222    1.4733   -2.0469 H       1  LIG1        0.1073
     23 O          -5.7851   -0.7606   -0.7190 O.3     1  LIG1       -0.4918
     24 C          -6.4099    0.1689    0.1751 C.3     1  LIG1        0.0789
     25 H          -7.4684    0.1514   -0.0734 H       1  LIG1        0.0660
     26 H          -6.2596   -0.1547    1.2047 H       1  LIG1        0.0660
     27 H          -6.0005    1.1685    0.0321 H       1  LIG1        0.0660
     28 C          -4.5245   -3.5305   -0.0176 C.ar    1  LIG1        0.0835
     29 C          -5.7058   -3.9612    0.5444 C.ar    1  LIG1        0.0734
     30 C          -5.7542   -5.3766    0.3708 C.ar    1  LIG1        0.1511
     31 C          -4.6126   -5.7645   -0.2822 C.ar    1  LIG1        0.0455
     32 N          -3.8768   -4.6347   -0.5118 N.ar    1  LIG1       -0.3555
     33 H          -3.0502   -4.5831   -1.0844 H       1  LIG1        0.1655
     34 H          -4.2820   -6.7438   -0.5791 H       1  LIG1        0.0845
     35 S          -6.9400   -2.9741    1.3226 S.3     1  LIG1       -0.1370
     36 H          -7.1679   -3.8352    2.3223 H       1  LIG1        0.1073
     37 O          -6.7501   -6.1910    0.8227 O.3     1  LIG1       -0.4925
     38 C          -7.8639   -6.2565   -0.0681 C.3     1  LIG1        0.0789
     39 H          -8.6114   -6.8777    0.4198 H       1  LIG1        0.0660
     40 H          -8.2622   -5.2568   -0.2493 H       1  LIG1        0.0660
     41 H          -7.5570   -6.7082   -1.0136 H       1  LIG1        0.0660
@<TRIPOS>BOND
     1    22    21    1
     2     6     5    1
     3    33    32    1
     4    41    38    1
     5    21    16    1
     6    23    17    1
     7    23    24    1
     8     5     1   ar
     9     5     4   ar
    10     7     1    1
    11    34    31    1
    12    16    17   ar
    13    16    15   ar
    14    32    31   ar
    15    32    28   ar
    16    14    11    1
    17    17    18   ar
    18     1     2   ar
    19    31    30   ar
    20    15     4    1
    21    15    19   ar
    22    40    38    1
    23     4     3   ar
    24    18    19   ar
    25    18    28    1
    26     9     8    1
    27    25    24    1
    28    38    39    1
    29    38    37    1
    30    19    20    1
    31    28    29   ar
    32    27    24    1
    33    24    26    1
    34     2     3   ar
    35     2     8    1
    36    30    29   ar
    37    30    37    1
    38     3    10    1
    39    29    35    1
    40    11    12    1
    41    11    10    1
    42    11    13    1
    43    35    36    1
