@<TRIPOS>MOLECULE
mol_data/opt/m06hf/geoms/mol2/13gl13gl-.out
 28 29 0 0 0
SMALL
GASTEIGER

@<TRIPOS>ATOM
      1 C           1.2793   -0.4379   -0.3082 C.ar    1  LIG1        0.0191
      2 C           1.0200    0.8217    0.1827 C.ar    1  LIG1        0.0645
      3 C          -0.3983    0.9157    0.3472 C.ar    1  LIG1        0.1598
      4 C          -0.9429   -0.2820   -0.0565 C.ar    1  LIG1        0.1074
      5 N           0.1001   -1.0951   -0.4401 N.ar    1  LIG1       -0.3555
      6 H          -0.0201   -1.9979   -0.8706 H       1  LIG1        0.1655
      7 H           2.2231   -0.8899   -0.5606 H       1  LIG1        0.0819
      8 S           2.2648    1.9810    0.6670 S.3     1  LIG1       -0.1377
      9 H           2.2495    2.7385   -0.4380 H       1  LIG1        0.1073
     10 O          -1.1305    1.9394    0.8549 O.3     1  LIG1       -0.4918
     11 C          -0.9675    3.1956    0.1974 C.3     1  LIG1        0.0789
     12 H          -1.8187    3.8029    0.4967 H       1  LIG1        0.0660
     13 H          -0.0402    3.6709    0.5151 H       1  LIG1        0.0660
     14 H          -0.9766    3.0524   -0.8847 H       1  LIG1        0.0660
     15 C          -2.3283   -0.7418   -0.0477 C.ar    1  LIG1        0.0835
     16 C          -3.4854   -0.1224   -0.4638 C.ar    1  LIG1        0.0734
     17 C          -4.5562   -1.0303   -0.2106 C.ar    1  LIG1        0.1511
     18 C          -4.0232   -2.1679    0.3407 C.ar    1  LIG1        0.0455
     19 N          -2.6718   -1.9773    0.4351 N.ar    1  LIG1       -0.3555
     20 H          -2.0299   -2.5909    0.9101 H       1  LIG1        0.1655
     21 H          -4.5046   -3.0772    0.6538 H       1  LIG1        0.0845
     22 S          -3.6149    1.4920   -1.1594 S.3     1  LIG1       -0.1370
     23 H          -4.4137    1.1353   -2.1715 H       1  LIG1        0.1073
     24 O          -5.8692   -0.8122   -0.5061 O.3     1  LIG1       -0.4925
     25 C          -6.5268    0.0076    0.4603 C.3     1  LIG1        0.0789
     26 H          -7.5475    0.1380    0.1082 H       1  LIG1        0.0660
     27 H          -6.5233   -0.4895    1.4324 H       1  LIG1        0.0660
     28 H          -6.0280    0.9750    0.5380 H       1  LIG1        0.0660
@<TRIPOS>BOND
     1    23    22    1
     2    22    16    1
     3    14    11    1
     4     6     5    1
     5     7     1    1
     6    24    17    1
     7    24    25    1
     8    16    17   ar
     9    16    15   ar
    10     5     1   ar
    11     5     4   ar
    12     9     8    1
    13     1     2   ar
    14    17    18   ar
    15     4    15    1
    16     4     3   ar
    17    15    19   ar
    18    26    25    1
    19     2     3   ar
    20     2     8    1
    21    11    12    1
    22    11    13    1
    23    11    10    1
    24    18    19   ar
    25    18    21    1
    26     3    10    1
    27    19    20    1
    28    25    28    1
    29    25    27    1
