@<TRIPOS>MOLECULE
mol_data/opt/m06hf/geoms/mol2/13gl13gl13gl-13gl.out
 54 57 0 0 0
SMALL
GASTEIGER

@<TRIPOS>ATOM
      1 C           1.0578    0.3351    1.9925 C.ar    1  LIG1        0.0191
      2 C           1.0978    1.1305    0.8691 C.ar    1  LIG1        0.0645
      3 C          -0.1597    0.9684    0.2056 C.ar    1  LIG1        0.1598
      4 C          -0.9124    0.0918    0.9531 C.ar    1  LIG1        0.1074
      5 N          -0.1447   -0.2901    2.0310 N.ar    1  LIG1       -0.3555
      6 H          -0.4897   -0.8428    2.8000 H       1  LIG1        0.1655
      7 H           1.8098    0.1849    2.7479 H       1  LIG1        0.0819
      8 S           2.5273    2.0178    0.3208 S.3     1  LIG1       -0.1377
      9 H           2.2423    3.1967    0.8932 H       1  LIG1        0.1073
     10 O          -0.5721    1.4901   -0.9767 O.3     1  LIG1       -0.4918
     11 C          -0.5645    2.9162   -1.0564 C.3     1  LIG1        0.0789
     12 H          -1.1246    3.1659   -1.9544 H       1  LIG1        0.0660
     13 H          -1.0575    3.3400   -0.1799 H       1  LIG1        0.0660
     14 H           0.4573    3.2856   -1.1384 H       1  LIG1        0.0660
     15 C          -2.2367   -0.4690    0.7021 C.ar    1  LIG1        0.0840
     16 C          -3.4304    0.1387    0.3745 C.ar    1  LIG1        0.0741
     17 C          -4.4023   -0.8917    0.2619 C.ar    1  LIG1        0.1605
     18 C          -3.7836   -2.0952    0.5167 C.ar    1  LIG1        0.1079
     19 N          -2.4655   -1.8187    0.7727 N.ar    1  LIG1       -0.3479
     20 H          -1.7620   -2.5022    1.0042 H       1  LIG1        0.1661
     21 S          -3.7032    1.8565    0.0891 S.3     1  LIG1       -0.1370
     22 H          -4.8607    1.9005    0.7564 H       1  LIG1        0.1073
     23 O          -5.7212   -0.7092   -0.0168 O.3     1  LIG1       -0.4918
     24 C          -6.0543   -0.9291   -1.3883 C.3     1  LIG1        0.0789
     25 H          -7.1117   -0.6963   -1.4841 H       1  LIG1        0.0660
     26 H          -5.4591   -0.2735   -2.0262 H       1  LIG1        0.0660
     27 H          -5.8768   -1.9749   -1.6481 H       1  LIG1        0.0660
     28 C          -4.3460   -3.4389    0.4908 C.ar    1  LIG1        0.0840
     29 C          -5.5566   -3.9003    0.9649 C.ar    1  LIG1        0.0741
     30 C          -5.6115   -5.2886    0.6583 C.ar    1  LIG1        0.1605
     31 C          -4.4486   -5.6350    0.0077 C.ar    1  LIG1        0.1079
     32 N          -3.6943   -4.4957   -0.0954 N.ar    1  LIG1       -0.3479
     33 H          -2.7826   -4.4434   -0.5207 H       1  LIG1        0.1661
     34 S          -6.8127   -2.9618    1.7742 S.3     1  LIG1       -0.1370
     35 H          -7.1947   -3.9827    2.5547 H       1  LIG1        0.1073
     36 O          -6.6270   -6.1355    0.9805 O.3     1  LIG1       -0.4918
     37 C          -7.5874   -6.2937   -0.0651 C.3     1  LIG1        0.0789
     38 H          -8.3459   -6.9707    0.3196 H       1  LIG1        0.0660
     39 H          -8.0288   -5.3269   -0.3141 H       1  LIG1        0.0660
     40 H          -7.1077   -6.7285   -0.9442 H       1  LIG1        0.0660
     41 C          -4.0493   -6.9296   -0.5286 C.ar    1  LIG1        0.0835
     42 C          -4.2241   -8.1933   -0.0083 C.ar    1  LIG1        0.0734
     43 C          -3.6669   -9.1045   -0.9540 C.ar    1  LIG1        0.1511
     44 C          -3.1750   -8.3784   -2.0093 C.ar    1  LIG1        0.0455
     45 N          -3.4162   -7.0599   -1.7401 N.ar    1  LIG1       -0.3555
     46 H          -3.2752   -6.3018   -2.3883 H       1  LIG1        0.1655
     47 H          -2.6744   -8.7052   -2.9033 H       1  LIG1        0.0845
     48 S          -4.9558   -8.6257    1.5397 S.3     1  LIG1       -0.1370
     49 H          -4.1597   -9.6929    1.6993 H       1  LIG1        0.1073
     50 O          -3.6070  -10.4580   -0.7952 O.3     1  LIG1       -0.4925
     51 C          -4.8037  -11.1187   -1.2058 C.3     1  LIG1        0.0789
     52 H          -4.6579  -12.1768   -1.0014 H       1  LIG1        0.0660
     53 H          -5.6575  -10.7394   -0.6408 H       1  LIG1        0.0660
     54 H          -4.9683  -10.9593   -2.2736 H       1  LIG1        0.0660
@<TRIPOS>BOND
     1    47    44    1
     2    46    45    1
     3    54    51    1
     4    26    24    1
     5    44    45   ar
     6    44    43   ar
     7    12    11    1
     8    45    41   ar
     9    27    24    1
    10    25    24    1
    11    24    23    1
    12    51    52    1
    13    51    50    1
    14    51    53    1
    15    14    11    1
    16    11    10    1
    17    11    13    1
    18    10     3    1
    19    43    50    1
    20    43    42   ar
    21    40    37    1
    22    41    42   ar
    23    41    31    1
    24    33    32    1
    25    39    37    1
    26    32    31   ar
    27    32    28   ar
    28    37    38    1
    29    37    36    1
    30    23    17    1
    31    42    48    1
    32    31    30   ar
    33    21    16    1
    34    21    22    1
    35     3     2   ar
    36     3     4   ar
    37    17    16   ar
    38    17    18   ar
    39     8     2    1
    40     8     9    1
    41    16    15   ar
    42    28    18    1
    43    28    29   ar
    44    18    19   ar
    45    30    29   ar
    46    30    36    1
    47    15    19   ar
    48    15     4    1
    49    19    20    1
    50     2     1   ar
    51     4     5   ar
    52    29    34    1
    53    48    49    1
    54    34    35    1
    55     1     5   ar
    56     1     7    1
    57     5     6    1
