@<TRIPOS>MOLECULE
mol_data/opt/m06hf/geoms/mol2/13gl13gl-13gl.out
 41 43 0 0 0
SMALL
GASTEIGER

@<TRIPOS>ATOM
      1 C           1.3434   -0.1774   -1.0008 C.ar    1  LIG1        0.0191
      2 C           1.1480    0.9012   -0.1672 C.ar    1  LIG1        0.0645
      3 C          -0.2399    0.9057    0.1800 C.ar    1  LIG1        0.1598
      4 C          -0.8307   -0.1611   -0.4576 C.ar    1  LIG1        0.1074
      5 N           0.1569   -0.8136   -1.1617 N.ar    1  LIG1       -0.3555
      6 H          -0.0180   -1.5710   -1.8036 H       1  LIG1        0.1655
      7 H           2.2488   -0.5193   -1.4721 H       1  LIG1        0.0819
      8 S           2.4425    1.9263    0.4645 S.3     1  LIG1       -0.1377
      9 H           2.3297    2.9306   -0.4154 H       1  LIG1        0.1073
     10 O          -0.9039    1.7323    1.0259 O.3     1  LIG1       -0.4918
     11 C          -0.8420    3.1218    0.7017 C.3     1  LIG1        0.0789
     12 H          -1.6260    3.5987    1.2854 H       1  LIG1        0.0660
     13 H           0.1296    3.5313    0.9765 H       1  LIG1        0.0660
     14 H          -1.0331    3.2639   -0.3632 H       1  LIG1        0.0660
     15 C          -2.2046   -0.6517   -0.4035 C.ar    1  LIG1        0.0840
     16 C          -3.4059   -0.0012   -0.5912 C.ar    1  LIG1        0.0741
     17 C          -4.4313   -0.9730   -0.4352 C.ar    1  LIG1        0.1605
     18 C          -3.8367   -2.1826   -0.1539 C.ar    1  LIG1        0.1079
     19 N          -2.4836   -1.9659   -0.1315 N.ar    1  LIG1       -0.3479
     20 H          -1.7842   -2.6688    0.0509 H       1  LIG1        0.1661
     21 S          -3.6315    1.7195   -0.8934 S.3     1  LIG1       -0.1370
     22 H          -4.5275    1.5657   -1.8756 H       1  LIG1        0.1073
     23 O          -5.7678   -0.7565   -0.5687 O.3     1  LIG1       -0.4918
     24 C          -6.4271   -0.4859    0.6697 C.3     1  LIG1        0.0789
     25 H          -7.4753   -0.3307    0.4267 H       1  LIG1        0.0660
     26 H          -6.3191   -1.3406    1.3402 H       1  LIG1        0.0660
     27 H          -6.0038    0.4097    1.1275 H       1  LIG1        0.0660
     28 C          -4.4658   -3.4687    0.1140 C.ar    1  LIG1        0.0835
     29 C          -5.5662   -4.0510   -0.4750 C.ar    1  LIG1        0.0734
     30 C          -5.7659   -5.3023    0.1814 C.ar    1  LIG1        0.1511
     31 C          -4.7940   -5.4430    1.1393 C.ar    1  LIG1        0.0455
     32 N          -4.0126   -4.3218    1.0897 N.ar    1  LIG1       -0.3555
     33 H          -3.2955   -4.0856    1.7562 H       1  LIG1        0.1655
     34 H          -4.6064   -6.2513    1.8235 H       1  LIG1        0.0845
     35 S          -6.5342   -3.4246   -1.8117 S.3     1  LIG1       -0.1370
     36 H          -6.8576   -4.6532   -2.2386 H       1  LIG1        0.1073
     37 O          -6.7318   -6.2091   -0.1435 O.3     1  LIG1       -0.4925
     38 C          -7.9932   -5.9226    0.4606 C.3     1  LIG1        0.0789
     39 H          -8.6904   -6.6671    0.0835 H       1  LIG1        0.0660
     40 H          -7.9102   -5.9988    1.5467 H       1  LIG1        0.0660
     41 H          -8.3255   -4.9200    0.1852 H       1  LIG1        0.0660
@<TRIPOS>BOND
     1    36    35    1
     2    22    21    1
     3    35    29    1
     4     6     5    1
     5     7     1    1
     6     5     1   ar
     7     5     4   ar
     8     1     2   ar
     9    21    16    1
    10    16    17   ar
    11    16    15   ar
    12    23    17    1
    13    23    24    1
    14    29    28   ar
    15    29    30   ar
    16     4    15    1
    17     4     3   ar
    18    17    18   ar
    19     9     8    1
    20    15    19   ar
    21    14    11    1
    22     2     3   ar
    23     2     8    1
    24    18    19   ar
    25    18    28    1
    26    37    30    1
    27    37    38    1
    28    19    20    1
    29    39    38    1
    30    28    32   ar
    31     3    10    1
    32    30    31   ar
    33    41    38    1
    34    25    24    1
    35    38    40    1
    36    24    27    1
    37    24    26    1
    38    11    13    1
    39    11    10    1
    40    11    12    1
    41    32    31   ar
    42    32    33    1
    43    31    34    1
