@<TRIPOS>MOLECULE
mol_data/opt/m06hf/geoms/mol2/13gl13gl-13gl-13gl.out
 54 57 0 0 0
SMALL
GASTEIGER

@<TRIPOS>ATOM
      1 C           1.4399   -0.2496    0.2618 C.ar    1  LIG1        0.0191
      2 C           1.0681    0.9883    0.7373 C.ar    1  LIG1        0.0645
      3 C          -0.3598    1.0452    0.6633 C.ar    1  LIG1        0.1598
      4 C          -0.7943   -0.1520    0.1389 C.ar    1  LIG1        0.1074
      5 N           0.3195   -0.9291   -0.0856 N.ar    1  LIG1       -0.3555
      6 H           0.2979   -1.8244   -0.5458 H       1  LIG1        0.1655
      7 H           2.4252   -0.6707    0.1590 H       1  LIG1        0.0819
      8 S           2.1961    2.1535    1.4462 S.3     1  LIG1       -0.1377
      9 H           2.3805    2.9125    0.3588 H       1  LIG1        0.1073
     10 O          -1.2069    2.0211    1.0733 O.3     1  LIG1       -0.4918
     11 C          -0.9232    3.3385    0.6037 C.3     1  LIG1        0.0789
     12 H          -1.8371    3.9093    0.7492 H       1  LIG1        0.0660
     13 H          -0.1104    3.7778    1.1804 H       1  LIG1        0.0660
     14 H          -0.6691    3.3096   -0.4580 H       1  LIG1        0.0660
     15 C          -2.1467   -0.6400   -0.0925 C.ar    1  LIG1        0.0840
     16 C          -3.2611    0.0102   -0.5714 C.ar    1  LIG1        0.0741
     17 C          -4.3369   -0.9335   -0.5482 C.ar    1  LIG1        0.1605
     18 C          -3.8385   -2.1282   -0.0835 C.ar    1  LIG1        0.1079
     19 N          -2.4988   -1.9360    0.1832 N.ar    1  LIG1       -0.3479
     20 H          -1.9732   -2.5327    0.8055 H       1  LIG1        0.1661
     21 S          -3.2936    1.6739   -1.1555 S.3     1  LIG1       -0.1370
     22 H          -3.9811    1.4000   -2.2739 H       1  LIG1        0.1073
     23 O          -5.6031   -0.7353   -0.9963 O.3     1  LIG1       -0.4918
     24 C          -6.3524    0.2195   -0.2337 C.3     1  LIG1        0.0789
     25 H          -7.3643    0.1841   -0.6300 H       1  LIG1        0.0660
     26 H          -6.3496   -0.0671    0.8178 H       1  LIG1        0.0660
     27 H          -5.9299    1.2171   -0.3539 H       1  LIG1        0.0660
     28 C          -4.4487   -3.4467    0.0525 C.ar    1  LIG1        0.0840
     29 C          -5.6685   -3.8545    0.5511 C.ar    1  LIG1        0.0741
     30 C          -5.6921   -5.2736    0.4746 C.ar    1  LIG1        0.1605
     31 C          -4.4998   -5.6969   -0.0663 C.ar    1  LIG1        0.1079
     32 N          -3.7605   -4.5725   -0.3247 N.ar    1  LIG1       -0.3479
     33 H          -2.8366   -4.5643   -0.7257 H       1  LIG1        0.1661
     34 S          -6.9767   -2.8393    1.1490 S.3     1  LIG1       -0.1370
     35 H          -7.2817   -3.6431    2.1752 H       1  LIG1        0.1073
     36 O          -6.7048   -6.0748    0.9033 O.3     1  LIG1       -0.4918
     37 C          -7.5951   -6.4800   -0.1383 C.3     1  LIG1        0.0789
     38 H          -8.3508   -7.1018    0.3348 H       1  LIG1        0.0660
     39 H          -8.0536   -5.6030   -0.5984 H       1  LIG1        0.0660
     40 H          -7.0492   -7.0578   -0.8867 H       1  LIG1        0.0660
     41 C          -4.0527   -7.0549   -0.3455 C.ar    1  LIG1        0.0835
     42 C          -4.2154   -8.2028    0.3981 C.ar    1  LIG1        0.0734
     43 C          -3.6057   -9.2591   -0.3428 C.ar    1  LIG1        0.1511
     44 C          -3.0941   -8.7291   -1.5003 C.ar    1  LIG1        0.0455
     45 N          -3.3727   -7.3899   -1.4902 N.ar    1  LIG1       -0.3555
     46 H          -3.2401   -6.7667   -2.2701 H       1  LIG1        0.1655
     47 H          -2.5564   -9.2040   -2.3015 H       1  LIG1        0.0845
     48 S          -4.9883   -8.3571    1.9770 S.3     1  LIG1       -0.1370
     49 H          -4.1883   -9.3663    2.3500 H       1  LIG1        0.1073
     50 O          -3.5162  -10.5561    0.0703 O.3     1  LIG1       -0.4925
     51 C          -4.7043  -11.3041   -0.1860 C.3     1  LIG1        0.0789
     52 H          -4.5413  -12.2945    0.2328 H       1  LIG1        0.0660
     53 H          -5.5623  -10.8284    0.2927 H       1  LIG1        0.0660
     54 H          -4.8743  -11.3735   -1.2623 H       1  LIG1        0.0660
@<TRIPOS>BOND
     1    47    44    1
     2    22    21    1
     3    46    45    1
     4    44    45   ar
     5    44    43   ar
     6    45    41   ar
     7    54    51    1
     8    21    16    1
     9    23    17    1
    10    23    24    1
    11    40    37    1
    12    33    32    1
    13    25    24    1
    14    39    37    1
    15    16    17   ar
    16    16    15   ar
    17    17    18   ar
    18     6     5    1
    19    14    11    1
    20    27    24    1
    21    41    31    1
    22    41    42   ar
    23    43    50    1
    24    43    42   ar
    25    32    31   ar
    26    32    28   ar
    27    24    26    1
    28    51    50    1
    29    51    52    1
    30    51    53    1
    31    37    38    1
    32    37    36    1
    33    15     4    1
    34    15    19   ar
    35     5     4   ar
    36     5     1   ar
    37    18    28    1
    38    18    19   ar
    39    31    30   ar
    40    28    29   ar
    41     4     3   ar
    42     7     1    1
    43    19    20    1
    44     1     2   ar
    45     9     8    1
    46    42    48    1
    47    30    29   ar
    48    30    36    1
    49    29    34    1
    50    11    12    1
    51    11    10    1
    52    11    13    1
    53     3     2   ar
    54     3    10    1
    55     2     8    1
    56    34    35    1
    57    48    49    1
