@<TRIPOS>MOLECULE
mol_data/opt/m06hf/geoms/mol2/13gl13gl-13gl-13gl-.out
 54 57 0 0 0
SMALL
GASTEIGER

@<TRIPOS>ATOM
      1 C           1.3920   -0.3537   -0.0837 C.ar    1  LIG1        0.0191
      2 C           1.0784    0.8838    0.4320 C.ar    1  LIG1        0.0645
      3 C          -0.3500    0.9698    0.4574 C.ar    1  LIG1        0.1598
      4 C          -0.8442   -0.2123   -0.0478 C.ar    1  LIG1        0.1074
      5 N           0.2365   -1.0069   -0.3601 N.ar    1  LIG1       -0.3555
      6 H           0.1642   -1.8881   -0.8423 H       1  LIG1        0.1655
      7 H           2.3587   -0.7926   -0.2610 H       1  LIG1        0.0819
      8 S           2.2626    2.0173    1.0972 S.3     1  LIG1       -0.1377
      9 H           2.4362    2.7663    0.0006 H       1  LIG1        0.1073
     10 O          -1.1360    1.9666    0.9338 O.3     1  LIG1       -0.4918
     11 C          -0.9021    3.2552    0.3639 C.3     1  LIG1        0.0789
     12 H          -1.7677    3.8589    0.6260 H       1  LIG1        0.0660
     13 H           0.0017    3.6950    0.7833 H       1  LIG1        0.0660
     14 H          -0.8227    3.1702   -0.7215 H       1  LIG1        0.0660
     15 C          -2.2160   -0.6873   -0.1749 C.ar    1  LIG1        0.0840
     16 C          -3.3606   -0.0378   -0.5774 C.ar    1  LIG1        0.0741
     17 C          -4.4352   -0.9767   -0.4652 C.ar    1  LIG1        0.1605
     18 C          -3.9080   -2.1693   -0.0246 C.ar    1  LIG1        0.1079
     19 N          -2.5526   -1.9781    0.1407 N.ar    1  LIG1       -0.3479
     20 H          -1.9782   -2.5758    0.7164 H       1  LIG1        0.1661
     21 S          -3.4382    1.6137   -1.1906 S.3     1  LIG1       -0.1370
     22 H          -4.1220    1.2970   -2.2985 H       1  LIG1        0.1073
     23 O          -5.7299   -0.7797   -0.8217 O.3     1  LIG1       -0.4918
     24 C          -6.4172    0.1937   -0.0242 C.3     1  LIG1        0.0789
     25 H          -7.4560    0.1544   -0.3428 H       1  LIG1        0.0660
     26 H          -6.3369   -0.0729    1.0295 H       1  LIG1        0.0660
     27 H          -6.0019    1.1862   -0.1967 H       1  LIG1        0.0660
     28 C          -4.5056   -3.4875    0.1450 C.ar    1  LIG1        0.0840
     29 C          -5.7576   -3.8869    0.5566 C.ar    1  LIG1        0.0741
     30 C          -5.7854   -5.3155    0.4838 C.ar    1  LIG1        0.1605
     31 C          -4.5499   -5.7425    0.0571 C.ar    1  LIG1        0.1079
     32 N          -3.7793   -4.6172   -0.1383 N.ar    1  LIG1       -0.3479
     33 H          -2.9465   -4.6126   -0.7081 H       1  LIG1        0.1661
     34 S          -7.0448   -2.8460    1.1604 S.3     1  LIG1       -0.1370
     35 H          -7.3782   -3.6629    2.1697 H       1  LIG1        0.1073
     36 O          -6.8071   -6.1220    0.8705 O.3     1  LIG1       -0.4918
     37 C          -7.9686   -6.0313    0.0349 C.3     1  LIG1        0.0789
     38 H          -8.6558   -6.7901    0.4013 H       1  LIG1        0.0660
     39 H          -8.4168   -5.0408    0.1137 H       1  LIG1        0.0660
     40 H          -7.6941   -6.2385   -0.9989 H       1  LIG1        0.0660
     41 C          -3.9720   -7.0775   -0.0662 C.ar    1  LIG1        0.0835
     42 C          -4.4570   -8.2577   -0.5861 C.ar    1  LIG1        0.0734
     43 C          -3.4310   -9.2353   -0.4216 C.ar    1  LIG1        0.1511
     44 C          -2.3597   -8.6286    0.1826 C.ar    1  LIG1        0.0455
     45 N          -2.7024   -7.3215    0.3916 N.ar    1  LIG1       -0.3555
     46 H          -2.1711   -6.6578    0.9313 H       1  LIG1        0.1655
     47 H          -1.4010   -9.0295    0.4604 H       1  LIG1        0.0845
     48 S          -6.0377   -8.5304   -1.3149 S.3     1  LIG1       -0.1370
     49 H          -5.5736   -9.2195   -2.3633 H       1  LIG1        0.1073
     50 O          -3.4970  -10.5310   -0.8399 O.3     1  LIG1       -0.4925
     51 C          -4.2184  -11.3733    0.0598 C.3     1  LIG1        0.0789
     52 H          -4.2355  -12.3615   -0.3935 H       1  LIG1        0.0660
     53 H          -3.7073  -11.4090    1.0239 H       1  LIG1        0.0660
     54 H          -5.2356  -11.0015    0.1942 H       1  LIG1        0.0660
@<TRIPOS>BOND
     1    49    48    1
     2    22    21    1
     3    48    42    1
     4    21    16    1
     5    40    37    1
     6     6     5    1
     7    50    43    1
     8    50    51    1
     9    23    17    1
    10    23    24    1
    11    14    11    1
    12    33    32    1
    13    42    43   ar
    14    42    41   ar
    15    16    17   ar
    16    16    15   ar
    17    17    18   ar
    18    43    44   ar
    19    52    51    1
    20     5     1   ar
    21     5     4   ar
    22    25    24    1
    23     7     1    1
    24    27    24    1
    25    15     4    1
    26    15    19   ar
    27    32    31   ar
    28    32    28   ar
    29     1     2   ar
    30    41    31    1
    31    41    45   ar
    32     4     3   ar
    33    18    19   ar
    34    18    28    1
    35    24    26    1
    36     9     8    1
    37    37    39    1
    38    37    38    1
    39    37    36    1
    40    31    30   ar
    41    51    54    1
    42    51    53    1
    43    19    20    1
    44    28    29   ar
    45    44    45   ar
    46    44    47    1
    47    11    12    1
    48    11    13    1
    49    11    10    1
    50    45    46    1
    51     2     3   ar
    52     2     8    1
    53     3    10    1
    54    30    29   ar
    55    30    36    1
    56    29    34    1
    57    34    35    1
