@<TRIPOS>MOLECULE
mol_data/opt/m06hf/geoms/mol2/13gl13gl13gl-13gl-.out
 54 57 0 0 0
SMALL
GASTEIGER

@<TRIPOS>ATOM
      1 C           1.1219    0.2373    1.5240 C.ar    1  LIG1        0.0191
      2 C           1.0870    0.9956    0.3757 C.ar    1  LIG1        0.0645
      3 C          -0.2201    0.8350   -0.1846 C.ar    1  LIG1        0.1598
      4 C          -0.9262   -0.0043    0.6471 C.ar    1  LIG1        0.1074
      5 N          -0.0833   -0.3653    1.6747 N.ar    1  LIG1       -0.3555
      6 H          -0.3773   -0.8876    2.4850 H       1  LIG1        0.1655
      7 H           1.9272    0.0993    2.2250 H       1  LIG1        0.0819
      8 S           2.4807    1.8504   -0.3018 S.3     1  LIG1       -0.1377
      9 H           2.2459    3.0461    0.2580 H       1  LIG1        0.1073
     10 O          -0.7142    1.3307   -1.3465 O.3     1  LIG1       -0.4918
     11 C          -0.6913    2.7534   -1.4667 C.3     1  LIG1        0.0789
     12 H          -1.3274    2.9899   -2.3162 H       1  LIG1        0.0660
     13 H          -1.0955    3.2092   -0.5611 H       1  LIG1        0.0660
     14 H           0.3244    3.1013   -1.6517 H       1  LIG1        0.0660
     15 C          -2.2777   -0.5440    0.5311 C.ar    1  LIG1        0.0840
     16 C          -3.4862    0.0778    0.2951 C.ar    1  LIG1        0.0741
     17 C          -4.4843   -0.9339    0.3198 C.ar    1  LIG1        0.1605
     18 C          -3.8655   -2.1397    0.5655 C.ar    1  LIG1        0.1079
     19 N          -2.5241   -1.8838    0.6820 N.ar    1  LIG1       -0.3479
     20 H          -1.8133   -2.5777    0.8501 H       1  LIG1        0.1661
     21 S          -3.7441    1.7893   -0.0333 S.3     1  LIG1       -0.1370
     22 H          -4.7833    1.9249    0.8004 H       1  LIG1        0.1073
     23 O          -5.8203   -0.7401    0.1575 O.3     1  LIG1       -0.4918
     24 C          -6.2681   -0.9465   -1.1847 C.3     1  LIG1        0.0789
     25 H          -7.3296   -0.7123   -1.1885 H       1  LIG1        0.0660
     26 H          -5.7286   -0.2836   -1.8629 H       1  LIG1        0.0660
     27 H          -6.1134   -1.9890   -1.4699 H       1  LIG1        0.0660
     28 C          -4.4560   -3.4677    0.6497 C.ar    1  LIG1        0.0840
     29 C          -5.6465   -3.8619    1.2210 C.ar    1  LIG1        0.0741
     30 C          -5.7876   -5.2608    0.9553 C.ar    1  LIG1        0.1605
     31 C          -4.6759   -5.6739    0.2571 C.ar    1  LIG1        0.1079
     32 N          -3.8703   -4.5705    0.0840 N.ar    1  LIG1       -0.3479
     33 H          -3.1360   -4.5273   -0.6068 H       1  LIG1        0.1661
     34 S          -6.7174   -2.8404    2.1856 S.3     1  LIG1       -0.1370
     35 H          -6.9390   -3.7897    3.1058 H       1  LIG1        0.1073
     36 O          -6.7775   -6.0757    1.4016 O.3     1  LIG1       -0.4918
     37 C          -8.0706   -5.7822    0.8579 C.3     1  LIG1        0.0789
     38 H          -8.7317   -6.5581    1.2358 H       1  LIG1        0.0660
     39 H          -8.4074   -4.7992    1.1878 H       1  LIG1        0.0660
     40 H          -8.0288   -5.8205   -0.2305 H       1  LIG1        0.0660
     41 C          -4.2393   -6.9987   -0.1732 C.ar    1  LIG1        0.0835
     42 C          -4.9107   -8.0376   -0.7783 C.ar    1  LIG1        0.0734
     43 C          -3.9657   -9.0883   -0.9616 C.ar    1  LIG1        0.1511
     44 C          -2.7525   -8.6638   -0.4741 C.ar    1  LIG1        0.0455
     45 N          -2.9394   -7.3891    0.0015 N.ar    1  LIG1       -0.3555
     46 H          -2.2758   -6.8764    0.5584 H       1  LIG1        0.1655
     47 H          -1.7949   -9.1502   -0.4253 H       1  LIG1        0.0845
     48 S          -6.6134   -8.0942   -1.2201 S.3     1  LIG1       -0.1370
     49 H          -6.4136   -8.6762   -2.4072 H       1  LIG1        0.1073
     50 O          -4.2967  -10.2524   -1.5685 O.3     1  LIG1       -0.4925
     51 C          -3.2443  -11.1904   -1.6703 C.3     1  LIG1        0.0789
     52 H          -3.6556  -12.0653   -2.1656 H       1  LIG1        0.0660
     53 H          -2.4235  -10.7770   -2.2639 H       1  LIG1        0.0660
     54 H          -2.8807  -11.4615   -0.6751 H       1  LIG1        0.0660
@<TRIPOS>BOND
     1    49    48    1
     2    12    11    1
     3    53    51    1
     4    52    51    1
     5    26    24    1
     6    51    50    1
     7    51    54    1
     8    14    11    1
     9    50    43    1
    10    27    24    1
    11    11    10    1
    12    11    13    1
    13    10     3    1
    14    48    42    1
    15    25    24    1
    16    24    23    1
    17    43    42   ar
    18    43    44   ar
    19    42    41   ar
    20    33    32    1
    21    44    47    1
    22    44    45   ar
    23     8     9    1
    24     8     2    1
    25    40    37    1
    26     3     2   ar
    27     3     4   ar
    28    41    45   ar
    29    41    31    1
    30    21    16    1
    31    21    22    1
    32    45    46    1
    33    32    31   ar
    34    32    28   ar
    35    23    17    1
    36    31    30   ar
    37    16    17   ar
    38    16    15   ar
    39    17    18   ar
    40     2     1   ar
    41    15     4    1
    42    15    19   ar
    43    18    28    1
    44    18    19   ar
    45     4     5   ar
    46    28    29   ar
    47    19    20    1
    48    37    39    1
    49    37    38    1
    50    37    36    1
    51    30    29   ar
    52    30    36    1
    53    29    34    1
    54     1     5   ar
    55     1     7    1
    56     5     6    1
    57    34    35    1
