@<TRIPOS>MOLECULE
mol_data/opt/m06hf/geoms/mol2/13gl13gl13gl13gl.out
 54 57 0 0 0
SMALL
GASTEIGER

@<TRIPOS>ATOM
      1 C           1.3864   -0.3467    0.1112 C.ar    1  LIG1        0.0191
      2 C           1.0720    0.8980   -0.3865 C.ar    1  LIG1        0.0645
      3 C          -0.3564    0.9817   -0.4150 C.ar    1  LIG1        0.1598
      4 C          -0.8499   -0.2088    0.0707 C.ar    1  LIG1        0.1074
      5 N           0.2313   -1.0061    0.3741 N.ar    1  LIG1       -0.3555
      6 H           0.1592   -1.8951    0.8419 H       1  LIG1        0.1655
      7 H           2.3534   -0.7865    0.2848 H       1  LIG1        0.0819
      8 S           2.2562    2.0437   -1.0305 S.3     1  LIG1       -0.1377
      9 H           2.4253    2.7758    0.0781 H       1  LIG1        0.1073
     10 O          -1.1430    1.9842   -0.8785 O.3     1  LIG1       -0.4918
     11 C          -0.9127    3.2646   -0.2892 C.3     1  LIG1        0.0789
     12 H          -1.7792    3.8703   -0.5434 H       1  LIG1        0.0660
     13 H          -0.8344    3.1637    0.7949 H       1  LIG1        0.0660
     14 H          -0.0093    3.7126   -0.7008 H       1  LIG1        0.0660
     15 C          -2.2212   -0.6880    0.1865 C.ar    1  LIG1        0.0840
     16 C          -3.3681   -0.0467    0.5957 C.ar    1  LIG1        0.0741
     17 C          -4.4407   -0.9856    0.4658 C.ar    1  LIG1        0.1605
     18 C          -3.9102   -2.1704    0.0083 C.ar    1  LIG1        0.1079
     19 N          -2.5547   -1.9744   -0.1500 N.ar    1  LIG1       -0.3479
     20 H          -1.9778   -2.5620   -0.7336 H       1  LIG1        0.1661
     21 S          -3.4503    1.5950    1.2338 S.3     1  LIG1       -0.1370
     22 H          -4.1368    1.2603    2.3346 H       1  LIG1        0.1073
     23 O          -5.7368   -0.7962    0.8216 O.3     1  LIG1       -0.4918
     24 C          -6.4234    0.1882    0.0371 C.3     1  LIG1        0.0789
     25 H          -7.4634    0.1412    0.3509 H       1  LIG1        0.0660
     26 H          -6.0113    1.1789    0.2273 H       1  LIG1        0.0660
     27 H          -6.3382   -0.0611   -1.0204 H       1  LIG1        0.0660
     28 C          -4.5051   -3.4868   -0.1834 C.ar    1  LIG1        0.0840
     29 C          -5.7552   -3.8819   -0.6049 C.ar    1  LIG1        0.0741
     30 C          -5.7807   -5.3114   -0.5544 C.ar    1  LIG1        0.1605
     31 C          -4.5458   -5.7429   -0.1309 C.ar    1  LIG1        0.1079
     32 N          -3.7777   -4.6195    0.0844 N.ar    1  LIG1       -0.3479
     33 H          -2.9469   -4.6223    0.6571 H       1  LIG1        0.1661
     34 S          -7.0423   -2.8338   -1.1965 S.3     1  LIG1       -0.1370
     35 H          -7.3715   -3.6358   -2.2190 H       1  LIG1        0.1073
     36 O          -6.8000   -6.1135   -0.9565 O.3     1  LIG1       -0.4918
     37 C          -7.9640   -6.0376   -0.1229 C.3     1  LIG1        0.0789
     38 H          -8.6496   -6.7907   -0.5039 H       1  LIG1        0.0660
     39 H          -7.6923   -6.2618    0.9080 H       1  LIG1        0.0660
     40 H          -8.4128   -5.0463   -0.1866 H       1  LIG1        0.0660
     41 C          -3.9658   -7.0787   -0.0265 C.ar    1  LIG1        0.0835
     42 C          -4.4505   -8.2678    0.4728 C.ar    1  LIG1        0.0734
     43 C          -3.4218   -9.2408    0.2969 C.ar    1  LIG1        0.1511
     44 C          -2.3493   -8.6225   -0.2933 C.ar    1  LIG1        0.0455
     45 N          -2.6939   -7.3130   -0.4831 N.ar    1  LIG1       -0.3555
     46 H          -2.1619   -6.6399   -1.0102 H       1  LIG1        0.1655
     47 H          -1.3888   -9.0170   -0.5739 H       1  LIG1        0.0845
     48 S          -6.0333   -8.5556    1.1908 S.3     1  LIG1       -0.1370
     49 H          -5.5720   -9.2598    2.2303 H       1  LIG1        0.1073
     50 O          -3.4869  -10.5430    0.6945 O.3     1  LIG1       -0.4925
     51 C          -4.2032  -11.3725   -0.2211 C.3     1  LIG1        0.0789
     52 H          -4.2199  -12.3677    0.2166 H       1  LIG1        0.0660
     53 H          -5.2206  -11.0007   -0.3534 H       1  LIG1        0.0660
     54 H          -3.6885  -11.3919   -1.1837 H       1  LIG1        0.0660
@<TRIPOS>BOND
     1    35    34    1
     2    34    29    1
     3    54    51    1
     4     8     2    1
     5     8     9    1
     6    27    24    1
     7    46    45    1
     8    36    30    1
     9    36    37    1
    10    10     3    1
    11    10    11    1
    12    20    19    1
    13    14    11    1
    14    29    30   ar
    15    29    28   ar
    16    47    44    1
    17    30    31   ar
    18    12    11    1
    19    38    37    1
    20    45    44   ar
    21    45    41   ar
    22     3     2   ar
    23     3     4   ar
    24     2     1   ar
    25    53    51    1
    26    44    43   ar
    27    11    13    1
    28    51    52    1
    29    51    50    1
    30    40    37    1
    31    28    18    1
    32    28    32   ar
    33    19    18   ar
    34    19    15   ar
    35    31    41    1
    36    31    32   ar
    37    37    39    1
    38    41    42   ar
    39    18    17   ar
    40    24    26    1
    41    24    25    1
    42    24    23    1
    43     4    15    1
    44     4     5   ar
    45    32    33    1
    46     1     7    1
    47     1     5   ar
    48    15    16   ar
    49    43    42   ar
    50    43    50    1
    51     5     6    1
    52    17    16   ar
    53    17    23    1
    54    42    48    1
    55    16    21    1
    56    48    49    1
    57    21    22    1
