@<TRIPOS>MOLECULE
mol_data/opt/m06hf/geoms/mol2/13gl13gl13gl-.out
 41 43 0 0 0
SMALL
GASTEIGER

@<TRIPOS>ATOM
      1 C           1.3801   -0.2417    0.8927 C.ar    1  LIG1        0.0191
      2 C           1.1692    0.8635    0.0986 C.ar    1  LIG1        0.0645
      3 C          -0.2281    0.8883   -0.2078 C.ar    1  LIG1        0.1598
      4 C          -0.8086   -0.1936    0.4137 C.ar    1  LIG1        0.1074
      5 N           0.1938   -0.8744    1.0685 N.ar    1  LIG1       -0.3555
      6 H           0.0316   -1.6499    1.6917 H       1  LIG1        0.1655
      7 H           2.2961   -0.6043    1.3267 H       1  LIG1        0.0819
      8 S           2.4530    1.8985   -0.5387 S.3     1  LIG1       -0.1377
      9 H           2.3733    2.8760    0.3744 H       1  LIG1        0.1073
     10 O          -0.9097    1.7452   -1.0084 O.3     1  LIG1       -0.4918
     11 C          -0.8274    3.1236   -0.6438 C.3     1  LIG1        0.0789
     12 H          -1.6242    3.6237   -1.1896 H       1  LIG1        0.0660
     13 H          -0.9865    3.2342    0.4301 H       1  LIG1        0.0660
     14 H           0.1391    3.5345   -0.9342 H       1  LIG1        0.0660
     15 C          -2.1873   -0.6727    0.3845 C.ar    1  LIG1        0.0840
     16 C          -3.3776   -0.0201    0.6270 C.ar    1  LIG1        0.0741
     17 C          -4.4145   -0.9796    0.4712 C.ar    1  LIG1        0.1605
     18 C          -3.8378   -2.1840    0.1357 C.ar    1  LIG1        0.1079
     19 N          -2.4842   -1.9760    0.0807 N.ar    1  LIG1       -0.3479
     20 H          -1.7958   -2.6777   -0.1434 H       1  LIG1        0.1661
     21 S          -3.5810    1.6920    0.9882 S.3     1  LIG1       -0.1370
     22 H          -4.4493    1.5139    1.9910 H       1  LIG1        0.1073
     23 O          -5.7449   -0.7582    0.6501 O.3     1  LIG1       -0.4918
     24 C          -6.4376   -0.4450   -0.5598 C.3     1  LIG1        0.0789
     25 H          -7.4771   -0.2902   -0.2817 H       1  LIG1        0.0660
     26 H          -6.0207    0.4613   -1.0021 H       1  LIG1        0.0660
     27 H          -6.3557   -1.2795   -1.2589 H       1  LIG1        0.0660
     28 C          -4.4843   -3.4568   -0.1531 C.ar    1  LIG1        0.0835
     29 C          -5.5718   -4.0493    0.4496 C.ar    1  LIG1        0.0734
     30 C          -5.8000   -5.2784   -0.2388 C.ar    1  LIG1        0.1511
     31 C          -4.8573   -5.3962   -1.2285 C.ar    1  LIG1        0.0455
     32 N          -4.0662   -4.2825   -1.1673 N.ar    1  LIG1       -0.3555
     33 H          -3.3666   -4.0308   -1.8467 H       1  LIG1        0.1655
     34 H          -4.6960   -6.1842   -1.9423 H       1  LIG1        0.0845
     35 S          -6.4958   -3.4579    1.8324 S.3     1  LIG1       -0.1370
     36 H          -6.8165   -4.6968    2.2306 H       1  LIG1        0.1073
     37 O          -6.7632   -6.1881    0.0861 O.3     1  LIG1       -0.4925
     38 C          -8.0393   -5.8744   -0.4720 C.3     1  LIG1        0.0789
     39 H          -8.7312   -6.6254   -0.0979 H       1  LIG1        0.0660
     40 H          -8.3556   -4.8785   -0.1564 H       1  LIG1        0.0660
     41 H          -7.9882   -5.9175   -1.5619 H       1  LIG1        0.0660
@<TRIPOS>BOND
     1    34    31    1
     2    33    32    1
     3    41    38    1
     4    27    24    1
     5    31    32   ar
     6    31    30   ar
     7    12    11    1
     8    32    28   ar
     9    10    11    1
    10    10     3    1
    11    26    24    1
    12    14    11    1
    13    11    13    1
    14    24    25    1
    15    24    23    1
    16     8     2    1
    17     8     9    1
    18    38    40    1
    19    38    39    1
    20    38    37    1
    21    30    37    1
    22    30    29   ar
    23     3     2   ar
    24     3     4   ar
    25    28    18    1
    26    28    29   ar
    27    20    19    1
    28    19    18   ar
    29    19    15   ar
    30     2     1   ar
    31    18    17   ar
    32    15     4    1
    33    15    16   ar
    34     4     5   ar
    35    29    35    1
    36    17    16   ar
    37    17    23    1
    38    16    21    1
    39     1     5   ar
    40     1     7    1
    41    21    22    1
    42     5     6    1
    43    35    36    1
