@<TRIPOS>MOLECULE
mol_data/opt/m06hf/geoms/mol2/13gl.out
 15 15 0 0 0
SMALL
GASTEIGER

@<TRIPOS>ATOM
      1 C           1.1213   -0.4423   -0.2221 C.ar    1  LIG1        0.0186
      2 C           0.9613    0.8666    0.1633 C.ar    1  LIG1        0.0638
      3 C          -0.4413    1.0774    0.3354 C.ar    1  LIG1        0.1504
      4 C          -1.0782   -0.1028    0.0488 C.ar    1  LIG1        0.0450
      5 N          -0.1126   -1.0129   -0.2924 N.ar    1  LIG1       -0.3630
      6 H          -0.2900   -1.9697   -0.5492 H       1  LIG1        0.1649
      7 H          -2.1237   -0.3523    0.0803 H       1  LIG1        0.0844
      8 H           2.0206   -0.9894   -0.4450 H       1  LIG1        0.0819
      9 S           2.2494    2.0598    0.3535 S.3     1  LIG1       -0.1377
     10 H           2.0682    2.2822    1.6607 H       1  LIG1        0.1073
     11 O          -1.0368    2.2323    0.7478 O.3     1  LIG1       -0.4925
     12 C          -1.1506    3.2106   -0.2841 C.3     1  LIG1        0.0789
     13 H          -1.6080    4.0854    0.1727 H       1  LIG1        0.0660
     14 H          -0.1648    3.4646   -0.6762 H       1  LIG1        0.0660
     15 H          -1.7849    2.8302   -1.0879 H       1  LIG1        0.0660
@<TRIPOS>BOND
     1    15    12    1
     2    14    12    1
     3     6     5    1
     4     8     1    1
     5     5     1   ar
     6     5     4   ar
     7    12    13    1
     8    12    11    1
     9     1     2   ar
    10     4     7    1
    11     4     3   ar
    12     2     3   ar
    13     2     9    1
    14     3    11    1
    15     9    10    1
