@<TRIPOS>MOLECULE
mol_data/opt/m06hf/geoms/mol2/13gl13gl-13gl13gl.out
 54 57 0 0 0
SMALL
GASTEIGER

@<TRIPOS>ATOM
      1 C           1.3952   -0.3590    0.0961 C.ar    1  LIG1        0.0191
      2 C           1.0820    0.8830   -0.4090 C.ar    1  LIG1        0.0645
      3 C          -0.3463    0.9706   -0.4314 C.ar    1  LIG1        0.1598
      4 C          -0.8410   -0.2150    0.0651 C.ar    1  LIG1        0.1074
      5 N           0.2394   -1.0133    0.3691 N.ar    1  LIG1       -0.3555
      6 H           0.1670   -1.8984    0.8439 H       1  LIG1        0.1655
      7 H           2.3617   -0.8004    0.2683 H       1  LIG1        0.0819
      8 S           2.2662    2.0207   -1.0668 S.3     1  LIG1       -0.1377
      9 H           2.4426    2.7602    0.0358 H       1  LIG1        0.1073
     10 O          -1.1320    1.9721   -0.8984 O.3     1  LIG1       -0.4918
     11 C          -0.8964    3.2554   -0.3174 C.3     1  LIG1        0.0789
     12 H          -1.7608    3.8628   -0.5750 H       1  LIG1        0.0660
     13 H          -0.8179    3.1611    0.7673 H       1  LIG1        0.0660
     14 H           0.0085    3.6972   -0.7324 H       1  LIG1        0.0660
     15 C          -2.2130   -0.6897    0.1904 C.ar    1  LIG1        0.0840
     16 C          -3.3564   -0.0423    0.5997 C.ar    1  LIG1        0.0741
     17 C          -4.4321   -0.9794    0.4816 C.ar    1  LIG1        0.1605
     18 C          -3.9066   -2.1690    0.0309 C.ar    1  LIG1        0.1079
     19 N          -2.5512   -1.9777   -0.1348 N.ar    1  LIG1       -0.3479
     20 H          -1.9783   -2.5712   -0.7162 H       1  LIG1        0.1661
     21 S          -3.4319    1.6043    1.2258 S.3     1  LIG1       -0.1370
     22 H          -4.1139    1.2795    2.3323 H       1  LIG1        0.1073
     23 O          -5.7261   -0.7839    0.8416 O.3     1  LIG1       -0.4918
     24 C          -6.4137    0.1960    0.0523 C.3     1  LIG1        0.0789
     25 H          -7.4520    0.1553    0.3723 H       1  LIG1        0.0660
     26 H          -5.9971    1.1868    0.2315 H       1  LIG1        0.0660
     27 H          -6.3353   -0.0629   -1.0035 H       1  LIG1        0.0660
     28 C          -4.5057   -3.4853   -0.1478 C.ar    1  LIG1        0.0840
     29 C          -5.7587   -3.8804   -0.5603 C.ar    1  LIG1        0.0741
     30 C          -5.7877   -5.3094   -0.4985 C.ar    1  LIG1        0.1605
     31 C          -4.5520   -5.7408   -0.0773 C.ar    1  LIG1        0.1079
     32 N          -3.7799   -4.6178    0.1254 N.ar    1  LIG1       -0.3479
     33 H          -2.9462   -4.6183    0.6938 H       1  LIG1        0.1661
     34 S          -7.0460   -2.8337   -1.1541 S.3     1  LIG1       -0.1370
     35 H          -7.3820   -3.6430   -2.1686 H       1  LIG1        0.1073
     36 O          -6.8109   -6.1119   -0.8896 O.3     1  LIG1       -0.4918
     37 C          -7.9709   -6.0266   -0.0514 C.3     1  LIG1        0.0789
     38 H          -8.6595   -6.7819   -0.4225 H       1  LIG1        0.0660
     39 H          -7.6948   -6.2421    0.9803 H       1  LIG1        0.0660
     40 H          -8.4183   -5.0351   -0.1217 H       1  LIG1        0.0660
     41 C          -3.9752   -7.0773    0.0347 C.ar    1  LIG1        0.0835
     42 C          -4.4608   -8.2611    0.5458 C.ar    1  LIG1        0.0734
     43 C          -3.4361   -9.2386    0.3716 C.ar    1  LIG1        0.1511
     44 C          -2.3651   -8.6283   -0.2295 C.ar    1  LIG1        0.0455
     45 N          -2.7067   -7.3191   -0.4273 N.ar    1  LIG1       -0.3555
     46 H          -2.1757   -6.6518   -0.9628 H       1  LIG1        0.1655
     47 H          -1.4073   -9.0279   -0.5121 H       1  LIG1        0.0845
     48 S          -6.0405   -8.5380    1.2749 S.3     1  LIG1       -0.1370
     49 H          -5.5755   -9.2362    2.3169 H       1  LIG1        0.1073
     50 O          -3.5029  -10.5375    0.7796 O.3     1  LIG1       -0.4925
     51 C          -4.2266  -11.3719   -0.1256 C.3     1  LIG1        0.0789
     52 H          -4.2441  -12.3636    0.3199 H       1  LIG1        0.0660
     53 H          -5.2436  -10.9978   -0.2555 H       1  LIG1        0.0660
     54 H          -3.7170  -11.4004   -1.0907 H       1  LIG1        0.0660
@<TRIPOS>BOND
     1    35    34    1
     2    34    29    1
     3    54    51    1
     4     8     2    1
     5     8     9    1
     6    27    24    1
     7    46    45    1
     8    10     3    1
     9    10    11    1
    10    36    30    1
    11    36    37    1
    12    14    11    1
    13    20    19    1
    14    12    11    1
    15    29    30   ar
    16    29    28   ar
    17    47    44    1
    18    30    31   ar
    19     3     2   ar
    20     3     4   ar
    21    45    44   ar
    22    45    41   ar
    23    38    37    1
    24     2     1   ar
    25    11    13    1
    26    53    51    1
    27    44    43   ar
    28    28    18    1
    29    28    32   ar
    30    19    18   ar
    31    19    15   ar
    32    51    52    1
    33    51    50    1
    34    40    37    1
    35    31    41    1
    36    31    32   ar
    37    37    39    1
    38    18    17   ar
    39    41    42   ar
    40    24    26    1
    41    24    25    1
    42    24    23    1
    43     4    15    1
    44     4     5   ar
    45     1     7    1
    46     1     5   ar
    47    32    33    1
    48    15    16   ar
    49     5     6    1
    50    43    42   ar
    51    43    50    1
    52    17    16   ar
    53    17    23    1
    54    42    48    1
    55    16    21    1
    56    21    22    1
    57    48    49    1
