@<TRIPOS>MOLECULE
mol_data/opt/m06hf/geoms/mol2/13ha13ha-.out
 22 23 0 0 0
SMALL
GASTEIGER

@<TRIPOS>ATOM
      1 C           1.1329   -0.2624   -0.0968 C.ar    1  LIG1        0.0230
      2 C           0.7590    1.0608   -0.0113 C.ar    1  LIG1        0.0427
      3 C          -0.6632    1.0962    0.0236 C.ar    1  LIG1       -0.0142
      4 C          -1.0964   -0.2141   -0.0457 C.ar    1  LIG1        0.0665
      5 N          -0.0041   -1.0190   -0.1058 N.ar    1  LIG1       -0.3578
      6 H          -0.1070   -2.0283   -0.1561 H       1  LIG1        0.1654
      7 H           2.1116   -0.7083   -0.1440 H       1  LIG1        0.0826
      8 N           1.5997    2.2021    0.0783 N.pl3   1  LIG1       -0.3568
      9 H           2.5777    1.9374    0.1127 H       1  LIG1        0.1424
     10 H           1.4620    2.8220   -0.7135 H       1  LIG1        0.1424
     11 H          -1.2677    1.9849    0.1083 H       1  LIG1        0.0658
     12 C          -2.4302   -0.8094   -0.0494 C.ar    1  LIG1        0.0838
     13 C          -2.7996   -2.1369   -0.1237 C.ar    1  LIG1        0.0516
     14 C          -4.2244   -2.1900   -0.0902 C.ar    1  LIG1       -0.0230
     15 C          -4.6688   -0.8955    0.0035 C.ar    1  LIG1        0.0040
     16 N          -3.5761   -0.0747    0.0266 N.ar    1  LIG1       -0.3580
     17 H          -3.6028    0.9290    0.0967 H       1  LIG1        0.1654
     18 H          -5.6664   -0.4956    0.0556 H       1  LIG1        0.0807
     19 N          -1.8533   -3.2132   -0.2143 N.pl3   1  LIG1       -0.3563
     20 H          -1.9675   -3.8548    0.5655 H       1  LIG1        0.1424
     21 H          -1.9925   -3.7405   -1.0718 H       1  LIG1        0.1424
     22 H          -4.8374   -3.0752   -0.1303 H       1  LIG1        0.0651
@<TRIPOS>BOND
     1    21    19    1
     2    10     8    1
     3    19    13    1
     4    19    20    1
     5     6     5    1
     6     7     1    1
     7    22    14    1
     8    13    14   ar
     9    13    12   ar
    10     5     1   ar
    11     5     4   ar
    12     1     2   ar
    13    14    15   ar
    14    12     4    1
    15    12    16   ar
    16     4     3   ar
    17     2     3   ar
    18     2     8    1
    19    15    16   ar
    20    15    18    1
    21     3    11    1
    22    16    17    1
    23     8     9    1
