@<TRIPOS>MOLECULE
mol_data/opt/m06hf/geoms/mol2/13ha13ha-13ha-13ha.out
 42 45 0 0 0
SMALL
GASTEIGER

@<TRIPOS>ATOM
      1 C           1.3113   -0.4499   -0.1851 C.ar    1  LIG1        0.0230
      2 C           0.9841    0.7803   -0.7131 C.ar    1  LIG1        0.0427
      3 C          -0.4353    0.8736   -0.7178 C.ar    1  LIG1       -0.0142
      4 C          -0.9151   -0.3113   -0.1926 C.ar    1  LIG1        0.0665
      5 N           0.1488   -1.0915    0.1340 N.ar    1  LIG1       -0.3578
      6 H           0.0118   -2.0085    0.5479 H       1  LIG1        0.1654
      7 H           2.2735   -0.8998   -0.0117 H       1  LIG1        0.0826
      8 N           1.8639    1.8110   -1.1381 N.pl3   1  LIG1       -0.3568
      9 H           2.8315    1.5699   -0.9572 H       1  LIG1        0.1424
     10 H           1.7573    2.0010   -2.1292 H       1  LIG1        0.1424
     11 H          -1.0088    1.7228   -1.0520 H       1  LIG1        0.0658
     12 C          -2.2698   -0.7957    0.0516 C.ar    1  LIG1        0.0843
     13 C          -2.6934   -1.9985    0.5808 C.ar    1  LIG1        0.0523
     14 C          -4.1180   -1.9794    0.6120 C.ar    1  LIG1       -0.0135
     15 C          -4.5173   -0.7653    0.0936 C.ar    1  LIG1        0.0670
     16 N          -3.3857   -0.0659   -0.2385 N.ar    1  LIG1       -0.3504
     17 H          -3.3876    0.8277   -0.7038 H       1  LIG1        0.1660
     18 N          -1.7903   -3.0258    1.0164 N.pl3   1  LIG1       -0.3563
     19 H          -1.9375   -3.2352    2.0002 H       1  LIG1        0.1424
     20 H          -1.9471   -3.8835    0.4941 H       1  LIG1        0.1424
     21 H          -4.7781   -2.7358    1.0072 H       1  LIG1        0.0658
     22 C          -5.8520   -0.2233   -0.1353 C.ar    1  LIG1        0.0843
     23 C          -6.9663   -0.8522   -0.6588 C.ar    1  LIG1        0.0523
     24 C          -8.0098    0.1100   -0.7112 C.ar    1  LIG1       -0.0135
     25 C          -7.4871    1.2954   -0.2223 C.ar    1  LIG1        0.0670
     26 N          -6.1930    1.0812    0.1222 N.ar    1  LIG1       -0.3504
     27 H          -5.6457    1.8070    0.5775 H       1  LIG1        0.1660
     28 N          -7.0501   -2.2078   -1.0390 N.pl3   1  LIG1       -0.3563
     29 H          -7.5807   -2.3234   -1.8946 H       1  LIG1        0.1424
     30 H          -6.1226   -2.6044   -1.1594 H       1  LIG1        0.1424
     31 H          -9.0157   -0.0633   -1.0575 H       1  LIG1        0.0658
     32 C          -8.0765    2.6150   -0.0223 C.ar    1  LIG1        0.0839
     33 C          -7.5235    3.7457    0.5438 C.ar    1  LIG1        0.0516
     34 C          -8.5104    4.7738    0.5027 C.ar    1  LIG1       -0.0230
     35 C          -9.6251    4.2323   -0.0871 C.ar    1  LIG1        0.0040
     36 N          -9.3491    2.9305   -0.3971 N.ar    1  LIG1       -0.3580
     37 H          -9.9839    2.2890   -0.8424 H       1  LIG1        0.1654
     38 H         -10.5837    4.6673   -0.3093 H       1  LIG1        0.0807
     39 N          -6.1853    3.7891    1.0611 N.pl3   1  LIG1       -0.3563
     40 H          -5.6552    4.5363    0.6216 H       1  LIG1        0.1424
     41 H          -6.1934    3.9659    2.0623 H       1  LIG1        0.1424
     42 H          -8.4050    5.7833    0.8643 H       1  LIG1        0.0651
@<TRIPOS>BOND
     1    10     8    1
     2    29    28    1
     3    30    28    1
     4     8     9    1
     5     8     2    1
     6    31    24    1
     7    11     3    1
     8    28    23    1
     9    37    36    1
    10     3     2   ar
    11     3     4   ar
    12     2     1   ar
    13    24    23   ar
    14    24    25   ar
    15    17    16    1
    16    23    22   ar
    17    36    35   ar
    18    36    32   ar
    19    38    35    1
    20    16    12   ar
    21    16    15   ar
    22    25    32    1
    23    25    26   ar
    24     4    12    1
    25     4     5   ar
    26     1     7    1
    27     1     5   ar
    28    22    15    1
    29    22    26   ar
    30    35    34   ar
    31    32    33   ar
    32    12    13   ar
    33    15    14   ar
    34    26    27    1
    35     5     6    1
    36    20    18    1
    37    34    33   ar
    38    34    42    1
    39    33    39    1
    40    13    14   ar
    41    13    18    1
    42    14    21    1
    43    40    39    1
    44    18    19    1
    45    39    41    1
