@<TRIPOS>MOLECULE
mol_data/opt/m06hf/geoms/mol2/13ha13ha-13ha.out
 32 34 0 0 0
SMALL
GASTEIGER

@<TRIPOS>ATOM
      1 C           1.2100   -0.2767   -0.0523 C.ar    1  LIG1        0.0230
      2 C           0.8203    1.0449   -0.0567 C.ar    1  LIG1        0.0427
      3 C          -0.6018    1.0666   -0.0647 C.ar    1  LIG1       -0.0142
      4 C          -1.0210   -0.2498   -0.0682 C.ar    1  LIG1        0.0665
      5 N           0.0810   -1.0457   -0.0489 N.ar    1  LIG1       -0.3578
      6 H          -0.0103   -2.0568   -0.0402 H       1  LIG1        0.1654
      7 H           2.1939   -0.7123   -0.0447 H       1  LIG1        0.0826
      8 N           1.6475    2.1991   -0.0116 N.pl3   1  LIG1       -0.3568
      9 H           2.6258    1.9487    0.0753 H       1  LIG1        0.1424
     10 H           1.5316    2.7650   -0.8458 H       1  LIG1        0.1424
     11 H          -1.2216    1.9485   -0.0506 H       1  LIG1        0.0658
     12 C          -2.3506   -0.8522   -0.0729 C.ar    1  LIG1        0.0843
     13 C          -2.7099   -2.1886   -0.0729 C.ar    1  LIG1        0.0523
     14 C          -4.1308   -2.2527   -0.0773 C.ar    1  LIG1       -0.0135
     15 C          -4.5845   -0.9485   -0.0801 C.ar    1  LIG1        0.0670
     16 N          -3.4979   -0.1241   -0.0778 N.ar    1  LIG1       -0.3504
     17 H          -3.6135    0.8870   -0.0735 H       1  LIG1        0.1660
     18 N          -1.7565   -3.2617   -0.0662 N.pl3   1  LIG1       -0.3563
     19 H          -1.8822   -3.8483    0.7541 H       1  LIG1        0.1424
     20 H          -1.8687   -3.8477   -0.8887 H       1  LIG1        0.1424
     21 H          -4.7285   -3.1510   -0.0770 H       1  LIG1        0.0658
     22 C          -5.9233   -0.3672   -0.0823 C.ar    1  LIG1        0.0839
     23 C          -6.3012    0.9601   -0.0737 C.ar    1  LIG1        0.0516
     24 C          -7.7267    1.0017   -0.0784 C.ar    1  LIG1       -0.0230
     25 C          -8.1634   -0.2990   -0.0895 C.ar    1  LIG1        0.0040
     26 N          -7.0655   -1.1131   -0.0916 N.ar    1  LIG1       -0.3580
     27 H          -7.0874   -2.1196   -0.1008 H       1  LIG1        0.1654
     28 H          -9.1585   -0.7077   -0.0962 H       1  LIG1        0.0807
     29 N          -5.3610    2.0444   -0.0624 N.pl3   1  LIG1       -0.3563
     30 H          -5.4891    2.6392   -0.8762 H       1  LIG1        0.1424
     31 H          -5.4850    2.6191    0.7665 H       1  LIG1        0.1424
     32 H          -8.3447    1.8848   -0.0736 H       1  LIG1        0.0651
@<TRIPOS>BOND
     1    20    18    1
     2    30    29    1
     3    10     8    1
     4    27    26    1
     5    28    25    1
     6    26    25   ar
     7    26    22   ar
     8    25    24   ar
     9    22    15    1
    10    22    23   ar
    11    15    16   ar
    12    15    14   ar
    13    24    23   ar
    14    24    32    1
    15    16    17    1
    16    16    12   ar
    17    14    21    1
    18    14    13   ar
    19    23    29    1
    20    12    13   ar
    21    12     4    1
    22    13    18    1
    23     4     3   ar
    24     4     5   ar
    25    18    19    1
    26     3     2   ar
    27     3    11    1
    28    29    31    1
    29     2     1   ar
    30     2     8    1
    31     1     5   ar
    32     1     7    1
    33     5     6    1
    34     8     9    1
