@<TRIPOS>MOLECULE
mol_data/opt/m06hf/geoms/mol2/13ha13fd6eh-12ad-.out
 43 46 0 0 0
SMALL
GASTEIGER

@<TRIPOS>ATOM
      1 C           1.0680    0.1529    1.0207 C.ar    1  LIG1        0.0230
      2 C           0.8390    1.2027    0.1623 C.ar    1  LIG1        0.0427
      3 C          -0.4792    1.0462   -0.3557 C.ar    1  LIG1       -0.0142
      4 C          -1.0024   -0.0941    0.2081 C.ar    1  LIG1        0.0683
      5 N          -0.0601   -0.6312    1.0390 N.ar    1  LIG1       -0.3578
      6 H          -0.2307   -1.3796    1.6904 H       1  LIG1        0.1654
      7 H           1.9312   -0.0864    1.6170 H       1  LIG1        0.0826
      8 N           1.7043    2.2784   -0.1274 N.pl3   1  LIG1       -0.3568
      9 H           2.6574    2.0991    0.1626 H       1  LIG1        0.1424
     10 H           1.6899    2.5239   -1.1098 H       1  LIG1        0.1424
     11 H          -0.9882    1.6875   -1.0558 H       1  LIG1        0.0658
     12 C          -2.3095   -0.7146    0.0253 C.ar    1  LIG1        0.1067
     13 C          -3.5474   -0.1421   -0.1611 C.ar    1  LIG1        0.1615
     14 C          -4.4887   -1.1987   -0.2842 C.ar    1  LIG1        0.1190
     15 C          -3.7936   -2.4040   -0.1664 C.ar    1  LIG1        0.0709
     16 N          -2.4950   -2.0747    0.0126 N.ar    1  LIG1       -0.3490
     17 H          -1.7474   -2.7576    0.0123 H       1  LIG1        0.1661
     18 O          -3.7848    1.1877   -0.2207 O.3     1  LIG1       -0.5034
     19 H          -4.7335    1.3572   -0.2624 H       1  LIG1        0.2923
     20 N          -7.0053   -0.7809   -0.6570 N.1     1  LIG1       -0.1907
     21 C          -5.8859   -0.9927   -0.5003 C.1     1  LIG1        0.1050
     22 C          -3.4988   -4.9051   -0.5113 C.ar    1  LIG1        0.1232
     23 C          -4.2986   -3.7867   -0.1994 C.ar    1  LIG1        0.0353
     24 C          -5.6402   -4.0242    0.0868 C.ar    1  LIG1       -0.0270
     25 C          -6.1635   -5.3153    0.0423 C.ar    1  LIG1        0.0547
     26 C          -5.2570   -6.3610   -0.2373 C.ar    1  LIG1        0.1279
     27 N          -3.9816   -6.1430   -0.5114 N.ar    1  LIG1       -0.2328
     28 H          -6.2965   -3.2014    0.3390 H       1  LIG1        0.0644
     29 C          -2.0928   -4.7952   -0.8542 C.1     1  LIG1       -0.0491
     30 C          -0.9255   -4.7284   -1.1390 C.1     1  LIG1       -0.1124
     31 H           0.1032   -4.6936   -1.4191 H       1  LIG1        0.1232
     32 N          -7.4952   -5.5617    0.3059 N.pl3   1  LIG1       -0.3562
     33 H          -8.1001   -4.7529    0.2746 H       1  LIG1        0.1424
     34 H          -7.8854   -6.3767   -0.1500 H       1  LIG1        0.1424
     35 C          -5.6955   -7.7695   -0.2262 C.ar    1  LIG1        0.1560
     36 C          -6.6487   -8.4404    0.4788 C.ar    1  LIG1        0.0032
     37 C          -6.5274   -9.8145    0.0714 C.ar    1  LIG1        0.0900
     38 C          -5.5179   -9.8550   -0.8398 C.ar    1  LIG1        0.1100
     39 O          -5.0187   -8.6317   -1.0187 O.2     1  LIG1       -0.4600
     40 H          -5.0820  -10.6585   -1.4072 H       1  LIG1        0.1043
     41 H          -7.3148   -8.0386    1.2237 H       1  LIG1        0.0669
     42 N          -7.9299  -11.8235    0.8871 N.1     1  LIG1       -0.1908
     43 C          -7.3039  -10.9340    0.5225 C.1     1  LIG1        0.1023
@<TRIPOS>BOND
     1    31    30    1
     2    40    38    1
     3    30    29    3
     4    10     8    1
     5    11     3    1
     6    39    38   ar
     7    39    35   ar
     8    29    22    1
     9    38    37   ar
    10    20    21    3
    11    27    22   ar
    12    27    26   ar
    13    22    23   ar
    14    21    14    1
    15     3     2   ar
    16     3     4   ar
    17    14    15   ar
    18    14    13   ar
    19    19    18    1
    20    26    35    1
    21    26    25   ar
    22    35    36   ar
    23    18    13    1
    24    23    15    1
    25    23    24   ar
    26    15    16   ar
    27    13    12   ar
    28    34    32    1
    29     8     2    1
    30     8     9    1
    31    17    16    1
    32    16    12   ar
    33    12     4    1
    34    25    24   ar
    35    25    32    1
    36    37    36   ar
    37    37    43    1
    38    24    28    1
    39     2     1   ar
    40     4     5   ar
    41    33    32    1
    42    36    41    1
    43    43    42    3
    44     1     5   ar
    45     1     7    1
    46     5     6    1
