@<TRIPOS>MOLECULE
mol_data/opt/m06hf/geoms/mol2/13ha13ha-13ha-13ha-.out
 42 45 0 0 0
SMALL
GASTEIGER

@<TRIPOS>ATOM
      1 C           1.2909   -0.4244   -0.3651 C.ar    1  LIG1        0.0230
      2 C           0.9271    0.7760   -0.9368 C.ar    1  LIG1        0.0427
      3 C          -0.4916    0.8586   -0.8769 C.ar    1  LIG1       -0.0142
      4 C          -0.9340   -0.3022   -0.2712 C.ar    1  LIG1        0.0665
      5 N           0.1516   -1.0577    0.0412 N.ar    1  LIG1       -0.3578
      6 H           0.0444   -1.9544    0.5051 H       1  LIG1        0.1654
      7 H           2.2646   -0.8582   -0.2164 H       1  LIG1        0.0826
      8 N           1.7750    1.7912   -1.4525 N.pl3   1  LIG1       -0.3568
      9 H           2.7525    1.5716   -1.3004 H       1  LIG1        0.1424
     10 H           1.6240    1.9302   -2.4462 H       1  LIG1        0.1424
     11 H          -1.0877    1.6868   -1.2244 H       1  LIG1        0.0658
     12 C          -2.2702   -0.7814    0.0676 C.ar    1  LIG1        0.0843
     13 C          -2.6559   -1.9628    0.6708 C.ar    1  LIG1        0.0523
     14 C          -4.0761   -1.9458    0.7837 C.ar    1  LIG1       -0.0135
     15 C          -4.5120   -0.7562    0.2407 C.ar    1  LIG1        0.0670
     16 N          -3.4039   -0.0671   -0.1864 N.ar    1  LIG1       -0.3504
     17 H          -3.4350    0.7978   -0.7024 H       1  LIG1        0.1660
     18 N          -1.7235   -2.9680    1.0945 N.pl3   1  LIG1       -0.3563
     19 H          -1.8195   -3.1468    2.0904 H       1  LIG1        0.1424
     20 H          -1.8961   -3.8434    0.6076 H       1  LIG1        0.1424
     21 H          -4.7098   -2.6899    1.2402 H       1  LIG1        0.0658
     22 C          -5.8634   -0.2255    0.0830 C.ar    1  LIG1        0.0843
     23 C          -6.9885   -0.8416   -0.4250 C.ar    1  LIG1        0.0523
     24 C          -8.0529    0.1020   -0.3661 C.ar    1  LIG1       -0.0135
     25 C          -7.5397    1.2679    0.1698 C.ar    1  LIG1        0.0670
     26 N          -6.2199    1.0578    0.4398 N.ar    1  LIG1       -0.3504
     27 H          -5.5951    1.7460    0.8280 H       1  LIG1        0.1660
     28 N          -7.0708   -2.1775   -0.8595 N.pl3   1  LIG1       -0.3563
     29 H          -7.6707   -2.2795   -1.6690 H       1  LIG1        0.1424
     30 H          -6.1509   -2.5593   -1.0550 H       1  LIG1        0.1424
     31 H          -9.0844   -0.0573   -0.6353 H       1  LIG1        0.0658
     32 C          -8.1927    2.5476    0.4371 C.ar    1  LIG1        0.0839
     33 C          -9.0051    3.3025   -0.3808 C.ar    1  LIG1        0.0516
     34 C          -9.3712    4.4717    0.3486 C.ar    1  LIG1       -0.0230
     35 C          -8.7687    4.3844    1.5812 C.ar    1  LIG1        0.0040
     36 N          -8.0573    3.2270    1.6297 N.ar    1  LIG1       -0.3580
     37 H          -7.6268    2.8385    2.4527 H       1  LIG1        0.1654
     38 H          -8.8062    5.0530    2.4236 H       1  LIG1        0.0807
     39 N          -9.4212    2.9602   -1.6825 N.pl3   1  LIG1       -0.3563
     40 H          -9.3924    3.7556   -2.3097 H       1  LIG1        0.1424
     41 H          -8.8589    2.2032   -2.0575 H       1  LIG1        0.1424
     42 H         -10.0046    5.2705    0.0008 H       1  LIG1        0.0651
@<TRIPOS>BOND
     1    10     8    1
     2    40    39    1
     3    41    39    1
     4    39    33    1
     5    29    28    1
     6     8     9    1
     7     8     2    1
     8    11     3    1
     9    30    28    1
    10     2     3   ar
    11     2     1   ar
    12     3     4   ar
    13    28    23    1
    14    17    16    1
    15    31    24    1
    16    23    24   ar
    17    23    22   ar
    18    33    34   ar
    19    33    32   ar
    20    24    25   ar
    21     1     7    1
    22     1     5   ar
    23     4     5   ar
    24     4    12    1
    25    16    12   ar
    26    16    15   ar
    27    42    34    1
    28     5     6    1
    29    12    13   ar
    30    22    15    1
    31    22    26   ar
    32    25    32    1
    33    25    26   ar
    34    15    14   ar
    35    34    35   ar
    36    32    36   ar
    37    26    27    1
    38    20    18    1
    39    13    14   ar
    40    13    18    1
    41    14    21    1
    42    18    19    1
    43    35    36   ar
    44    35    38    1
    45    36    37    1
