@<TRIPOS>MOLECULE
mol_data/opt/m06hf/geoms/mol2/13ha13ha13ha-13ha-.out
 42 45 0 0 0
SMALL
GASTEIGER

@<TRIPOS>ATOM
      1 C           1.2047   -0.1179   -0.6521 C.ar    1  LIG1        0.0230
      2 C           0.8695    1.0221    0.0380 C.ar    1  LIG1        0.0427
      3 C          -0.5233    0.9432    0.3357 C.ar    1  LIG1       -0.0142
      4 C          -0.9878   -0.2437   -0.1939 C.ar    1  LIG1        0.0665
      5 N           0.0683   -0.8806   -0.7766 N.ar    1  LIG1       -0.3578
      6 H          -0.0146   -1.7257   -1.3173 H       1  LIG1        0.1654
      7 H           2.1517   -0.4442   -1.0446 H       1  LIG1        0.0826
      8 N           1.7352    2.0553    0.4658 N.pl3   1  LIG1       -0.3568
      9 H           2.6417    2.0027    0.0169 H       1  LIG1        0.1424
     10 H           1.3341    2.9705    0.2982 H       1  LIG1        0.1424
     11 H          -1.1033    1.6372    0.9229 H       1  LIG1        0.0658
     12 C          -2.3343   -0.8078   -0.2066 C.ar    1  LIG1        0.0843
     13 C          -3.5388   -0.1765   -0.4559 C.ar    1  LIG1        0.0523
     14 C          -4.5578   -1.1627   -0.3757 C.ar    1  LIG1       -0.0135
     15 C          -3.9319   -2.3635   -0.0869 C.ar    1  LIG1        0.0670
     16 N          -2.5980   -2.1359    0.0129 N.ar    1  LIG1       -0.3504
     17 H          -1.9615   -2.8700    0.3118 H       1  LIG1        0.1660
     18 N          -3.7166    1.1995   -0.7108 N.pl3   1  LIG1       -0.3563
     19 H          -2.8305    1.6368   -0.9441 H       1  LIG1        0.1424
     20 H          -4.3822    1.3588   -1.4582 H       1  LIG1        0.1424
     21 H          -5.6149   -0.9944   -0.5042 H       1  LIG1        0.0658
     22 C          -4.4536   -3.7067    0.1349 C.ar    1  LIG1        0.0843
     23 C          -3.7853   -4.8600    0.4967 C.ar    1  LIG1        0.0523
     24 C          -4.7491   -5.9054    0.5903 C.ar    1  LIG1       -0.0135
     25 C          -5.9738   -5.3569    0.2755 C.ar    1  LIG1        0.0670
     26 N          -5.7733   -4.0262    0.0067 N.ar    1  LIG1       -0.3504
     27 H          -6.4860   -3.4074   -0.3461 H       1  LIG1        0.1660
     28 N          -2.3720   -4.9030    0.7417 N.pl3   1  LIG1       -0.3563
     29 H          -2.1843   -5.1384    1.7128 H       1  LIG1        0.1424
     30 H          -1.9313   -5.6133    0.1638 H       1  LIG1        0.1424
     31 H          -4.5832   -6.9282    0.8909 H       1  LIG1        0.0658
     32 C          -7.2989   -5.9660    0.1936 C.ar    1  LIG1        0.0839
     33 C          -7.6982   -7.1162   -0.4522 C.ar    1  LIG1        0.0516
     34 C          -9.1016   -7.2536   -0.2432 C.ar    1  LIG1       -0.0230
     35 C          -9.5037   -6.1826    0.5194 C.ar    1  LIG1        0.0040
     36 N          -8.4170   -5.4085    0.7780 N.ar    1  LIG1       -0.3580
     37 H          -8.3901   -4.6261    1.4111 H       1  LIG1        0.1654
     38 H         -10.4769   -5.9247    0.8994 H       1  LIG1        0.0807
     39 N          -6.8628   -8.0048   -1.1566 N.pl3   1  LIG1       -0.3563
     40 H          -7.2923   -8.3291   -2.0148 H       1  LIG1        0.1424
     41 H          -5.9638   -7.5799   -1.3591 H       1  LIG1        0.1424
     42 H          -9.7283   -8.0487   -0.6106 H       1  LIG1        0.0651
@<TRIPOS>BOND
     1    40    39    1
     2    20    18    1
     3    41    39    1
     4     6     5    1
     5    39    33    1
     6     7     1    1
     7    19    18    1
     8     5     1   ar
     9     5     4   ar
    10    18    13    1
    11     1     2   ar
    12    42    34    1
    13    21    14    1
    14    13    14   ar
    15    13    12   ar
    16    33    34   ar
    17    33    32   ar
    18    14    15   ar
    19    27    26    1
    20    34    35   ar
    21    12     4    1
    22    12    16   ar
    23     4     3   ar
    24    15    16   ar
    25    15    22    1
    26    26    22   ar
    27    26    25   ar
    28    16    17    1
    29     9     8    1
    30     2     3   ar
    31     2     8    1
    32    22    23   ar
    33    30    28    1
    34    32    25    1
    35    32    36   ar
    36    25    24   ar
    37    10     8    1
    38     3    11    1
    39    23    24   ar
    40    23    28    1
    41    35    36   ar
    42    35    38    1
    43    24    31    1
    44    28    29    1
    45    36    37    1
