@<TRIPOS>MOLECULE
mol_data/opt/m06hf/geoms/mol2/13ha13dd6ea-12hf-4ff-12fd13ei-6ii.out
 92 99 0 0 0
SMALL
GASTEIGER

@<TRIPOS>ATOM
      1 C           0.9154    0.6940    0.4794 C.ar    1  LIG1        0.0230
      2 C           0.3286    1.8330    0.9828 C.ar    1  LIG1        0.0427
      3 C          -1.0818    1.6526    0.9032 C.ar    1  LIG1       -0.0142
      4 C          -1.2969    0.4118    0.3483 C.ar    1  LIG1        0.0660
      5 N          -0.0838   -0.1714    0.1122 N.ar    1  LIG1       -0.3579
      6 H           0.0507   -1.0124   -0.4259 H       1  LIG1        0.1654
      7 H           1.9540    0.4394    0.3605 H       1  LIG1        0.0826
      8 N           0.9705    2.9495    1.5528 N.pl3   1  LIG1       -0.3568
      9 H           1.9561    2.9906    1.3260 H       1  LIG1        0.1424
     10 H           0.5229    3.8187    1.2883 H       1  LIG1        0.1424
     11 H          -1.8441    2.3378    1.2361 H       1  LIG1        0.0658
     12 C          -2.5404   -0.2782    0.0344 C.ar    1  LIG1        0.0822
     13 C          -3.7462    0.2060   -0.4343 C.ar    1  LIG1        0.0963
     14 C          -4.6139   -0.9132   -0.6033 C.ar    1  LIG1        0.0950
     15 C          -3.9104   -2.0482   -0.2340 C.ar    1  LIG1        0.0685
     16 N          -2.6716   -1.6269    0.1495 N.ar    1  LIG1       -0.3509
     17 H          -1.9561   -2.2466    0.5061 H       1  LIG1        0.1660
     18 N          -4.2519    2.6847   -0.9354 N.1     1  LIG1       -0.1908
     19 C          -4.0336    1.5785   -0.7207 C.1     1  LIG1        0.1026
     20 N          -7.0293   -0.8503   -1.5106 N.1     1  LIG1       -0.1908
     21 C          -5.9522   -0.8696   -1.1127 C.1     1  LIG1        0.1026
     22 C          -3.4544   -4.5388   -0.3577 C.ar    1  LIG1        0.1230
     23 C          -4.3383   -3.4564   -0.2114 C.ar    1  LIG1        0.0335
     24 C          -5.6938   -3.7686   -0.0390 C.ar    1  LIG1       -0.0478
     25 C          -6.1078   -5.0852   -0.0604 C.ar    1  LIG1       -0.0319
     26 C          -5.1402   -6.0849   -0.2479 C.ar    1  LIG1        0.1094
     27 N          -3.8451   -5.8111   -0.3757 N.ar    1  LIG1       -0.2346
     28 H          -6.4139   -2.9771    0.1198 H       1  LIG1        0.0626
     29 C          -2.0169   -4.3536   -0.5071 C.1     1  LIG1       -0.0491
     30 C          -0.8242   -4.2468   -0.6176 C.1     1  LIG1       -0.1124
     31 H           0.2348   -4.2017   -0.7349 H       1  LIG1        0.1232
     32 H          -7.1438   -5.3593    0.0917 H       1  LIG1        0.0640
     33 C          -5.5327   -7.4933   -0.2932 C.ar    1  LIG1        0.1781
     34 C          -6.7500   -8.0966   -0.4229 C.ar    1  LIG1        0.1153
     35 C          -6.4911   -9.5083   -0.3920 C.ar    1  LIG1        0.1846
     36 C          -5.1385   -9.6584   -0.2452 C.ar    1  LIG1        0.1825
     37 O          -4.5642   -8.4282   -0.2000 O.2     1  LIG1       -0.4475
     38 N          -8.0223   -7.5216   -0.5664 N.pl3   1  LIG1       -0.3521
     39 H          -8.1091   -6.9854   -1.4244 H       1  LIG1        0.1425
     40 H          -8.7333   -8.2459   -0.5451 H       1  LIG1        0.1425
     41 O          -7.4959  -10.3930   -0.5377 O.3     1  LIG1       -0.5020
     42 H          -7.1658  -11.2784   -0.3062 H       1  LIG1        0.2924
     43 C          -4.5870  -12.1056    0.0370 C.ar    1  LIG1        0.1285
     44 C          -3.6506  -13.1236    0.0524 C.ar    1  LIG1       -0.0052
     45 C          -4.2019  -10.7837   -0.2028 C.ar    1  LIG1        0.0658
     46 C          -2.2917  -12.8631   -0.1552 C.ar    1  LIG1        0.0658
     47 H          -3.9632  -14.1460    0.2320 H       1  LIG1        0.0662
     48 C          -2.8439  -10.5261   -0.4022 C.ar    1  LIG1       -0.0052
     49 C          -1.8928  -11.5369   -0.3815 C.ar    1  LIG1        0.1285
     50 H          -2.5401   -9.5002   -0.5779 H       1  LIG1        0.0662
     51 O          -5.9176  -12.3678    0.2766 O.3     1  LIG1       -0.5060
     52 H          -6.0436  -13.2823    0.5513 H       1  LIG1        0.2922
     53 O          -0.5721  -11.2545   -0.5912 O.3     1  LIG1       -0.5060
     54 H          -0.4781  -10.3192   -0.8019 H       1  LIG1        0.2922
     55 C          -1.3576  -13.9857   -0.1394 C.ar    1  LIG1        0.1819
     56 C          -1.5387  -15.3365   -0.1436 C.ar    1  LIG1        0.1812
     57 C          -0.2315  -15.9395   -0.1245 C.ar    1  LIG1        0.1409
     58 C           0.6609  -14.8979   -0.1035 C.ar    1  LIG1        0.1740
     59 O          -0.0190  -13.7476   -0.1050 O.2     1  LIG1       -0.4481
     60 O          -2.7181  -15.9953   -0.1658 O.3     1  LIG1       -0.5023
     61 H          -2.5678  -16.9458   -0.2557 H       1  LIG1        0.2923
     62 N          -0.0986  -18.5025   -0.2680 N.1     1  LIG1       -0.1906
     63 C          -0.0647  -17.3566   -0.1933 C.1     1  LIG1        0.1067
     64 C           2.0972  -14.7163   -0.1054 C.ar    1  LIG1        0.0998
     65 C           3.1826  -15.5547    0.1026 C.ar    1  LIG1        0.0565
     66 C           4.3596  -14.7573   -0.0058 C.ar    1  LIG1       -0.0091
     67 C           3.9408  -13.4649   -0.2709 C.ar    1  LIG1        0.0529
     68 N           2.5785  -13.4636   -0.3244 N.ar    1  LIG1       -0.3505
     69 H           1.9850  -12.6702   -0.5309 H       1  LIG1        0.1660
     70 C           3.1335  -16.9485    0.4185 C.1     1  LIG1       -0.0672
     71 C           3.0969  -18.1184    0.6913 C.1     1  LIG1       -0.1138
     72 H           3.0340  -19.1564    0.9224 H       1  LIG1        0.1232
     73 C           5.7688  -15.2549    0.1847 C.3     1  LIG1       -0.0365
     74 H           6.4399  -14.4206    0.3873 H       1  LIG1        0.0279
     75 H           6.1166  -15.7832   -0.7053 H       1  LIG1        0.0279
     76 H           5.7992  -15.9496    1.0243 H       1  LIG1        0.0279
     77 C           4.4454  -11.0413    0.2113 C.ar    1  LIG1        0.0473
     78 C           4.7269  -12.2315   -0.4859 C.ar    1  LIG1        0.0199
     79 C           5.7831  -12.2358   -1.3936 C.ar    1  LIG1       -0.0466
     80 C           6.5338  -11.0819   -1.6022 C.ar    1  LIG1       -0.0317
     81 C           6.1541   -9.9552   -0.8767 C.ar    1  LIG1        0.0308
     82 N           5.1510   -9.9335   -0.0013 N.ar    1  LIG1       -0.2593
     83 H           6.0048  -13.1440   -1.9440 H       1  LIG1        0.0628
     84 H           6.6931   -9.0222   -1.0040 H       1  LIG1        0.0832
     85 C           3.3513  -10.9485    1.2593 C.3     1  LIG1       -0.0217
     86 H           3.2885  -11.8712    1.8367 H       1  LIG1        0.0293
     87 H           2.3762  -10.7608    0.8015 H       1  LIG1        0.0293
     88 H           3.5891  -10.1107    1.9109 H       1  LIG1        0.0293
     89 C           7.6985  -11.0529   -2.5711 C.3     1  LIG1       -0.0383
     90 H           8.0830  -10.0389   -2.6750 H       1  LIG1        0.0278
     91 H           7.3847  -11.4094   -3.5528 H       1  LIG1        0.0278
     92 H           8.5043  -11.6951   -2.2128 H       1  LIG1        0.0278
@<TRIPOS>BOND
     1    91    89    1
     2    90    89    1
     3    89    92    1
     4    89    80    1
     5    83    79    1
     6    80    79   ar
     7    80    81   ar
     8    20    21    3
     9    39    38    1
    10    79    78   ar
    11    21    14    1
    12    84    81    1
    13    18    19    3
    14    81    82   ar
    15    54    53    1
    16    31    30    1
    17    19    13    1
    18    75    73    1
    19    30    29    3
    20    14    13   ar
    21    14    15   ar
    22    53    49    1
    23    50    48    1
    24    38    40    1
    25    38    34    1
    26    41    35    1
    27    41    42    1
    28    69    68    1
    29    29    22    1
    30    78    67    1
    31    78    77   ar
    32    13    12   ar
    33     6     5    1
    34    34    35   ar
    35    34    33   ar
    36    48    49   ar
    37    48    45   ar
    38    35    36   ar
    39    49    46   ar
    40    27    22   ar
    41    27    26   ar
    42    22    23   ar
    43    68    67   ar
    44    68    64   ar
    45    33    26    1
    46    33    37   ar
    47    67    66   ar
    48    62    63    3
    49    61    60    1
    50    26    25   ar
    51    36    45    1
    52    36    37   ar
    53    15    23    1
    54    15    16   ar
    55    23    24   ar
    56    45    43   ar
    57    63    57    1
    58    60    56    1
    59    46    55    1
    60    46    44   ar
    61    56    55   ar
    62    56    57   ar
    63    55    59   ar
    64    57    58   ar
    65    64    58    1
    66    64    65   ar
    67    59    58   ar
    68    25    24   ar
    69    25    32    1
    70    24    28    1
    71    66    65   ar
    72    66    73    1
    73    82    77   ar
    74    12    16   ar
    75    12     4    1
    76    43    44   ar
    77    43    51    1
    78    44    47    1
    79    65    70    1
    80     5     4   ar
    81     5     1   ar
    82    16    17    1
    83    73    74    1
    84    73    76    1
    85    77    85    1
    86    51    52    1
    87     4     3   ar
    88     7     1    1
    89    70    71    3
    90     1     2   ar
    91    71    72    1
    92    87    85    1
    93     3     2   ar
    94     3    11    1
    95     2     8    1
    96    85    86    1
    97    85    88    1
    98    10     8    1
    99     9     8    1
