@<TRIPOS>MOLECULE
mol_data/opt/m06hf/geoms/mol2/13ha12fl13af13dd-.out
 43 46 0 0 0
SMALL
GASTEIGER

@<TRIPOS>ATOM
      1 C           1.1319    0.3092    0.9305 C.ar    1  LIG1        0.0231
      2 C           0.7309    1.3762    0.1591 C.ar    1  LIG1        0.0428
      3 C          -0.6001    1.1052   -0.2721 C.ar    1  LIG1       -0.0126
      4 C          -0.9571   -0.1180    0.2627 C.ar    1  LIG1        0.0877
      5 N           0.0918   -0.5814    0.9945 N.ar    1  LIG1       -0.3565
      6 H           0.0764   -1.4344    1.5294 H       1  LIG1        0.1655
      7 H           2.0658    0.1247    1.4318 H       1  LIG1        0.0826
      8 N           1.4527    2.5541   -0.1285 N.pl3   1  LIG1       -0.3568
      9 H           2.4134    2.5054    0.1875 H       1  LIG1        0.1424
     10 H           1.4336    2.7826   -1.1156 H       1  LIG1        0.1424
     11 H          -1.2024    1.7080   -0.9336 H       1  LIG1        0.0658
     12 C          -2.2356   -0.8059    0.1996 C.ar    1  LIG1        0.1969
     13 C          -3.4916   -0.2950    0.2633 C.ar    1  LIG1        0.2076
     14 C          -4.3939   -1.4171    0.1907 C.ar    1  LIG1        0.2098
     15 C          -3.6057   -2.5220    0.1029 C.ar    1  LIG1        0.1971
     16 O          -2.2942   -2.1669    0.1173 O.2     1  LIG1       -0.4443
     17 O          -3.8692    0.9986    0.3973 O.3     1  LIG1       -0.5008
     18 H          -3.0973    1.5261    0.6474 H       1  LIG1        0.2924
     19 O          -5.7432   -1.4102    0.2497 O.3     1  LIG1       -0.4884
     20 C          -6.3664   -0.5402   -0.7015 C.3     1  LIG1        0.0791
     21 H          -7.4351   -0.6256   -0.5268 H       1  LIG1        0.0660
     22 H          -6.0348    0.4857   -0.5426 H       1  LIG1        0.0660
     23 H          -6.1207   -0.8664   -1.7133 H       1  LIG1        0.0660
     24 C          -3.9228   -3.9343    0.0180 C.ar    1  LIG1        0.0900
     25 C          -5.1275   -4.5976    0.1383 C.ar    1  LIG1        0.0090
     26 C          -4.8411   -5.9781    0.0028 C.ar    1  LIG1        0.1442
     27 C          -3.4768   -6.1126   -0.2002 C.ar    1  LIG1        0.1067
     28 N          -2.9361   -4.8491   -0.1931 N.ar    1  LIG1       -0.3476
     29 H          -1.9542   -4.6194   -0.1813 H       1  LIG1        0.1661
     30 H          -6.0892   -4.1446    0.3036 H       1  LIG1        0.0677
     31 O          -5.7641   -6.9777   -0.0175 O.3     1  LIG1       -0.5046
     32 H          -5.6607   -7.5574    0.7507 H       1  LIG1        0.2922
     33 C          -2.6896   -7.3085   -0.4410 C.ar    1  LIG1        0.0854
     34 C          -2.7922   -8.5604    0.1312 C.ar    1  LIG1        0.0958
     35 C          -1.8021   -9.3954   -0.4763 C.ar    1  LIG1        0.0870
     36 C          -1.1276   -8.6205   -1.3857 C.ar    1  LIG1        0.0210
     37 N          -1.6741   -7.3732   -1.3522 N.ar    1  LIG1       -0.3572
     38 H          -1.4358   -6.6171   -1.9768 H       1  LIG1        0.1655
     39 H          -0.3145   -8.8787   -2.0410 H       1  LIG1        0.0820
     40 N          -4.5105   -9.0705    1.9821 N.1     1  LIG1       -0.1908
     41 C          -3.7272   -8.8803    1.1628 C.1     1  LIG1        0.1026
     42 N          -1.3204  -11.8769    0.0428 N.1     1  LIG1       -0.1908
     43 C          -1.5377  -10.7743   -0.1870 C.1     1  LIG1        0.1020
@<TRIPOS>BOND
     1    39    36    1
     2    38    37    1
     3    23    20    1
     4    36    37   ar
     5    36    35   ar
     6    37    33   ar
     7    10     8    1
     8    11     3    1
     9    20    22    1
    10    20    21    1
    11    20    19    1
    12    35    43    1
    13    35    34   ar
    14    33    27    1
    15    33    34   ar
    16     3     2   ar
    17     3     4   ar
    18    27    28   ar
    19    27    26   ar
    20    28    29    1
    21    28    24   ar
    22    43    42    3
    23     8     2    1
    24     8     9    1
    25    31    26    1
    26    31    32    1
    27    26    25   ar
    28    24    15    1
    29    24    25   ar
    30    15    16   ar
    31    15    14   ar
    32    16    12   ar
    33    34    41    1
    34    25    30    1
    35     2     1   ar
    36    14    19    1
    37    14    13   ar
    38    12     4    1
    39    12    13   ar
    40     4     5   ar
    41    13    17    1
    42    17    18    1
    43     1     5   ar
    44     1     7    1
    45     5     6    1
    46    41    40    3
