@<TRIPOS>MOLECULE
mol_data/opt/m06hf/geoms/mol2/13ha13ha13ha13ha-.out
 42 45 0 0 0
SMALL
GASTEIGER

@<TRIPOS>ATOM
      1 C           0.7117    0.5030   -1.5569 C.ar    1  LIG1        0.0230
      2 C           0.8393    1.0982   -0.3247 C.ar    1  LIG1        0.0427
      3 C          -0.2811    0.6903    0.4596 C.ar    1  LIG1       -0.0142
      4 C          -1.0556   -0.1350   -0.3291 C.ar    1  LIG1        0.0665
      5 N          -0.4384   -0.2492   -1.5417 N.ar    1  LIG1       -0.3578
      6 H          -0.8500   -0.7014   -2.3416 H       1  LIG1        0.1654
      7 H           1.3477    0.5482   -2.4235 H       1  LIG1        0.0826
      8 N           1.9127    1.8927    0.1356 N.pl3   1  LIG1       -0.3568
      9 H           2.4538    2.2865   -0.6246 H       1  LIG1        0.1424
     10 H           1.5935    2.6386    0.7420 H       1  LIG1        0.1424
     11 H          -0.4734    0.9256    1.4940 H       1  LIG1        0.0658
     12 C          -2.3238   -0.8013   -0.0396 C.ar    1  LIG1        0.0843
     13 C          -3.4814   -0.2816    0.5002 C.ar    1  LIG1        0.0523
     14 C          -4.4348   -1.3380    0.5599 C.ar    1  LIG1       -0.0135
     15 C          -3.8269   -2.4687    0.0463 C.ar    1  LIG1        0.0670
     16 N          -2.5549   -2.1334   -0.3095 N.ar    1  LIG1       -0.3504
     17 H          -1.8755   -2.7714   -0.6915 H       1  LIG1        0.1660
     18 N          -3.6596    1.0378    0.9597 N.pl3   1  LIG1       -0.3563
     19 H          -2.9183    1.6442    0.6241 H       1  LIG1        0.1424
     20 H          -4.5630    1.4126    0.6954 H       1  LIG1        0.1424
     21 H          -5.4267   -1.2992    0.9803 H       1  LIG1        0.0658
     22 C          -4.3503   -3.8185   -0.1371 C.ar    1  LIG1        0.0843
     23 C          -5.5827   -4.2153   -0.6219 C.ar    1  LIG1        0.0523
     24 C          -5.5933   -5.6359   -0.6393 C.ar    1  LIG1       -0.0135
     25 C          -4.3599   -6.0517   -0.1678 C.ar    1  LIG1        0.0670
     26 N          -3.6241   -4.9519    0.1306 N.ar    1  LIG1       -0.3504
     27 H          -2.7148   -5.0368    0.5773 H       1  LIG1        0.1660
     28 N          -6.6404   -3.3616   -0.9963 N.pl3   1  LIG1       -0.3563
     29 H          -6.3081   -2.4111   -1.1285 H       1  LIG1        0.1424
     30 H          -7.1027   -3.6825   -1.8388 H       1  LIG1        0.1424
     31 H          -6.4154   -6.2603   -0.9499 H       1  LIG1        0.0658
     32 C          -3.7970   -7.3783    0.0605 C.ar    1  LIG1        0.0839
     33 C          -2.5812   -7.7326    0.6098 C.ar    1  LIG1        0.0516
     34 C          -2.5098   -9.1567    0.6131 C.ar    1  LIG1       -0.0230
     35 C          -3.6819   -9.6153    0.0663 C.ar    1  LIG1        0.0040
     36 N          -4.4479   -8.5327   -0.2614 N.ar    1  LIG1       -0.3580
     37 H          -5.3622   -8.5698   -0.6808 H       1  LIG1        0.1654
     38 H          -4.0277  -10.6180   -0.1143 H       1  LIG1        0.0807
     39 N          -1.6226   -6.7725    1.0783 N.pl3   1  LIG1       -0.3563
     40 H          -1.4859   -6.8638    2.0817 H       1  LIG1        0.1424
     41 H          -0.7215   -6.9181    0.6318 H       1  LIG1        0.1424
     42 H          -1.6945   -9.7606    0.9766 H       1  LIG1        0.0651
@<TRIPOS>BOND
     1     7     1    1
     2     6     5    1
     3    30    28    1
     4     1     5   ar
     5     1     2   ar
     6     5     4   ar
     7    29    28    1
     8    28    23    1
     9    31    24    1
    10    17    16    1
    11    37    36    1
    12    24    23   ar
    13    24    25   ar
    14     9     8    1
    15    23    22   ar
    16     4    12    1
    17     4     3   ar
    18     2     8    1
    19     2     3   ar
    20    16    12   ar
    21    16    15   ar
    22    36    32   ar
    23    36    35   ar
    24    25    32    1
    25    25    26   ar
    26    22    15    1
    27    22    26   ar
    28    38    35    1
    29    12    13   ar
    30    15    14   ar
    31    32    33   ar
    32    35    34   ar
    33    26    27    1
    34     8    10    1
    35     3    11    1
    36    13    14   ar
    37    13    18    1
    38    14    21    1
    39    33    34   ar
    40    33    39    1
    41    34    42    1
    42    19    18    1
    43    41    39    1
    44    20    18    1
    45    39    40    1
