@<TRIPOS>MOLECULE
mol_data/opt/m06hf/geoms/mol2/13ha13ha13ha.out
 32 34 0 0 0
SMALL
GASTEIGER

@<TRIPOS>ATOM
      1 C           0.9510    0.0470   -1.1386 C.ar    1  LIG1        0.0230
      2 C           0.8546    0.9366   -0.0951 C.ar    1  LIG1        0.0427
      3 C          -0.4147    0.7276    0.5220 C.ar    1  LIG1       -0.0142
      4 C          -1.0493   -0.2793   -0.1751 C.ar    1  LIG1        0.0665
      5 N          -0.2085   -0.6898   -1.1694 N.ar    1  LIG1       -0.3578
      6 H          -0.4683   -1.3379   -1.8944 H       1  LIG1        0.1654
      7 H           1.7489   -0.1224   -1.8402 H       1  LIG1        0.0826
      8 N           1.8452    1.8351    0.3598 N.pl3   1  LIG1       -0.3568
      9 H           2.5464    2.0234   -0.3463 H       1  LIG1        0.1424
     10 H           1.4408    2.7101    0.6712 H       1  LIG1        0.1424
     11 H          -0.7990    1.2147    1.4037 H       1  LIG1        0.0658
     12 C          -2.3768   -0.8623    0.0107 C.ar    1  LIG1        0.0843
     13 C          -3.5950   -0.2304    0.1510 C.ar    1  LIG1        0.0523
     14 C          -4.5857   -1.2442    0.2899 C.ar    1  LIG1       -0.0135
     15 C          -3.9385   -2.4635    0.2226 C.ar    1  LIG1        0.0670
     16 N          -2.6070   -2.2202    0.0583 N.ar    1  LIG1       -0.3504
     17 H          -1.8962   -2.9292   -0.0247 H       1  LIG1        0.1660
     18 N          -3.8005    1.1609    0.2062 N.pl3   1  LIG1       -0.3563
     19 H          -2.9871    1.6652   -0.1306 H       1  LIG1        0.1424
     20 H          -4.6277    1.4468   -0.3031 H       1  LIG1        0.1424
     21 H          -5.6402   -1.1085    0.4683 H       1  LIG1        0.0658
     22 C          -4.4762   -3.8209    0.2926 C.ar    1  LIG1        0.0839
     23 C          -5.5399   -4.3752   -0.3855 C.ar    1  LIG1        0.0516
     24 C          -5.6404   -5.7370    0.0242 C.ar    1  LIG1       -0.0230
     25 C          -4.6358   -5.9601    0.9352 C.ar    1  LIG1        0.0040
     26 N          -3.9358   -4.8053    1.0930 N.ar    1  LIG1       -0.3580
     27 H          -3.2288   -4.6386    1.7904 H       1  LIG1        0.1654
     28 H          -4.3786   -6.8488    1.4848 H       1  LIG1        0.0807
     29 N          -6.3882   -3.7069   -1.2907 N.pl3   1  LIG1       -0.3563
     30 H          -5.9971   -2.8114   -1.5641 H       1  LIG1        0.1424
     31 H          -6.5799   -4.2662   -2.1136 H       1  LIG1        0.1424
     32 H          -6.3687   -6.4545   -0.3147 H       1  LIG1        0.0651
@<TRIPOS>BOND
     1    31    29    1
     2     6     5    1
     3     7     1    1
     4    30    29    1
     5    29    23    1
     6     5     1   ar
     7     5     4   ar
     8     1     2   ar
     9    23    24   ar
    10    23    22   ar
    11     9     8    1
    12    32    24    1
    13    20    18    1
    14     4    12    1
    15     4     3   ar
    16    19    18    1
    17     2     8    1
    18     2     3   ar
    19    17    16    1
    20    12    16   ar
    21    12    13   ar
    22    24    25   ar
    23    16    15   ar
    24    13    18    1
    25    13    14   ar
    26    15    14   ar
    27    15    22    1
    28    14    21    1
    29    22    26   ar
    30     8    10    1
    31     3    11    1
    32    25    26   ar
    33    25    28    1
    34    26    27    1
