@<TRIPOS>MOLECULE
mol_data/opt/m06hf/geoms/mol2/13ha13ha-13ha13ha-.out
 42 45 0 0 0
SMALL
GASTEIGER

@<TRIPOS>ATOM
      1 C           1.2814   -0.2828   -0.0557 C.ar    1  LIG1        0.0230
      2 C           0.9039    1.0425   -0.0627 C.ar    1  LIG1        0.0427
      3 C          -0.5179    1.0773   -0.0652 C.ar    1  LIG1       -0.0142
      4 C          -0.9490   -0.2355   -0.0635 C.ar    1  LIG1        0.0665
      5 N           0.1449   -1.0413   -0.0459 N.ar    1  LIG1       -0.3578
      6 H           0.0425   -2.0513   -0.0366 H       1  LIG1        0.1654
      7 H           2.2622   -0.7260   -0.0501 H       1  LIG1        0.0826
      8 N           1.7447    2.1868   -0.0231 N.pl3   1  LIG1       -0.3568
      9 H           2.7234    1.9237   -0.0094 H       1  LIG1        0.1424
     10 H           1.5837    2.7847   -0.8270 H       1  LIG1        0.1424
     11 H          -1.1315    1.9631   -0.0531 H       1  LIG1        0.0658
     12 C          -2.2847   -0.8228   -0.0648 C.ar    1  LIG1        0.0843
     13 C          -2.6596   -2.1552   -0.0679 C.ar    1  LIG1        0.0523
     14 C          -4.0810   -2.2033   -0.0685 C.ar    1  LIG1       -0.0135
     15 C          -4.5191   -0.8938   -0.0661 C.ar    1  LIG1        0.0670
     16 N          -3.4233   -0.0816   -0.0644 N.ar    1  LIG1       -0.3504
     17 H          -3.5255    0.9305   -0.0560 H       1  LIG1        0.1660
     18 N          -1.7175   -3.2390   -0.0669 N.pl3   1  LIG1       -0.3563
     19 H          -1.8545   -3.8309    0.7480 H       1  LIG1        0.1424
     20 H          -1.8362   -3.8176   -0.8941 H       1  LIG1        0.1424
     21 H          -4.6954   -3.0897   -0.0685 H       1  LIG1        0.0658
     22 C          -5.8524   -0.3041   -0.0617 C.ar    1  LIG1        0.0843
     23 C          -6.2169    1.0313   -0.0383 C.ar    1  LIG1        0.0523
     24 C          -7.6377    1.0888   -0.0426 C.ar    1  LIG1       -0.0135
     25 C          -8.0856   -0.2173   -0.0683 C.ar    1  LIG1        0.0670
     26 N          -6.9964   -1.0374   -0.0793 N.ar    1  LIG1       -0.3504
     27 H          -7.1103   -2.0479   -0.1059 H       1  LIG1        0.1660
     28 N          -5.2675    2.1074   -0.0145 N.pl3   1  LIG1       -0.3563
     29 H          -5.4002    2.7222   -0.8127 H       1  LIG1        0.1424
     30 H          -5.3745    2.6638    0.8295 H       1  LIG1        0.1424
     31 H          -8.2394    1.9837   -0.0305 H       1  LIG1        0.0658
     32 C          -9.4223   -0.8018   -0.0831 C.ar    1  LIG1        0.0839
     33 C          -9.7981   -2.1289   -0.1382 C.ar    1  LIG1        0.0516
     34 C         -11.2233   -2.1733   -0.1259 C.ar    1  LIG1       -0.0230
     35 C         -11.6617   -0.8749   -0.0619 C.ar    1  LIG1        0.0040
     36 N         -10.5656   -0.0592   -0.0378 N.ar    1  LIG1       -0.3580
     37 H         -10.5876    0.9459    0.0164 H       1  LIG1        0.1654
     38 H         -12.6581   -0.4707   -0.0317 H       1  LIG1        0.0807
     39 N          -8.8562   -3.2108   -0.1959 N.pl3   1  LIG1       -0.3563
     40 H          -9.0035   -3.8538    0.5773 H       1  LIG1        0.1424
     41 H          -8.9647   -3.7345   -1.0602 H       1  LIG1        0.1424
     42 H         -11.8410   -3.0557   -0.1593 H       1  LIG1        0.0651
@<TRIPOS>BOND
     1    41    39    1
     2    20    18    1
     3    10     8    1
     4    29    28    1
     5    39    33    1
     6    39    40    1
     7    42    34    1
     8    33    34   ar
     9    33    32   ar
    10    34    35   ar
    11    27    26    1
    12    32    25    1
    13    32    36   ar
    14    26    25   ar
    15    26    22   ar
    16    21    14    1
    17    14    13   ar
    18    14    15   ar
    19    25    24   ar
    20    13    18    1
    21    13    12   ar
    22    18    19    1
    23    15    16   ar
    24    15    22    1
    25     3     4   ar
    26     3     2   ar
    27     3    11    1
    28    12    16   ar
    29    12     4    1
    30    16    17    1
    31     4     5   ar
    32     2     1   ar
    33     2     8    1
    34    35    36   ar
    35    35    38    1
    36    22    23   ar
    37     1     7    1
    38     1     5   ar
    39     5     6    1
    40    24    23   ar
    41    24    31    1
    42    23    28    1
    43    36    37    1
    44     8     9    1
    45    28    30    1
