@<TRIPOS>MOLECULE
mol_data/opt/m06hf/geoms/mol2/13ha13ha-4ha13ha.out
 44 47 0 0 0
SMALL
GASTEIGER

@<TRIPOS>ATOM
      1 C           1.3489   -0.4620    0.1882 C.ar    1  LIG1        0.0230
      2 C           1.0039    0.7875    0.6568 C.ar    1  LIG1        0.0427
      3 C          -0.4144    0.8809    0.6064 C.ar    1  LIG1       -0.0142
      4 C          -0.8754   -0.3207    0.1032 C.ar    1  LIG1        0.0665
      5 N           0.1969   -1.1223   -0.1313 N.ar    1  LIG1       -0.3578
      6 H           0.0729   -2.0597   -0.5012 H       1  LIG1        0.1654
      7 H           2.3164   -0.9184    0.0702 H       1  LIG1        0.0826
      8 N           1.8659    1.7991    1.1554 N.pl3   1  LIG1       -0.3568
      9 H           2.8328    1.4951    1.1565 H       1  LIG1        0.1424
     10 H           1.7932    2.6497    0.6074 H       1  LIG1        0.1424
     11 H          -1.0032    1.7253    0.9260 H       1  LIG1        0.0658
     12 C          -2.2206   -0.8114   -0.1801 C.ar    1  LIG1        0.0843
     13 C          -2.6240   -2.0422   -0.6653 C.ar    1  LIG1        0.0522
     14 C          -4.0403   -2.0133   -0.7830 C.ar    1  LIG1       -0.0150
     15 C          -4.4592   -0.7664   -0.3644 C.ar    1  LIG1        0.0505
     16 N          -3.3400   -0.0573   -0.0098 N.ar    1  LIG1       -0.3515
     17 H          -3.3760    0.8891    0.3455 H       1  LIG1        0.1660
     18 N          -1.7085   -3.1024   -0.9789 N.pl3   1  LIG1       -0.3563
     19 H          -1.8810   -3.9107   -0.3871 H       1  LIG1        0.1424
     20 H          -1.8174   -3.3974   -1.9452 H       1  LIG1        0.1424
     21 H          -4.6755   -2.8031   -1.1510 H       1  LIG1        0.0657
     22 C          -6.0880    1.1537   -0.4417 C.ar    1  LIG1        0.0344
     23 C          -7.3803    1.6423   -0.2602 C.ar    1  LIG1       -0.0312
     24 C          -5.8199   -0.2118   -0.2253 C.ar    1  LIG1        0.0190
     25 C          -8.4278    0.7919    0.1046 C.ar    1  LIG1        0.0019
     26 H          -7.5866    2.6984   -0.3982 H       1  LIG1        0.0643
     27 C          -6.8756   -1.0511    0.1351 C.ar    1  LIG1       -0.0502
     28 C          -8.1689   -0.5706    0.2851 C.ar    1  LIG1       -0.0518
     29 H          -6.6622   -2.0974    0.3131 H       1  LIG1        0.0625
     30 N          -5.0367    2.0289   -0.7883 N.pl3   1  LIG1       -0.3574
     31 H          -4.4359    1.6512   -1.5153 H       1  LIG1        0.1423
     32 H          -5.3646    2.9531   -1.0393 H       1  LIG1        0.1423
     33 H          -8.9743   -1.2520    0.5278 H       1  LIG1        0.0624
     34 C          -9.7763    1.3466    0.2921 C.ar    1  LIG1        0.0675
     35 C         -10.4099    2.3963   -0.3442 C.ar    1  LIG1        0.0502
     36 C         -11.7126    2.5140    0.2169 C.ar    1  LIG1       -0.0231
     37 C         -11.8273    1.5368    1.1784 C.ar    1  LIG1        0.0040
     38 N         -10.6681    0.8306    1.2041 N.ar    1  LIG1       -0.3592
     39 H         -10.4326    0.1170    1.8741 H       1  LIG1        0.1654
     40 H         -12.6432    1.3005    1.8390 H       1  LIG1        0.0807
     41 N          -9.8461    3.2036   -1.3612 N.pl3   1  LIG1       -0.3563
     42 H          -9.3708    2.6412   -2.0609 H       1  LIG1        0.1424
     43 H         -10.5541    3.7687   -1.8141 H       1  LIG1        0.1424
     44 H         -12.4693    3.2292   -0.0603 H       1  LIG1        0.0651
@<TRIPOS>BOND
     1    42    41    1
     2    20    18    1
     3    43    41    1
     4    31    30    1
     5    41    35    1
     6    21    14    1
     7    32    30    1
     8    18    13    1
     9    18    19    1
    10    30    22    1
    11    14    13   ar
    12    14    15   ar
    13    13    12   ar
    14     6     5    1
    15    22    23   ar
    16    22    24   ar
    17    26    23    1
    18    15    24    1
    19    15    16   ar
    20    35    36   ar
    21    35    34   ar
    22    23    25   ar
    23    24    27   ar
    24    12    16   ar
    25    12     4    1
    26     5     4   ar
    27     5     1   ar
    28    44    36    1
    29    16    17    1
    30     7     1    1
    31     4     3   ar
    32    25    28   ar
    33    25    34    1
    34    27    28   ar
    35    27    29    1
    36     1     2   ar
    37    36    37   ar
    38    28    33    1
    39    34    38   ar
    40     3     2   ar
    41     3    11    1
    42    10     8    1
    43     2     8    1
    44     8     9    1
    45    37    38   ar
    46    37    40    1
    47    38    39    1
