@<TRIPOS>MOLECULE
mol_data/opt/m06hf/geoms/mol2/13ha13ha13ha13ha.out
 42 45 0 0 0
SMALL
GASTEIGER

@<TRIPOS>ATOM
      1 C           0.5760    0.4835   -1.7758 C.ar    1  LIG1        0.0230
      2 C           0.8213    1.0690   -0.5568 C.ar    1  LIG1        0.0427
      3 C          -0.2258    0.6643    0.3242 C.ar    1  LIG1       -0.0142
      4 C          -1.0756   -0.1498   -0.3952 C.ar    1  LIG1        0.0665
      5 N          -0.5733   -0.2606   -1.6602 N.ar    1  LIG1       -0.3578
      6 H          -1.0584   -0.7052   -2.4222 H       1  LIG1        0.1654
      7 H           1.1295    0.5309   -2.6972 H       1  LIG1        0.0826
      8 N           1.9384    1.8517   -0.1914 N.pl3   1  LIG1       -0.3568
      9 H           2.4257    2.2276   -0.9957 H       1  LIG1        0.1424
     10 H           1.6805    2.6086    0.4305 H       1  LIG1        0.1424
     11 H          -0.3215    0.8955    1.3729 H       1  LIG1        0.0658
     12 C          -2.3167   -0.8103    0.0063 C.ar    1  LIG1        0.0843
     13 C          -3.4251   -0.2812    0.6341 C.ar    1  LIG1        0.0523
     14 C          -4.3719   -1.3346    0.7831 C.ar    1  LIG1       -0.0135
     15 C          -3.8108   -2.4724    0.2355 C.ar    1  LIG1        0.0670
     16 N          -2.5699   -2.1445   -0.2264 N.ar    1  LIG1       -0.3504
     17 H          -1.9311   -2.7811   -0.6750 H       1  LIG1        0.1660
     18 N          -3.5620    1.0428    1.0925 N.pl3   1  LIG1       -0.3563
     19 H          -2.8462    1.6433    0.6967 H       1  LIG1        0.1424
     20 H          -4.4820    1.4201    0.8981 H       1  LIG1        0.1424
     21 H          -5.3308   -1.2877    1.2734 H       1  LIG1        0.0658
     22 C          -4.3558   -3.8227    0.1104 C.ar    1  LIG1        0.0843
     23 C          -5.5807   -4.2249   -0.3805 C.ar    1  LIG1        0.0523
     24 C          -5.6208   -5.6463   -0.3086 C.ar    1  LIG1       -0.0135
     25 C          -4.4150   -6.0658    0.2195 C.ar    1  LIG1        0.0670
     26 N          -3.6611   -4.9572    0.4706 N.ar    1  LIG1       -0.3504
     27 H          -2.7345   -4.9680    0.8653 H       1  LIG1        0.1660
     28 N          -6.6166   -3.3762   -0.8129 N.pl3   1  LIG1       -0.3563
     29 H          -6.2786   -2.4323   -0.9709 H       1  LIG1        0.1424
     30 H          -7.0779   -3.7275   -1.6431 H       1  LIG1        0.1424
     31 H          -6.4456   -6.2916   -0.5634 H       1  LIG1        0.0658
     32 C          -3.9260   -7.4150    0.4959 C.ar    1  LIG1        0.0839
     33 C          -3.9268   -8.5285   -0.3160 C.ar    1  LIG1        0.0516
     34 C          -3.3211   -9.5891    0.4192 C.ar    1  LIG1       -0.0230
     35 C          -2.9764   -9.0823    1.6498 C.ar    1  LIG1        0.0040
     36 N          -3.3390   -7.7729    1.6913 N.ar    1  LIG1       -0.3580
     37 H          -3.3297   -7.1883    2.5109 H       1  LIG1        0.1654
     38 H          -2.5134   -9.5615    2.4951 H       1  LIG1        0.0807
     39 N          -4.4609   -8.6075   -1.6175 N.pl3   1  LIG1       -0.3563
     40 H          -4.6394   -7.6829   -1.9956 H       1  LIG1        0.1424
     41 H          -3.8570   -9.1270   -2.2437 H       1  LIG1        0.1424
     42 H          -3.1688  -10.5990    0.0773 H       1  LIG1        0.0651
@<TRIPOS>BOND
     1     7     1    1
     2     6     5    1
     3    41    39    1
     4    40    39    1
     5     1     5   ar
     6     1     2   ar
     7     5     4   ar
     8    30    28    1
     9    39    33    1
    10     9     8    1
    11    29    28    1
    12    28    23    1
    13    17    16    1
    14    31    24    1
    15     2     8    1
    16     2     3   ar
    17     4    12    1
    18     4     3   ar
    19    23    24   ar
    20    23    22   ar
    21    33    34   ar
    22    33    32   ar
    23    24    25   ar
    24    16    12   ar
    25    16    15   ar
    26     8    10    1
    27    12    13   ar
    28    42    34    1
    29    22    15    1
    30    22    26   ar
    31    25    26   ar
    32    25    32    1
    33    15    14   ar
    34     3    11    1
    35    34    35   ar
    36    26    27    1
    37    32    36   ar
    38    13    14   ar
    39    13    18    1
    40    19    18    1
    41    14    21    1
    42    20    18    1
    43    35    36   ar
    44    35    38    1
    45    36    37    1
