@<TRIPOS>MOLECULE
mol_data/opt/m06hf/geoms/mol2/13ha13ha13ha-13ha.out
 42 45 0 0 0
SMALL
GASTEIGER

@<TRIPOS>ATOM
      1 C           1.1645   -0.0034   -0.7716 C.ar    1  LIG1        0.0230
      2 C           0.8835    1.0227    0.0974 C.ar    1  LIG1        0.0427
      3 C          -0.4792    0.8802    0.4958 C.ar    1  LIG1       -0.0142
      4 C          -0.9811   -0.2295   -0.1536 C.ar    1  LIG1        0.0665
      5 N           0.0243   -0.7599   -0.9073 N.ar    1  LIG1       -0.3578
      6 H          -0.1007   -1.5221   -1.5526 H       1  LIG1        0.1654
      7 H           2.0768   -0.2563   -1.2831 H       1  LIG1        0.0826
      8 N           1.7802    1.9968    0.5934 N.pl3   1  LIG1       -0.3568
      9 H           2.6173    2.0687    0.0277 H       1  LIG1        0.1424
     10 H           1.3427    2.9081    0.6577 H       1  LIG1        0.1424
     11 H          -1.0121    1.4759    1.2196 H       1  LIG1        0.0658
     12 C          -2.3209   -0.8085   -0.1312 C.ar    1  LIG1        0.0843
     13 C          -3.5452   -0.1684   -0.1871 C.ar    1  LIG1        0.0523
     14 C          -4.5504   -1.1718   -0.1590 C.ar    1  LIG1       -0.0135
     15 C          -3.8974   -2.3903   -0.0919 C.ar    1  LIG1        0.0670
     16 N          -2.5604   -2.1588   -0.0761 N.ar    1  LIG1       -0.3504
     17 H          -1.8984   -2.9176    0.0612 H       1  LIG1        0.1660
     18 N          -3.7461    1.2270   -0.2279 N.pl3   1  LIG1       -0.3563
     19 H          -2.8945    1.7041   -0.5072 H       1  LIG1        0.1424
     20 H          -4.5019    1.4794   -0.8539 H       1  LIG1        0.1424
     21 H          -5.6161   -1.0111   -0.1732 H       1  LIG1        0.0658
     22 C          -4.3981   -3.7573   -0.0094 C.ar    1  LIG1        0.0843
     23 C          -3.6966   -4.9390    0.1552 C.ar    1  LIG1        0.0523
     24 C          -4.6428   -6.0000    0.1849 C.ar    1  LIG1       -0.0135
     25 C          -5.8886   -5.4220    0.0372 C.ar    1  LIG1        0.0670
     26 N          -5.7176   -4.0743   -0.0776 N.ar    1  LIG1       -0.3504
     27 H          -6.5182   -3.4593   -0.2037 H       1  LIG1        0.1660
     28 N          -2.2678   -4.9961    0.2785 N.pl3   1  LIG1       -0.3563
     29 H          -1.9995   -5.3247    1.2023 H       1  LIG1        0.1424
     30 H          -1.8728   -5.6357   -0.4055 H       1  LIG1        0.1424
     31 H          -4.4210   -7.0490    0.3027 H       1  LIG1        0.0658
     32 C          -7.2364   -5.9793   -0.0123 C.ar    1  LIG1        0.0839
     33 C          -8.4458   -5.3333   -0.1716 C.ar    1  LIG1        0.0516
     34 C          -9.4696   -6.3257   -0.1497 C.ar    1  LIG1       -0.0230
     35 C          -8.8475   -7.5364    0.0228 C.ar    1  LIG1        0.0040
     36 N          -7.5016   -7.3125    0.1033 N.ar    1  LIG1       -0.3580
     37 H          -6.7998   -8.0220    0.2364 H       1  LIG1        0.1654
     38 H          -9.2516   -8.5307    0.0938 H       1  LIG1        0.0807
     39 N          -8.5622   -3.9109   -0.3240 N.pl3   1  LIG1       -0.3563
     40 H          -9.0086   -3.6793   -1.2070 H       1  LIG1        0.1424
     41 H          -9.1262   -3.5153    0.4234 H       1  LIG1        0.1424
     42 H         -10.5299   -6.1602   -0.2484 H       1  LIG1        0.0651
@<TRIPOS>BOND
     1     6     5    1
     2     7     1    1
     3    40    39    1
     4     5     1   ar
     5     5     4   ar
     6    20    18    1
     7     1     2   ar
     8    19    18    1
     9    30    28    1
    10    39    33    1
    11    39    41    1
    12    42    34    1
    13    18    13    1
    14    27    26    1
    15    13    14   ar
    16    13    12   ar
    17    21    14    1
    18    33    34   ar
    19    33    32   ar
    20    14    15   ar
    21     4    12    1
    22     4     3   ar
    23    34    35   ar
    24    12    16   ar
    25    15    16   ar
    26    15    22    1
    27    26    22   ar
    28    26    25   ar
    29    16    17    1
    30    32    25    1
    31    32    36   ar
    32    22    23   ar
    33    35    38    1
    34    35    36   ar
    35     9     8    1
    36    25    24   ar
    37     2     3   ar
    38     2     8    1
    39    36    37    1
    40    23    24   ar
    41    23    28    1
    42    24    31    1
    43    28    29    1
    44     3    11    1
    45     8    10    1
