@<TRIPOS>MOLECULE
mol_data/opt/m06hf/geoms/mol2/13ha13ha.out
 22 23 0 0 0
SMALL
GASTEIGER

@<TRIPOS>ATOM
      1 C           1.0893   -0.2153   -0.5677 C.ar    1  LIG1        0.0230
      2 C           0.7791    0.9517    0.0881 C.ar    1  LIG1        0.0427
      3 C          -0.5972    0.8769    0.4563 C.ar    1  LIG1       -0.0142
      4 C          -1.0782   -0.3331    0.0020 C.ar    1  LIG1        0.0665
      5 N          -0.0449   -0.9902   -0.6026 N.ar    1  LIG1       -0.3578
      6 H          -0.1498   -1.8509   -1.1139 H       1  LIG1        0.1654
      7 H           2.0188   -0.5515   -0.9930 H       1  LIG1        0.0826
      8 N           1.6557    2.0067    0.4301 N.pl3   1  LIG1       -0.3568
      9 H           2.5400    1.9428   -0.0595 H       1  LIG1        0.1424
     10 H           1.2388    2.9122    0.2469 H       1  LIG1        0.1424
     11 H          -1.1564    1.5947    1.0345 H       1  LIG1        0.0658
     12 C          -2.4203   -0.9077    0.0810 C.ar    1  LIG1        0.0838
     13 C          -3.6351   -0.3425   -0.2413 C.ar    1  LIG1        0.0516
     14 C          -4.6372   -1.3284   -0.0033 C.ar    1  LIG1       -0.0230
     15 C          -3.9959   -2.4550    0.4541 C.ar    1  LIG1        0.0040
     16 N          -2.6614   -2.1980    0.5020 N.ar    1  LIG1       -0.3580
     17 H          -1.9607   -2.7957    0.9082 H       1  LIG1        0.1654
     18 H          -4.3934   -3.4082    0.7566 H       1  LIG1        0.0807
     19 N          -3.8452    0.9772   -0.6892 N.pl3   1  LIG1       -0.3563
     20 H          -2.9680    1.4130   -0.9563 H       1  LIG1        0.1424
     21 H          -4.4963    1.0130   -1.4649 H       1  LIG1        0.1424
     22 H          -5.6979   -1.2118   -0.1495 H       1  LIG1        0.0651
@<TRIPOS>BOND
     1    21    19    1
     2     6     5    1
     3     7     1    1
     4    20    19    1
     5    19    13    1
     6     5     1   ar
     7     5     4   ar
     8     1     2   ar
     9    13    14   ar
    10    13    12   ar
    11    22    14    1
    12     9     8    1
    13    14    15   ar
    14     4    12    1
    15     4     3   ar
    16    12    16   ar
    17     2     8    1
    18     2     3   ar
    19    10     8    1
    20    15    16   ar
    21    15    18    1
    22     3    11    1
    23    16    17    1
