@<TRIPOS>MOLECULE
mol_data/opt/m06hf/geoms/mol2/13hd6el-4df12ee.out
 51 54 0 0 0
SMALL
GASTEIGER

@<TRIPOS>ATOM
      1 C           1.3293    0.0205   -0.7785 C.ar    1  LIG1        0.0243
      2 C           0.9688    1.1444   -0.0710 C.ar    1  LIG1        0.0603
      3 C          -0.4034    0.9731    0.2721 C.ar    1  LIG1        0.0976
      4 C          -0.8317   -0.2542   -0.2374 C.ar    1  LIG1        0.0687
      5 N           0.2333   -0.7963   -0.8632 N.ar    1  LIG1       -0.3579
      6 H           0.2154   -1.7086   -1.2972 H       1  LIG1        0.1654
      7 H           2.2752   -0.2569   -1.2078 H       1  LIG1        0.0826
      8 N           1.7716    2.2176    0.3201 N.pl3   1  LIG1       -0.3558
      9 H           2.5142    2.4348   -0.3302 H       1  LIG1        0.1424
     10 H           1.2436    3.0449    0.5673 H       1  LIG1        0.1424
     11 N          -1.7735    2.7046    1.6050 N.1     1  LIG1       -0.1907
     12 C          -1.1674    1.9192    1.0229 C.1     1  LIG1        0.1031
     13 C          -2.3863   -2.2618   -0.2890 C.ar    1  LIG1        0.1232
     14 C          -2.1638   -0.8807   -0.1719 C.ar    1  LIG1        0.0369
     15 C          -3.2804   -0.0647    0.0347 C.ar    1  LIG1       -0.0060
     16 C          -4.5403   -0.6343    0.1430 C.ar    1  LIG1        0.1467
     17 C          -4.6645   -2.0247   -0.0618 C.ar    1  LIG1        0.1152
     18 N          -3.6090   -2.7964   -0.2444 N.ar    1  LIG1       -0.2340
     19 H          -3.1565    1.0042    0.1260 H       1  LIG1        0.0662
     20 C          -1.3083   -3.2167   -0.4695 C.1     1  LIG1       -0.0491
     21 C          -0.4353   -4.0295   -0.6240 C.1     1  LIG1       -0.1124
     22 H           0.3231   -4.7694   -0.7431 H       1  LIG1        0.1232
     23 O          -5.6552    0.0413    0.4451 O.3     1  LIG1       -0.4929
     24 C          -5.6213    1.4633    0.3816 C.3     1  LIG1        0.0789
     25 H          -6.6361    1.7856    0.5923 H       1  LIG1        0.0660
     26 H          -4.9352    1.8624    1.1318 H       1  LIG1        0.0660
     27 H          -5.3302    1.7807   -0.6212 H       1  LIG1        0.0660
     28 C          -7.1060   -2.2273   -0.7506 C.ar    1  LIG1        0.0619
     29 C          -8.3130   -2.9219   -0.7092 C.ar    1  LIG1       -0.0295
     30 C          -5.9962   -2.6997   -0.0359 C.ar    1  LIG1        0.0248
     31 C          -8.4446   -4.0835    0.0468 C.ar    1  LIG1        0.0611
     32 H          -9.1588   -2.5587   -1.2776 H       1  LIG1        0.0639
     33 C          -6.1195   -3.8722    0.6974 C.ar    1  LIG1       -0.0089
     34 C          -7.3297   -4.5601    0.7542 C.ar    1  LIG1        0.1282
     35 H          -5.2520   -4.2456    1.2288 H       1  LIG1        0.0661
     36 N          -6.9558   -0.1592   -2.3128 N.1     1  LIG1       -0.1908
     37 C          -7.0120   -1.0641   -1.6081 C.1     1  LIG1        0.0998
     38 O          -7.4753   -5.6784    1.4948 O.3     1  LIG1       -0.5060
     39 H          -6.6510   -5.9047    1.9386 H       1  LIG1        0.2922
     40 C          -9.7444   -4.7694    0.0931 C.ar    1  LIG1        0.1549
     41 C         -11.0204   -4.2788    0.0785 C.ar    1  LIG1        0.0858
     42 C         -11.8899   -5.4365    0.1028 C.ar    1  LIG1        0.0783
     43 C         -11.0602   -6.5111    0.1315 C.ar    1  LIG1        0.1092
     44 O          -9.7785   -6.1159    0.1231 O.2     1  LIG1       -0.4603
     45 H         -11.2477   -7.5697    0.1588 H       1  LIG1        0.1042
     46 C         -11.4265   -2.9081    0.0598 C.1     1  LIG1       -0.0646
     47 C         -11.7707   -1.7575    0.0384 C.1     1  LIG1       -0.1138
     48 H         -12.0771   -0.7369    0.0226 H       1  LIG1        0.1232
     49 C         -13.3206   -5.4398    0.1041 C.1     1  LIG1       -0.0653
     50 C         -14.5208   -5.4349    0.1055 C.1     1  LIG1       -0.1138
     51 H         -15.5858   -5.4265    0.1068 H       1  LIG1        0.1232
@<TRIPOS>BOND
     1    36    37    3
     2    37    28    1
     3     6     5    1
     4    32    29    1
     5     7     1    1
     6     5     1   ar
     7     5     4   ar
     8     1     2   ar
     9    28    29   ar
    10    28    30   ar
    11    22    21    1
    12    29    31   ar
    13    21    20    3
    14    27    24    1
    15    20    13    1
    16     9     8    1
    17    13    18   ar
    18    13    14   ar
    19    18    17   ar
    20     4    14    1
    21     4     3   ar
    22    14    15   ar
    23     2     3   ar
    24     2     8    1
    25    17    30    1
    26    17    16   ar
    27    30    33   ar
    28    48    47    1
    29    15    19    1
    30    15    16   ar
    31    47    46    3
    32    31    40    1
    33    31    34   ar
    34    46    41    1
    35    41    40   ar
    36    41    42   ar
    37    40    44   ar
    38    42    49    1
    39    42    43   ar
    40    49    50    3
    41    50    51    1
    42    44    43   ar
    43    43    45    1
    44    16    23    1
    45     3    12    1
    46     8    10    1
    47    24    23    1
    48    24    25    1
    49    24    26    1
    50    33    34   ar
    51    33    35    1
    52    34    38    1
    53    12    11    3
    54    38    39    1
