@<TRIPOS>MOLECULE
mol_data/opt/m06hf/geoms/mol2/13hd13hd13hd-13hd-.out
 46 49 0 0 0
SMALL
GASTEIGER

@<TRIPOS>ATOM
      1 C           1.1831   -0.1019    0.8194 C.ar    1  LIG1        0.0243
      2 C           0.9373    1.0440    0.1064 C.ar    1  LIG1        0.0604
      3 C          -0.4411    0.9903   -0.2748 C.ar    1  LIG1        0.0990
      4 C          -0.9869   -0.1800    0.2319 C.ar    1  LIG1        0.0842
      5 N           0.0089   -0.8240    0.8813 N.ar    1  LIG1       -0.3568
      6 H          -0.1303   -1.6551    1.4344 H       1  LIG1        0.1655
      7 H           2.0851   -0.4484    1.2902 H       1  LIG1        0.0826
      8 N           1.8049    2.1027   -0.1706 N.pl3   1  LIG1       -0.3558
      9 H           2.7778    1.8324   -0.2158 H       1  LIG1        0.1424
     10 H           1.5362    2.6366   -0.9874 H       1  LIG1        0.1424
     11 N          -1.7224    2.7246   -1.6857 N.1     1  LIG1       -0.1907
     12 C          -1.1410    1.9479   -1.0669 C.1     1  LIG1        0.1032
     13 C          -2.3384   -0.7132    0.1424 C.ar    1  LIG1        0.0869
     14 C          -3.5658   -0.0868    0.2836 C.ar    1  LIG1        0.0699
     15 C          -4.5449   -1.1229    0.1837 C.ar    1  LIG1        0.0997
     16 C          -3.8796   -2.3291   -0.0090 C.ar    1  LIG1        0.0846
     17 N          -2.5639   -2.0656   -0.0339 N.ar    1  LIG1       -0.3493
     18 H          -1.8930   -2.7921   -0.2763 H       1  LIG1        0.1661
     19 N          -3.8247    1.2452    0.5617 N.pl3   1  LIG1       -0.3553
     20 H          -3.2423    1.9128    0.0718 H       1  LIG1        0.1424
     21 H          -4.8040    1.4899    0.5060 H       1  LIG1        0.1424
     22 N          -7.1172   -1.0095    0.2643 N.1     1  LIG1       -0.1907
     23 C          -5.9661   -1.0093    0.2381 C.1     1  LIG1        0.1032
     24 C          -4.3926   -3.6733   -0.2083 C.ar    1  LIG1        0.0869
     25 C          -3.7050   -4.8141   -0.5426 C.ar    1  LIG1        0.0699
     26 C          -4.6738   -5.8583   -0.6454 C.ar    1  LIG1        0.0997
     27 C          -5.9167   -5.3166   -0.3508 C.ar    1  LIG1        0.0846
     28 N          -5.7201   -3.9970   -0.0936 N.ar    1  LIG1       -0.3493
     29 H          -6.4341   -3.3613    0.2424 H       1  LIG1        0.1661
     30 N          -2.2946   -4.8649   -0.7532 N.pl3   1  LIG1       -0.3553
     31 H          -1.8731   -5.5756   -0.1594 H       1  LIG1        0.1424
     32 H          -2.0846   -5.1099   -1.7186 H       1  LIG1        0.1424
     33 N          -4.1978   -8.2909   -1.3539 N.1     1  LIG1       -0.1907
     34 C          -4.4131   -7.2050   -1.0419 C.1     1  LIG1        0.1032
     35 C          -7.2354   -5.9214   -0.2843 C.ar    1  LIG1        0.0864
     36 C          -7.6385   -7.1578    0.1864 C.ar    1  LIG1        0.0693
     37 C          -9.0686   -7.1548    0.1198 C.ar    1  LIG1        0.0903
     38 C          -9.4762   -5.9333   -0.3776 C.ar    1  LIG1        0.0215
     39 N          -8.3724   -5.2039   -0.6199 N.ar    1  LIG1       -0.3568
     40 H          -8.3669   -4.2988   -1.0665 H       1  LIG1        0.1655
     41 H         -10.4676   -5.5680   -0.5803 H       1  LIG1        0.0820
     42 N          -6.8580   -8.1724    0.7197 N.pl3   1  LIG1       -0.3553
     43 H          -7.4006   -8.9705    1.0242 H       1  LIG1        0.1424
     44 H          -6.0597   -8.4513    0.1629 H       1  LIG1        0.1424
     45 N         -10.5216   -9.1541    0.8553 N.1     1  LIG1       -0.1908
     46 C          -9.9008   -8.2477    0.5203 C.1     1  LIG1        0.1025
@<TRIPOS>BOND
     1    32    30    1
     2    11    12    3
     3    33    34    3
     4    12     3    1
     5    40    39    1
     6    34    26    1
     7    10     8    1
     8    30    25    1
     9    30    31    1
    10    26    25   ar
    11    26    27   ar
    12    39    38   ar
    13    39    35   ar
    14    41    38    1
    15    25    24   ar
    16    38    37   ar
    17    27    35    1
    18    27    28   ar
    19    35    36   ar
    20    18    17    1
    21     3     2   ar
    22     3     4   ar
    23     9     8    1
    24    24    28   ar
    25    24    16    1
    26     8     2    1
    27    28    29    1
    28    17    16   ar
    29    17    13   ar
    30    16    15   ar
    31    20    19    1
    32     2     1   ar
    33    37    36   ar
    34    37    46    1
    35    13     4    1
    36    13    14   ar
    37    44    42    1
    38    15    23    1
    39    15    14   ar
    40    36    42    1
    41     4     5   ar
    42    23    22    3
    43    14    19    1
    44    21    19    1
    45    46    45    3
    46    42    43    1
    47     1     5   ar
    48     1     7    1
    49     5     6    1
