@<TRIPOS>MOLECULE
mol_data/opt/m06hf/geoms/mol2/13hd13da-12li-6ld.out
 50 53 0 0 0
SMALL
GASTEIGER

@<TRIPOS>ATOM
      1 C           1.1727    0.3294   -1.4497 C.ar    1  LIG1        0.0243
      2 C           0.9119    1.2598   -0.4715 C.ar    1  LIG1        0.0604
      3 C          -0.4359    1.0368   -0.0532 C.ar    1  LIG1        0.0990
      4 C          -0.9433   -0.0166   -0.7936 C.ar    1  LIG1        0.0836
      5 N           0.0405   -0.4293   -1.6268 N.ar    1  LIG1       -0.3568
      6 H          -0.0884   -1.1247   -2.3455 H       1  LIG1        0.1655
      7 H           2.0689    0.1516   -2.0164 H       1  LIG1        0.0826
      8 N           1.7865    2.2002    0.0813 N.pl3   1  LIG1       -0.3558
      9 H           2.3829    2.6484   -0.6016 H       1  LIG1        0.1424
     10 H           1.3072    2.8906    0.6468 H       1  LIG1        0.1424
     11 N          -1.6069    2.3600    1.8247 N.1     1  LIG1       -0.1907
     12 C          -1.1124    1.7560    0.9823 C.1     1  LIG1        0.1032
     13 C          -2.2678   -0.6357   -0.7617 C.ar    1  LIG1        0.0823
     14 C          -3.5228   -0.0755   -0.9297 C.ar    1  LIG1        0.0791
     15 C          -4.4879   -1.1123   -0.8099 C.ar    1  LIG1       -0.0152
     16 C          -3.7819   -2.2697   -0.5696 C.ar    1  LIG1        0.0875
     17 N          -2.4498   -1.9666   -0.5487 N.ar    1  LIG1       -0.3495
     18 H          -1.7228   -2.6282   -0.3145 H       1  LIG1        0.1661
     19 N          -3.9686    2.4107   -1.4698 N.1     1  LIG1       -0.1908
     20 C          -3.7664    1.3079   -1.2249 C.1     1  LIG1        0.1014
     21 H          -5.5564   -1.0293   -0.9136 H       1  LIG1        0.0653
     22 C          -4.2354   -3.6282   -0.3377 C.ar    1  LIG1        0.1934
     23 C          -5.4587   -4.1579   -0.0679 C.ar    1  LIG1        0.1706
     24 C          -5.2807   -5.5781    0.0802 C.ar    1  LIG1        0.0379
     25 C          -3.9480   -5.7848   -0.1151 C.ar    1  LIG1        0.1474
     26 O          -3.3124   -4.6129   -0.3690 O.2     1  LIG1       -0.4491
     27 O          -6.6301   -3.4815    0.0660 O.3     1  LIG1       -0.4910
     28 C          -6.7974   -2.8935    1.3615 C.3     1  LIG1        0.0790
     29 H          -7.7746   -2.4180    1.3549 H       1  LIG1        0.0660
     30 H          -6.7570   -3.6660    2.1315 H       1  LIG1        0.0660
     31 H          -6.0171   -2.1519    1.5398 H       1  LIG1        0.0660
     32 C          -6.3728   -6.5648    0.3999 C.3     1  LIG1       -0.0326
     33 H          -5.9562   -7.4630    0.8550 H       1  LIG1        0.0280
     34 H          -6.9166   -6.8397   -0.5049 H       1  LIG1        0.0280
     35 H          -7.0813   -6.1106    1.0920 H       1  LIG1        0.0280
     36 C          -1.8947   -7.0993    0.5442 C.ar    1  LIG1        0.2255
     37 C          -3.1489   -7.0175   -0.1160 C.ar    1  LIG1        0.0803
     38 C          -3.6083   -8.1637   -0.7341 C.ar    1  LIG1       -0.0271
     39 C          -2.8405   -9.3358   -0.6722 C.ar    1  LIG1        0.0707
     40 C          -1.6252   -9.3010   -0.0033 C.ar    1  LIG1        0.0488
     41 N          -1.1672   -8.1989    0.5896 N.ar    1  LIG1       -0.2194
     42 H          -4.5479   -8.1538   -1.2709 H       1  LIG1        0.0640
     43 H          -1.0049  -10.1861    0.0590 H       1  LIG1        0.0844
     44 O          -1.4473   -6.0043    1.1542 O.3     1  LIG1       -0.4792
     45 C          -0.2213   -6.1183    1.8815 C.3     1  LIG1        0.0804
     46 H          -0.0600   -5.1372    2.3175 H       1  LIG1        0.0660
     47 H          -0.3173   -6.8784    2.6553 H       1  LIG1        0.0660
     48 H           0.5897   -6.3886    1.2073 H       1  LIG1        0.0660
     49 N          -3.6595  -11.5270   -1.7875 N.1     1  LIG1       -0.1908
     50 C          -3.2941  -10.5566   -1.2959 C.1     1  LIG1        0.1007
@<TRIPOS>BOND
     1     6     5    1
     2     7     1    1
     3    49    50    3
     4     5     1   ar
     5     5     4   ar
     6    19    20    3
     7     1     2   ar
     8    50    39    1
     9    42    38    1
    10    20    14    1
    11    14    15   ar
    12    14    13   ar
    13    21    15    1
    14    15    16   ar
    15     4    13    1
    16     4     3   ar
    17    13    17   ar
    18    38    39   ar
    19    38    37   ar
    20    39    40   ar
    21     9     8    1
    22    16    17   ar
    23    16    22    1
    24    17    18    1
    25    34    32    1
    26     2     3   ar
    27     2     8    1
    28    26    22   ar
    29    26    25   ar
    30    22    23   ar
    31    37    25    1
    32    37    36   ar
    33    25    24   ar
    34    23    27    1
    35    23    24   ar
    36     3    12    1
    37    40    43    1
    38    40    41   ar
    39    27    28    1
    40    24    32    1
    41     8    10    1
    42    32    33    1
    43    32    35    1
    44    36    41   ar
    45    36    44    1
    46    12    11    3
    47    44    45    1
    48    48    45    1
    49    29    28    1
    50    28    31    1
    51    28    30    1
    52    45    46    1
    53    45    47    1
