@<TRIPOS>MOLECULE
mol_data/opt/m06hf/geoms/mol2/13hd12ff13dh-4if.out
 47 50 0 0 0
SMALL
GASTEIGER

@<TRIPOS>ATOM
      1 C           0.8145   -0.0645    1.6613 C.ar    1  LIG1        0.0244
      2 C           0.6934    1.0866    0.9215 C.ar    1  LIG1        0.0604
      3 C          -0.5483    0.9915    0.2188 C.ar    1  LIG1        0.1007
      4 C          -1.1382   -0.2141    0.5682 C.ar    1  LIG1        0.1053
      5 N          -0.2984   -0.8362    1.4252 N.ar    1  LIG1       -0.3555
      6 H          -0.5007   -1.7271    1.8507 H       1  LIG1        0.1655
      7 H           1.5915   -0.3793    2.3340 H       1  LIG1        0.0826
      8 N           1.5727    2.1761    0.8742 N.pl3   1  LIG1       -0.3558
      9 H           2.5405    1.9058    0.7549 H       1  LIG1        0.1424
     10 H           1.3041    2.8559    0.1726 H       1  LIG1        0.1424
     11 N          -1.2962    2.7673   -1.4919 N.1     1  LIG1       -0.1907
     12 C          -1.0101    1.9567   -0.7295 C.1     1  LIG1        0.1032
     13 C          -2.3939   -0.8156    0.1654 C.ar    1  LIG1        0.1981
     14 C          -3.5882   -0.3007   -0.2221 C.ar    1  LIG1        0.2074
     15 C          -4.4627   -1.4178   -0.4584 C.ar    1  LIG1        0.2074
     16 C          -3.7395   -2.5368   -0.1710 C.ar    1  LIG1        0.1981
     17 O          -2.4823   -2.1782    0.2139 O.2     1  LIG1       -0.4442
     18 O          -3.9307    0.9900   -0.3581 O.3     1  LIG1       -0.5008
     19 H          -4.8388    1.0387   -0.6856 H       1  LIG1        0.2924
     20 O          -5.7083   -1.1986   -0.9296 O.3     1  LIG1       -0.5008
     21 H          -6.3516   -1.8630   -0.6419 H       1  LIG1        0.2924
     22 C          -3.9984   -3.9617   -0.2455 C.ar    1  LIG1        0.1058
     23 C          -5.1893   -4.6789   -0.2408 C.ar    1  LIG1        0.1013
     24 C          -4.8682   -6.0658   -0.3531 C.ar    1  LIG1        0.0685
     25 C          -3.4936   -6.1484   -0.4005 C.ar    1  LIG1        0.0696
     26 N          -3.0006   -4.8596   -0.3481 N.ar    1  LIG1       -0.3491
     27 H          -2.0201   -4.6182   -0.3458 H       1  LIG1        0.1661
     28 N          -7.4992   -3.5602   -0.0279 N.1     1  LIG1       -0.1907
     29 C          -6.4786   -4.0865   -0.1183 C.1     1  LIG1        0.1033
     30 N          -5.7793   -7.1239   -0.3719 N.pl3   1  LIG1       -0.3553
     31 H          -6.7083   -6.8488   -0.6657 H       1  LIG1        0.1424
     32 H          -5.4462   -7.9176   -0.9078 H       1  LIG1        0.1424
     33 C          -2.6364   -8.3628    0.3930 C.ar    1  LIG1       -0.0411
     34 C          -1.7694   -9.4409    0.1887 C.ar    1  LIG1       -0.0548
     35 C          -2.6043   -7.3218   -0.5453 C.ar    1  LIG1        0.0065
     36 C          -0.8881   -9.4869   -0.8820 C.ar    1  LIG1       -0.0199
     37 H          -1.7749  -10.2589    0.8989 H       1  LIG1        0.0622
     38 C          -1.7206   -7.3561   -1.6304 C.ar    1  LIG1       -0.0108
     39 C          -0.8586   -8.4336   -1.7952 C.ar    1  LIG1        0.1175
     40 H          -1.7329   -6.5479   -2.3546 H       1  LIG1        0.0661
     41 H          -0.2160  -10.3210   -1.0299 H       1  LIG1        0.0654
     42 C          -3.5328   -8.3003    1.6174 C.3     1  LIG1       -0.0391
     43 H          -3.3588   -9.1728    2.2464 H       1  LIG1        0.0278
     44 H          -4.5873   -8.2618    1.3378 H       1  LIG1        0.0278
     45 H          -3.3091   -7.4012    2.1946 H       1  LIG1        0.0278
     46 O           0.0229   -8.5200   -2.8287 O.3     1  LIG1       -0.5067
     47 H          -0.0721   -7.7676   -3.4216 H       1  LIG1        0.2921
@<TRIPOS>BOND
     1    47    46    1
     2    46    39    1
     3    40    38    1
     4    39    38   ar
     5    39    36   ar
     6    38    35   ar
     7    11    12    3
     8    41    36    1
     9    20    21    1
    10    20    15    1
    11    32    30    1
    12    36    34   ar
    13    12     3    1
    14    19    18    1
    15    31    30    1
    16    35    25    1
    17    35    33   ar
    18    15    14   ar
    19    15    16   ar
    20    25    24   ar
    21    25    26   ar
    22    30    24    1
    23    18    14    1
    24    24    23   ar
    25    26    27    1
    26    26    22   ar
    27    22    23   ar
    28    22    16    1
    29    23    29    1
    30    14    13   ar
    31    16    17   ar
    32    29    28    3
    33    13    17   ar
    34    13     4    1
    35    10     8    1
    36    34    33   ar
    37    34    37    1
    38     3     4   ar
    39     3     2   ar
    40    33    42    1
    41     4     5   ar
    42     9     8    1
    43     8     2    1
    44     2     1   ar
    45    44    42    1
    46     5     1   ar
    47     5     6    1
    48    42    45    1
    49    42    43    1
    50     1     7    1
