@<TRIPOS>MOLECULE
mol_data/opt/m06hf/geoms/mol2/13hd13hd-4hd13hd.out
 48 51 0 0 0
SMALL
GASTEIGER

@<TRIPOS>ATOM
      1 C           1.3376   -0.4098    0.4103 C.ar    1  LIG1        0.0243
      2 C           0.9779    0.9161    0.4828 C.ar    1  LIG1        0.0604
      3 C          -0.4386    0.9552    0.3010 C.ar    1  LIG1        0.0990
      4 C          -0.8783   -0.3531    0.1328 C.ar    1  LIG1        0.0842
      5 N           0.2002   -1.1520    0.1986 N.ar    1  LIG1       -0.3568
      6 H           0.1155   -2.1541    0.0501 H       1  LIG1        0.1655
      7 H           2.3040   -0.8703    0.5066 H       1  LIG1        0.0826
      8 N           1.7898    2.0224    0.7481 N.pl3   1  LIG1       -0.3558
      9 H           2.7415    1.9144    0.4241 H       1  LIG1        0.1424
     10 H           1.3944    2.8957    0.4236 H       1  LIG1        0.1424
     11 N          -2.0042    2.9971    0.1435 N.1     1  LIG1       -0.1907
     12 C          -1.2833    2.1033    0.2281 C.1     1  LIG1        0.1032
     13 C          -2.2106   -0.8840   -0.1063 C.ar    1  LIG1        0.0869
     14 C          -2.5749   -2.1552   -0.4857 C.ar    1  LIG1        0.0699
     15 C          -3.9927   -2.1450   -0.6331 C.ar    1  LIG1        0.0983
     16 C          -4.4458   -0.8675   -0.3240 C.ar    1  LIG1        0.0682
     17 N          -3.3454   -0.1306   -0.0140 N.ar    1  LIG1       -0.3504
     18 H          -3.3981    0.8376    0.2967 H       1  LIG1        0.1660
     19 N          -1.6553   -3.2268   -0.6856 N.pl3   1  LIG1       -0.3553
     20 H          -1.9551   -4.0522   -0.1722 H       1  LIG1        0.1424
     21 H          -1.6047   -3.4808   -1.6697 H       1  LIG1        0.1424
     22 N          -5.3521   -4.2078   -1.3739 N.1     1  LIG1       -0.1907
     23 C          -4.7655   -3.2752   -1.0481 C.1     1  LIG1        0.1032
     24 C          -6.0707    1.0611   -0.3850 C.ar    1  LIG1        0.0345
     25 C          -7.3675    1.5443   -0.2057 C.ar    1  LIG1       -0.0300
     26 C          -5.8135   -0.3225   -0.2428 C.ar    1  LIG1        0.0215
     27 C          -8.4399    0.6988    0.0788 C.ar    1  LIG1        0.0192
     28 H          -7.5564    2.6084   -0.2891 H       1  LIG1        0.0643
     29 C          -6.8768   -1.1709    0.0431 C.ar    1  LIG1       -0.0328
     30 C          -8.1718   -0.6789    0.1908 C.ar    1  LIG1        0.0616
     31 H          -6.7050   -2.2316    0.1721 H       1  LIG1        0.0638
     32 N          -5.0246    1.9480   -0.6276 N.pl3   1  LIG1       -0.3574
     33 H          -4.3736    1.6807   -1.3578 H       1  LIG1        0.1423
     34 H          -5.2863    2.9223   -0.6907 H       1  LIG1        0.1423
     35 N         -10.0653   -2.3523    0.7765 N.1     1  LIG1       -0.1908
     36 C          -9.2215   -1.6234    0.4981 C.1     1  LIG1        0.0998
     37 C          -9.7750    1.2931    0.2428 C.ar    1  LIG1        0.0700
     38 C         -10.2513    2.4974   -0.2469 C.ar    1  LIG1        0.0678
     39 C         -11.5784    2.6474    0.2477 C.ar    1  LIG1        0.0902
     40 C         -11.8687    1.5342    1.0147 C.ar    1  LIG1        0.0215
     41 N         -10.7914    0.7345    0.9941 N.ar    1  LIG1       -0.3580
     42 H         -10.7444   -0.1732    1.4359 H       1  LIG1        0.1654
     43 H         -12.7682    1.2771    1.5460 H       1  LIG1        0.0820
     44 N          -9.5716    3.4188   -1.0621 N.pl3   1  LIG1       -0.3553
     45 H          -9.2453    2.9991   -1.9274 H       1  LIG1        0.1424
     46 H         -10.1480    4.2282   -1.2681 H       1  LIG1        0.1424
     47 N         -13.0739    4.6695   -0.3199 N.1     1  LIG1       -0.1908
     48 C         -12.4329    3.7569   -0.0440 C.1     1  LIG1        0.1025
@<TRIPOS>BOND
     1    45    44    1
     2    21    19    1
     3    22    23    3
     4    33    32    1
     5    46    44    1
     6    44    38    1
     7    23    15    1
     8    34    32    1
     9    19    14    1
    10    19    20    1
    11    15    14   ar
    12    15    16   ar
    13    32    24    1
    14    14    13   ar
    15    24    26   ar
    16    24    25   ar
    17    16    26    1
    18    16    17   ar
    19    47    48    3
    20    28    25    1
    21    38    37   ar
    22    38    39   ar
    23    26    29   ar
    24    25    27   ar
    25    13    17   ar
    26    13     4    1
    27    48    39    1
    28    17    18    1
    29    29    31    1
    30    29    30   ar
    31     6     5    1
    32    27    30   ar
    33    27    37    1
    34     4     5   ar
    35     4     3   ar
    36    11    12    3
    37    30    36    1
    38     5     1   ar
    39    12     3    1
    40    37    41   ar
    41    39    40   ar
    42     3     2   ar
    43     1     2   ar
    44     1     7    1
    45    10     8    1
    46     9     8    1
    47     2     8    1
    48    36    35    3
    49    41    40   ar
    50    41    42    1
    51    40    43    1
