@<TRIPOS>MOLECULE
mol_data/opt/m06hf/geoms/mol2/13hd13hd13hd-13hd.out
 46 49 0 0 0
SMALL
GASTEIGER

@<TRIPOS>ATOM
      1 C           1.1578   -0.0525    0.8003 C.ar    1  LIG1        0.0243
      2 C           0.9231    1.0417    0.0074 C.ar    1  LIG1        0.0604
      3 C          -0.4467    0.9555   -0.3986 C.ar    1  LIG1        0.0990
      4 C          -0.9995   -0.1809    0.1735 C.ar    1  LIG1        0.0842
      5 N          -0.0143   -0.7756    0.8846 N.ar    1  LIG1       -0.3568
      6 H          -0.1635   -1.5658    1.4923 H       1  LIG1        0.1655
      7 H           2.0501   -0.3615    1.3141 H       1  LIG1        0.0826
      8 N           1.7967    2.0816   -0.3214 N.pl3   1  LIG1       -0.3558
      9 H           2.7645    1.7954   -0.3814 H       1  LIG1        0.1424
     10 H           1.5165    2.5901   -1.1505 H       1  LIG1        0.1424
     11 N          -1.7061    2.5746   -1.9586 N.1     1  LIG1       -0.1907
     12 C          -1.1328    1.8503   -1.2722 C.1     1  LIG1        0.1032
     13 C          -2.3453   -0.7288    0.0888 C.ar    1  LIG1        0.0869
     14 C          -3.5808   -0.1050    0.1467 C.ar    1  LIG1        0.0699
     15 C          -4.5515   -1.1525    0.0959 C.ar    1  LIG1        0.0997
     16 C          -3.8737   -2.3635    0.0100 C.ar    1  LIG1        0.0846
     17 N          -2.5585   -2.0909    0.0034 N.ar    1  LIG1       -0.3493
     18 H          -1.8733   -2.8296   -0.1404 H       1  LIG1        0.1661
     19 N          -3.8575    1.2425    0.3176 N.pl3   1  LIG1       -0.3553
     20 H          -3.2916    1.8743   -0.2356 H       1  LIG1        0.1424
     21 H          -4.8418    1.4636    0.2445 H       1  LIG1        0.1424
     22 N          -7.1185   -0.9193    0.1462 N.1     1  LIG1       -0.1907
     23 C          -5.9713   -1.0066    0.1249 C.1     1  LIG1        0.1032
     24 C          -4.3658   -3.7269   -0.0952 C.ar    1  LIG1        0.0869
     25 C          -3.6416   -4.8884   -0.2564 C.ar    1  LIG1        0.0699
     26 C          -4.5904   -5.9523   -0.3020 C.ar    1  LIG1        0.0997
     27 C          -5.8522   -5.3873   -0.1681 C.ar    1  LIG1        0.0846
     28 N          -5.6912   -4.0520   -0.0471 N.ar    1  LIG1       -0.3493
     29 H          -6.5073   -3.4395    0.0705 H       1  LIG1        0.1661
     30 N          -2.2190   -4.9411   -0.3601 N.pl3   1  LIG1       -0.3553
     31 H          -1.8332   -5.5873    0.3246 H       1  LIG1        0.1424
     32 H          -1.9396   -5.2674   -1.2827 H       1  LIG1        0.1424
     33 N          -4.1858   -8.4847   -0.5616 N.1     1  LIG1       -0.1907
     34 C          -4.3353   -7.3494   -0.4500 C.1     1  LIG1        0.1032
     35 C          -7.1820   -5.9769   -0.1424 C.ar    1  LIG1        0.0864
     36 C          -8.3839   -5.3211   -0.0010 C.ar    1  LIG1        0.0693
     37 C          -9.3984   -6.3246   -0.0370 C.ar    1  LIG1        0.0903
     38 C          -8.7706   -7.5433   -0.1985 C.ar    1  LIG1        0.0215
     39 N          -7.4377   -7.3168   -0.2605 N.ar    1  LIG1       -0.3568
     40 H          -6.7284   -8.0294   -0.3792 H       1  LIG1        0.1655
     41 H          -9.1878   -8.5322   -0.2716 H       1  LIG1        0.0820
     42 N          -8.4890   -3.9095    0.1469 N.pl3   1  LIG1       -0.3553
     43 H          -8.9848   -3.4770   -0.6286 H       1  LIG1        0.1424
     44 H          -8.9596   -3.6487    1.0092 H       1  LIG1        0.1424
     45 N         -11.9305   -5.8659    0.1582 N.1     1  LIG1       -0.1908
     46 C         -10.8075   -6.0882    0.0713 C.1     1  LIG1        0.1025
@<TRIPOS>BOND
     1    11    12    3
     2    32    30    1
     3    12     3    1
     4    10     8    1
     5    43    42    1
     6    33    34    3
     7    34    26    1
     8     3     2   ar
     9     3     4   ar
    10     9     8    1
    11    40    39    1
    12    30    25    1
    13    30    31    1
    14     8     2    1
    15    26    25   ar
    16    26    27   ar
    17    41    38    1
    18    39    38   ar
    19    39    35   ar
    20    25    24   ar
    21    20    19    1
    22    38    37   ar
    23    27    35    1
    24    27    28   ar
    25    35    36   ar
    26    18    17    1
    27    24    28   ar
    28    24    16    1
    29    28    29    1
    30    37    36   ar
    31    37    46    1
    32    36    42    1
    33    17    16   ar
    34    17    13   ar
    35     2     1   ar
    36    16    15   ar
    37    46    45    3
    38    13    14   ar
    39    13     4    1
    40    15    23    1
    41    15    14   ar
    42    23    22    3
    43    14    19    1
    44    42    44    1
    45     4     5   ar
    46    21    19    1
    47     1     5   ar
    48     1     7    1
    49     5     6    1
