@<TRIPOS>MOLECULE
mol_data/opt/m06hf/geoms/mol2/13hd13hd-13hd.out
 35 37 0 0 0
SMALL
GASTEIGER

@<TRIPOS>ATOM
      1 C           1.2444   -0.2982   -0.0382 C.ar    1  LIG1        0.0243
      2 C           0.8554    1.0209   -0.0532 C.ar    1  LIG1        0.0604
      3 C          -0.5731    1.0173   -0.0597 C.ar    1  LIG1        0.0990
      4 C          -0.9909   -0.3088   -0.0473 C.ar    1  LIG1        0.0842
      5 N           0.1127   -1.0774   -0.0357 N.ar    1  LIG1       -0.3568
      6 H           0.0372   -2.0913   -0.0304 H       1  LIG1        0.1655
      7 H           2.2285   -0.7299   -0.0177 H       1  LIG1        0.0826
      8 N           1.6591    2.1646   -0.0018 N.pl3   1  LIG1       -0.3558
      9 H           2.5624    2.0428   -0.4399 H       1  LIG1        0.1424
     10 H           1.1953    2.9909   -0.3575 H       1  LIG1        0.1424
     11 N          -2.1573    3.0507   -0.1223 N.1     1  LIG1       -0.1907
     12 C          -1.4373    2.1534   -0.0889 C.1     1  LIG1        0.1032
     13 C          -2.3236   -0.8921   -0.0535 C.ar    1  LIG1        0.0869
     14 C          -2.6773   -2.2239   -0.0565 C.ar    1  LIG1        0.0699
     15 C          -4.1038   -2.2629   -0.0640 C.ar    1  LIG1        0.0997
     16 C          -4.5539   -0.9498   -0.0648 C.ar    1  LIG1        0.0846
     17 N          -3.4677   -0.1463   -0.0584 N.ar    1  LIG1       -0.3493
     18 H          -3.5766    0.8748   -0.0547 H       1  LIG1        0.1661
     19 N          -1.7446   -3.3038   -0.0509 N.pl3   1  LIG1       -0.3553
     20 H          -1.8742   -3.8872    0.7722 H       1  LIG1        0.1424
     21 H          -1.8681   -3.8912   -0.8720 H       1  LIG1        0.1424
     22 N          -5.6749   -4.3074   -0.0760 N.1     1  LIG1       -0.1907
     23 C          -4.9502   -3.4137   -0.0701 C.1     1  LIG1        0.1032
     24 C          -5.8939   -0.3824   -0.0699 C.ar    1  LIG1        0.0864
     25 C          -6.2390    0.9496   -0.0651 C.ar    1  LIG1        0.0693
     26 C          -7.6658    0.9978   -0.0722 C.ar    1  LIG1        0.0903
     27 C          -8.1249   -0.3037   -0.0808 C.ar    1  LIG1        0.0215
     28 N          -7.0465   -1.1218   -0.0793 N.ar    1  LIG1       -0.3568
     29 H          -7.0802   -2.1335   -0.0849 H       1  LIG1        0.1655
     30 H          -9.1314   -0.6830   -0.0879 H       1  LIG1        0.0820
     31 N          -5.2817    2.0028   -0.0545 N.pl3   1  LIG1       -0.3553
     32 H          -5.3543    2.5954   -0.8772 H       1  LIG1        0.1424
     33 H          -5.3699    2.5918    0.7692 H       1  LIG1        0.1424
     34 N          -9.0732    3.1618   -0.0714 N.1     1  LIG1       -0.1908
     35 C          -8.4609    2.1903   -0.0715 C.1     1  LIG1        0.1025
@<TRIPOS>BOND
     1    32    31    1
     2    21    19    1
     3     9     8    1
     4    10     8    1
     5    11    12    3
     6    12     3    1
     7    30    27    1
     8    29    28    1
     9    27    28   ar
    10    27    26   ar
    11    28    24   ar
    12    22    23    3
    13    26    35    1
    14    26    25   ar
    15    35    34    3
    16    23    15    1
    17    24    25   ar
    18    24    16    1
    19    25    31    1
    20    16    15   ar
    21    16    17   ar
    22    15    14   ar
    23     3     2   ar
    24     3     4   ar
    25    17    18    1
    26    17    13   ar
    27    14    13   ar
    28    14    19    1
    29    31    33    1
    30    13     4    1
    31     2     1   ar
    32     2     8    1
    33    19    20    1
    34     4     5   ar
    35     1     5   ar
    36     1     7    1
    37     5     6    1
