@<TRIPOS>MOLECULE
mol_data/opt/m06hf/geoms/mol2/13hd13hd13hd13hd.out
 46 49 0 0 0
SMALL
GASTEIGER

@<TRIPOS>ATOM
      1 C           0.6625    0.2550    1.8418 C.ar    1  LIG1        0.0243
      2 C           0.8220    1.0689    0.7485 C.ar    1  LIG1        0.0604
      3 C          -0.3038    0.8225   -0.0995 C.ar    1  LIG1        0.0990
      4 C          -1.1131   -0.1210    0.5134 C.ar    1  LIG1        0.0842
      5 N          -0.5095   -0.4543    1.6783 N.ar    1  LIG1       -0.3568
      6 H          -0.9442   -1.0169    2.3935 H       1  LIG1        0.1655
      7 H           1.2744    0.1393    2.7182 H       1  LIG1        0.0826
      8 N           1.8264    2.0042    0.4978 N.pl3   1  LIG1       -0.3558
      9 H           2.7157    1.7792    0.9219 H       1  LIG1        0.1424
     10 H           1.9324    2.2308   -0.4828 H       1  LIG1        0.1424
     11 N          -0.7977    1.9194   -2.3796 N.1     1  LIG1       -0.1907
     12 C          -0.5642    1.4221   -1.3686 C.1     1  LIG1        0.1032
     13 C          -2.3777   -0.7006    0.0809 C.ar    1  LIG1        0.0869
     14 C          -3.5152   -0.0984   -0.4219 C.ar    1  LIG1        0.0699
     15 C          -4.4729   -1.1478   -0.5869 C.ar    1  LIG1        0.0997
     16 C          -3.8978   -2.3428   -0.1794 C.ar    1  LIG1        0.0846
     17 N          -2.6367   -2.0550    0.2112 N.ar    1  LIG1       -0.3493
     18 H          -1.9810   -2.7295    0.5749 H       1  LIG1        0.1661
     19 N          -3.7381    1.2479   -0.6573 N.pl3   1  LIG1       -0.3553
     20 H          -2.9674    1.7455   -1.0860 H       1  LIG1        0.1424
     21 H          -4.6149    1.4374   -1.1247 H       1  LIG1        0.1424
     22 N          -6.8927   -0.9208   -1.4441 N.1     1  LIG1       -0.1907
     23 C          -5.8053   -1.0164   -1.0817 C.1     1  LIG1        0.1032
     24 C          -4.4513   -3.6892   -0.1464 C.ar    1  LIG1        0.0869
     25 C          -5.6510   -4.1483    0.3617 C.ar    1  LIG1        0.0699
     26 C          -5.6206   -5.5701    0.2122 C.ar    1  LIG1        0.0997
     27 C          -4.4161   -5.9298   -0.3746 C.ar    1  LIG1        0.0846
     28 N          -3.7283   -4.7866   -0.5867 N.ar    1  LIG1       -0.3493
     29 H          -2.8129   -4.7420   -1.0073 H       1  LIG1        0.1661
     30 N          -6.6591   -3.4171    0.9680 N.pl3   1  LIG1       -0.3553
     31 H          -6.8811   -2.5370    0.5187 H       1  LIG1        0.1424
     32 H          -7.4910   -3.9599    1.1598 H       1  LIG1        0.1424
     33 N          -7.4504   -7.2400    0.9221 N.1     1  LIG1       -0.1907
     34 C          -6.6461   -6.4874    0.5913 C.1     1  LIG1        0.1032
     35 C          -3.9046   -7.2418   -0.7444 C.ar    1  LIG1        0.0864
     36 C          -3.8602   -8.4189   -0.0241 C.ar    1  LIG1        0.0693
     37 C          -3.1589   -9.3572   -0.8481 C.ar    1  LIG1        0.0903
     38 C          -2.8154   -8.7258   -2.0263 C.ar    1  LIG1        0.0215
     39 N          -3.2646   -7.4584   -1.9544 N.ar    1  LIG1       -0.3568
     40 H          -3.2765   -6.8072   -2.7242 H       1  LIG1        0.1655
     41 H          -2.3087   -9.1132   -2.8930 H       1  LIG1        0.0820
     42 N          -4.3094   -8.6492    1.2682 N.pl3   1  LIG1       -0.3553
     43 H          -5.2422   -8.3041    1.4627 H       1  LIG1        0.1424
     44 H          -4.2050   -9.6140    1.5559 H       1  LIG1        0.1424
     45 N          -2.6569  -11.7889   -0.1489 N.1     1  LIG1       -0.1908
     46 C          -2.8694  -10.7107   -0.4831 C.1     1  LIG1        0.1025
@<TRIPOS>BOND
     1    41    38    1
     2    40    39    1
     3    11    12    3
     4    38    39   ar
     5    38    37   ar
     6    39    35   ar
     7    22    23    3
     8    12     3    1
     9    21    19    1
    10    20    19    1
    11    23    15    1
    12    29    28    1
    13    37    46    1
    14    37    36   ar
    15    35    27    1
    16    35    36   ar
    17    19    14    1
    18    15    14   ar
    19    15    16   ar
    20    28    27   ar
    21    28    24   ar
    22    46    45    3
    23    10     8    1
    24    14    13   ar
    25    27    26   ar
    26    16    24    1
    27    16    17   ar
    28    24    25   ar
    29     3     4   ar
    30     3     2   ar
    31    36    42    1
    32    13    17   ar
    33    13     4    1
    34    17    18    1
    35    26    25   ar
    36    26    34    1
    37    25    30    1
    38     8     2    1
    39     8     9    1
    40     4     5   ar
    41    31    30    1
    42    34    33    3
    43     2     1   ar
    44    30    32    1
    45    42    43    1
    46    42    44    1
    47     5     1   ar
    48     5     6    1
    49     1     7    1
