@<TRIPOS>MOLECULE
mol_data/opt/m06hf/geoms/mol2/13hd13hd.out
 24 25 0 0 0
SMALL
GASTEIGER

@<TRIPOS>ATOM
      1 C           1.1613   -0.2758    0.4948 C.ar    1  LIG1        0.0243
      2 C           0.8513    0.9604   -0.0118 C.ar    1  LIG1        0.0604
      3 C          -0.5414    0.9208   -0.3395 C.ar    1  LIG1        0.0990
      4 C          -1.0316   -0.3327   -0.0077 C.ar    1  LIG1        0.0841
      5 N           0.0112   -1.0397    0.4868 N.ar    1  LIG1       -0.3568
      6 H          -0.0830   -1.9422    0.9252 H       1  LIG1        0.1655
      7 H           2.0924   -0.6613    0.8688 H       1  LIG1        0.0826
      8 N           1.6734    2.0803   -0.1468 N.pl3   1  LIG1       -0.3558
      9 H           2.6520    1.8616   -0.2732 H       1  LIG1        0.1424
     10 H           1.3484    2.7350   -0.8469 H       1  LIG1        0.1424
     11 N          -1.9391    2.8142   -1.3891 N.1     1  LIG1       -0.1907
     12 C          -1.3066    1.9685   -0.9326 C.1     1  LIG1        0.1032
     13 C          -2.3754   -0.8808   -0.1273 C.ar    1  LIG1        0.0864
     14 C          -3.6038   -0.3302    0.1817 C.ar    1  LIG1        0.0693
     15 C          -4.5702   -1.3562   -0.0750 C.ar    1  LIG1        0.0903
     16 C          -3.9031   -2.4754   -0.5295 C.ar    1  LIG1        0.0215
     17 N          -2.5900   -2.1800   -0.5583 N.ar    1  LIG1       -0.3568
     18 H          -1.8737   -2.7661   -0.9577 H       1  LIG1        0.1655
     19 H          -4.2917   -3.4297   -0.8399 H       1  LIG1        0.0820
     20 N          -3.8754    0.9199    0.7182 N.pl3   1  LIG1       -0.3553
     21 H          -3.3854    1.6907    0.2804 H       1  LIG1        0.1424
     22 H          -4.8659    1.1078    0.8045 H       1  LIG1        0.1424
     23 N          -7.1079   -1.0618    0.2821 N.1     1  LIG1       -0.1908
     24 C          -5.9818   -1.2175    0.1168 C.1     1  LIG1        0.1025
@<TRIPOS>BOND
     1    11    12    3
     2    18    17    1
     3    12     3    1
     4    10     8    1
     5    19    16    1
     6    17    16   ar
     7    17    13   ar
     8    16    15   ar
     9     3     2   ar
    10     3     4   ar
    11     9     8    1
    12     8     2    1
    13    13     4    1
    14    13    14   ar
    15    15    24    1
    16    15    14   ar
    17     2     1   ar
    18     4     5   ar
    19    24    23    3
    20    14    20    1
    21    21    20    1
    22     5     1   ar
    23     5     6    1
    24     1     7    1
    25    20    22    1
