@<TRIPOS>MOLECULE
mol_data/opt/m06hf/geoms/mol2/13hd13hd-13hd-13hd-.out
 46 49 0 0 0
SMALL
GASTEIGER

@<TRIPOS>ATOM
      1 C           1.1855   -0.0469    0.0175 C.ar    1  LIG1        0.0243
      2 C           0.6713    1.2069    0.2488 C.ar    1  LIG1        0.0604
      3 C          -0.7508    1.0641    0.2277 C.ar    1  LIG1        0.0990
      4 C          -1.0350   -0.2784   -0.0136 C.ar    1  LIG1        0.0842
      5 N           0.1352   -0.9239   -0.1312 N.ar    1  LIG1       -0.3568
      6 H           0.1616   -1.9164   -0.3462 H       1  LIG1        0.1655
      7 H           2.2085   -0.3732   -0.0414 H       1  LIG1        0.0826
      8 N           1.3538    2.3941    0.5295 N.pl3   1  LIG1       -0.3558
      9 H           2.3325    2.3663    0.2774 H       1  LIG1        0.1424
     10 H           0.9056    3.2161    0.1444 H       1  LIG1        0.1424
     11 N          -2.6571    2.7782    0.4872 N.1     1  LIG1       -0.1907
     12 C          -1.7602    2.0613    0.3862 C.1     1  LIG1        0.1032
     13 C          -2.3148   -0.9498   -0.1551 C.ar    1  LIG1        0.0869
     14 C          -2.6036   -2.2454   -0.5042 C.ar    1  LIG1        0.0699
     15 C          -4.0325   -2.3480   -0.5485 C.ar    1  LIG1        0.0997
     16 C          -4.5548   -1.1077   -0.2078 C.ar    1  LIG1        0.0846
     17 N          -3.4990   -0.2896    0.0283 N.ar    1  LIG1       -0.3493
     18 H          -3.5819    0.6464    0.4028 H       1  LIG1        0.1661
     19 N          -1.6093   -3.2317   -0.7706 N.pl3   1  LIG1       -0.3553
     20 H          -1.6916   -4.0076   -0.1175 H       1  LIG1        0.1424
     21 H          -1.7153   -3.6077   -1.7099 H       1  LIG1        0.1424
     22 N          -5.4312   -4.4118   -1.2036 N.1     1  LIG1       -0.1907
     23 C          -4.7967   -3.4954   -0.9189 C.1     1  LIG1        0.1032
     24 C          -5.8921   -0.5627   -0.0911 C.ar    1  LIG1        0.0869
     25 C          -7.0945   -1.0872    0.3388 C.ar    1  LIG1        0.0699
     26 C          -7.9924    0.0285    0.4476 C.ar    1  LIG1        0.0997
     27 C          -7.3156    1.1811    0.0754 C.ar    1  LIG1        0.0846
     28 N          -6.0552    0.8112   -0.2429 N.ar    1  LIG1       -0.3493
     29 H          -5.4320    1.3948   -0.7848 H       1  LIG1        0.1661
     30 N          -7.3820   -2.3776    0.7269 N.pl3   1  LIG1       -0.3553
     31 H          -8.3596   -2.5522    0.9141 H       1  LIG1        0.1424
     32 H          -6.9375   -3.1208    0.2041 H       1  LIG1        0.1424
     33 N         -10.4199   -0.0561    1.3070 N.1     1  LIG1       -0.1907
     34 C          -9.3321   -0.0226    0.9335 C.1     1  LIG1        0.1032
     35 C          -7.7282    2.5695   -0.0042 C.ar    1  LIG1        0.0864
     36 C          -8.9188    3.1555   -0.3955 C.ar    1  LIG1        0.0693
     37 C          -8.6841    4.5683   -0.3753 C.ar    1  LIG1        0.0903
     38 C          -7.3786    4.7847    0.0205 C.ar    1  LIG1        0.0215
     39 N          -6.8140    3.5853    0.2400 N.ar    1  LIG1       -0.3568
     40 H          -5.8909    3.4447    0.6260 H       1  LIG1        0.1655
     41 H          -6.8482    5.7089    0.1713 H       1  LIG1        0.0820
     42 N         -10.0820    2.5452   -0.8272 N.pl3   1  LIG1       -0.3553
     43 H         -10.8338    3.1953   -1.0147 H       1  LIG1        0.1424
     44 H         -10.3901    1.7421   -0.2938 H       1  LIG1        0.1424
     45 N         -10.4774    6.3126   -0.9993 N.1     1  LIG1       -0.1908
     46 C          -9.6587    5.5578   -0.7173 C.1     1  LIG1        0.1025
@<TRIPOS>BOND
     1    21    19    1
     2    22    23    3
     3    43    42    1
     4    45    46    3
     5    23    15    1
     6    42    36    1
     7    42    44    1
     8    29    28    1
     9    19    14    1
    10    19    20    1
    11    46    37    1
    12    15    14   ar
    13    15    16   ar
    14    14    13   ar
    15    36    37   ar
    16    36    35   ar
    17    37    38   ar
    18     6     5    1
    19    28    24   ar
    20    28    27   ar
    21    16    24    1
    22    16    17   ar
    23    13     4    1
    24    13    17   ar
    25     5     4   ar
    26     5     1   ar
    27    24    25   ar
    28     7     1    1
    29     4     3   ar
    30    35    27    1
    31    35    39   ar
    32     1     2   ar
    33    38    41    1
    34    38    39   ar
    35    17    18    1
    36    27    26   ar
    37    10     8    1
    38    32    30    1
    39     3     2   ar
    40     3    12    1
    41    39    40    1
    42     2     8    1
    43     9     8    1
    44    25    26   ar
    45    25    30    1
    46    12    11    3
    47    26    34    1
    48    30    31    1
    49    34    33    3
