@<TRIPOS>MOLECULE
mol_data/opt/m06hf/geoms/mol2/13hd13hd13hd13hd-.out
 46 49 0 0 0
SMALL
GASTEIGER

@<TRIPOS>ATOM
      1 C           0.7394    0.3078    1.6398 C.ar    1  LIG1        0.0243
      2 C           0.8155    1.1060    0.5270 C.ar    1  LIG1        0.0604
      3 C          -0.3622    0.8356   -0.2397 C.ar    1  LIG1        0.0990
      4 C          -1.1190   -0.1057    0.4408 C.ar    1  LIG1        0.0842
      5 N          -0.4337   -0.4157    1.5663 N.ar    1  LIG1       -0.3568
      6 H          -0.8108   -0.9748    2.3155 H       1  LIG1        0.1655
      7 H           1.4090    0.2136    2.4755 H       1  LIG1        0.0826
      8 N           1.7943    2.0442    0.1952 N.pl3   1  LIG1       -0.3558
      9 H           2.7182    1.8118    0.5325 H       1  LIG1        0.1424
     10 H           1.8109    2.2790   -0.7891 H       1  LIG1        0.1424
     11 N          -1.0141    1.8774   -2.5049 N.1     1  LIG1       -0.1907
     12 C          -0.7091    1.4060   -1.5008 C.1     1  LIG1        0.1032
     13 C          -2.4007   -0.7073    0.1012 C.ar    1  LIG1        0.0869
     14 C          -3.5662   -0.1347   -0.3690 C.ar    1  LIG1        0.0699
     15 C          -4.5211   -1.1975   -0.4478 C.ar    1  LIG1        0.0997
     16 C          -3.9165   -2.3716   -0.0196 C.ar    1  LIG1        0.0846
     17 N          -2.6418   -2.0578    0.2987 N.ar    1  LIG1       -0.3493
     18 H          -1.9546   -2.7194    0.6255 H       1  LIG1        0.1661
     19 N          -3.8170    1.1999   -0.6447 N.pl3   1  LIG1       -0.3553
     20 H          -3.0889    1.6784   -1.1611 H       1  LIG1        0.1424
     21 H          -4.7305    1.3624   -1.0471 H       1  LIG1        0.1424
     22 N          -6.9571   -1.0069   -1.2650 N.1     1  LIG1       -0.1907
     23 C          -5.8643   -1.0894   -0.9149 C.1     1  LIG1        0.1032
     24 C          -4.4414   -3.7240    0.0867 C.ar    1  LIG1        0.0869
     25 C          -5.6597   -4.1824    0.5617 C.ar    1  LIG1        0.0699
     26 C          -5.5793   -5.6084    0.5253 C.ar    1  LIG1        0.0997
     27 C          -4.3268   -5.9590    0.0344 C.ar    1  LIG1        0.0846
     28 N          -3.6619   -4.8219   -0.2248 N.ar    1  LIG1       -0.3493
     29 H          -2.7502   -4.8487   -0.6789 H       1  LIG1        0.1661
     30 N          -6.7168   -3.4462    1.0714 N.pl3   1  LIG1       -0.3553
     31 H          -6.9656   -2.6178    0.5443 H       1  LIG1        0.1424
     32 H          -7.5286   -4.0061    1.2955 H       1  LIG1        0.1424
     33 N          -7.3431   -7.3554    1.2147 N.1     1  LIG1       -0.1907
     34 C          -6.5790   -6.5484    0.9159 C.1     1  LIG1        0.1032
     35 C          -3.7274   -7.2576   -0.2295 C.ar    1  LIG1        0.0864
     36 C          -2.4881   -7.5291   -0.7620 C.ar    1  LIG1        0.0693
     37 C          -2.3668   -8.9499   -0.8082 C.ar    1  LIG1        0.0903
     38 C          -3.5364   -9.4820   -0.3051 C.ar    1  LIG1        0.0215
     39 N          -4.3429   -8.4518    0.0367 N.ar    1  LIG1       -0.3568
     40 H          -5.2723   -8.5411    0.4293 H       1  LIG1        0.1655
     41 H          -3.8298  -10.5086   -0.1733 H       1  LIG1        0.0820
     42 N          -1.5547   -6.5305   -1.1762 N.pl3   1  LIG1       -0.3553
     43 H          -0.6618   -6.6642   -0.7067 H       1  LIG1        0.1424
     44 H          -1.3813   -6.6037   -2.1770 H       1  LIG1        0.1424
     45 N          -0.2787  -10.1946   -1.6749 N.1     1  LIG1       -0.1908
     46 C          -1.2203   -9.6632   -1.2875 C.1     1  LIG1        0.1025
@<TRIPOS>BOND
     1    11    12    3
     2    44    42    1
     3    45    46    3
     4    12     3    1
     5    46    37    1
     6    22    23    3
     7    42    36    1
     8    42    43    1
     9    20    19    1
    10    21    19    1
    11    23    15    1
    12    37    36   ar
    13    37    38   ar
    14    10     8    1
    15    36    35   ar
    16    29    28    1
    17    19    14    1
    18    15    14   ar
    19    15    16   ar
    20    14    13   ar
    21    38    41    1
    22    38    39   ar
    23     3     4   ar
    24     3     2   ar
    25    35    27    1
    26    35    39   ar
    27    28    27   ar
    28    28    24   ar
    29    16    24    1
    30    16    17   ar
    31    27    26   ar
    32    39    40    1
    33    24    25   ar
    34    13    17   ar
    35    13     4    1
    36     8     2    1
    37     8     9    1
    38    17    18    1
    39     4     5   ar
    40    26    25   ar
    41    26    34    1
    42     2     1   ar
    43    31    30    1
    44    25    30    1
    45    34    33    3
    46    30    32    1
    47     5     1   ar
    48     5     6    1
    49     1     7    1
