@<TRIPOS>MOLECULE
mol_data/opt/m06hf/geoms/mol2/13hd13hd13hd.out
 35 37 0 0 0
SMALL
GASTEIGER

@<TRIPOS>ATOM
      1 C           1.0305   -0.0727    1.0926 C.ar    1  LIG1        0.0243
      2 C           0.8975    0.9851    0.2288 C.ar    1  LIG1        0.0604
      3 C          -0.4163    0.8825   -0.3291 C.ar    1  LIG1        0.0990
      4 C          -1.0394   -0.2249    0.2248 C.ar    1  LIG1        0.0842
      5 N          -0.1489   -0.7891    1.0736 N.ar    1  LIG1       -0.3568
      6 H          -0.3790   -1.5352    1.7113 H       1  LIG1        0.1655
      7 H           1.8554   -0.3589    1.7197 H       1  LIG1        0.0826
      8 N           1.8058    2.0098   -0.0427 N.pl3   1  LIG1       -0.3558
      9 H           2.7729    1.7450    0.0842 H       1  LIG1        0.1424
     10 H           1.6608    2.4462   -0.9441 H       1  LIG1        0.1424
     11 N          -1.4880    2.4559   -2.0667 N.1     1  LIG1       -0.1907
     12 C          -0.9996    1.7486   -1.3020 C.1     1  LIG1        0.1032
     13 C          -2.3762   -0.7595    0.0070 C.ar    1  LIG1        0.0869
     14 C          -3.6023   -0.1246   -0.0249 C.ar    1  LIG1        0.0699
     15 C          -4.5753   -1.1588   -0.1974 C.ar    1  LIG1        0.0997
     16 C          -3.9200   -2.3800   -0.2589 C.ar    1  LIG1        0.0846
     17 N          -2.5994   -2.1196   -0.1417 N.ar    1  LIG1       -0.3493
     18 H          -1.8756   -2.8219   -0.1417 H       1  LIG1        0.1661
     19 N          -3.8745    1.2227    0.1458 N.pl3   1  LIG1       -0.3553
     20 H          -3.2363    1.8545   -0.3214 H       1  LIG1        0.1424
     21 H          -4.8405    1.4656   -0.0303 H       1  LIG1        0.1424
     22 N          -7.1291   -0.8552   -0.3703 N.1     1  LIG1       -0.1907
     23 C          -5.9877   -0.9839   -0.3067 C.1     1  LIG1        0.1032
     24 C          -4.4494   -3.7254   -0.4279 C.ar    1  LIG1        0.0864
     25 C          -5.5129   -4.3533    0.1904 C.ar    1  LIG1        0.0693
     26 C          -5.5081   -5.7015   -0.2945 C.ar    1  LIG1        0.0903
     27 C          -4.4615   -5.8383   -1.1832 C.ar    1  LIG1        0.0215
     28 N          -3.8324   -4.6495   -1.2559 N.ar    1  LIG1       -0.3568
     29 H          -3.1198   -4.4149   -1.9295 H       1  LIG1        0.1655
     30 H          -4.1582   -6.6923   -1.7634 H       1  LIG1        0.0820
     31 N          -6.3684   -3.8403    1.1542 N.pl3   1  LIG1       -0.3553
     32 H          -6.7521   -2.9270    0.9411 H       1  LIG1        0.1424
     33 H          -7.0919   -4.4921    1.4301 H       1  LIG1        0.1424
     34 N          -7.2119   -7.4937    0.4406 N.1     1  LIG1       -0.1908
     35 C          -6.4409   -6.7141    0.0976 C.1     1  LIG1        0.1025
@<TRIPOS>BOND
     1    11    12    3
     2    29    28    1
     3    30    27    1
     4    12     3    1
     5    28    27   ar
     6    28    24   ar
     7    27    26   ar
     8    10     8    1
     9    24    16    1
    10    24    25   ar
    11    22    23    3
    12     3     4   ar
    13     3     2   ar
    14    20    19    1
    15    23    15    1
    16    26    35    1
    17    26    25   ar
    18    16    15   ar
    19    16    17   ar
    20    15    14   ar
    21    17    18    1
    22    17    13   ar
    23     8     9    1
    24     8     2    1
    25    21    19    1
    26    14    13   ar
    27    14    19    1
    28    13     4    1
    29    35    34    3
    30    25    31    1
    31     4     5   ar
    32     2     1   ar
    33    32    31    1
    34     5     1   ar
    35     5     6    1
    36     1     7    1
    37    31    33    1
