@<TRIPOS>MOLECULE
mol_data/opt/m06hf/geoms/mol2/13hd13hd-13hd13hd-.out
 46 49 0 0 0
SMALL
GASTEIGER

@<TRIPOS>ATOM
      1 C           1.3091   -0.3141   -0.0337 C.ar    1  LIG1        0.0243
      2 C           0.9368    1.0100   -0.0367 C.ar    1  LIG1        0.0604
      3 C          -0.4917    1.0245   -0.0503 C.ar    1  LIG1        0.0990
      4 C          -0.9254   -0.2968   -0.0537 C.ar    1  LIG1        0.0842
      5 N           0.1676   -1.0791   -0.0438 N.ar    1  LIG1       -0.3568
      6 H           0.0793   -2.0920   -0.0480 H       1  LIG1        0.1655
      7 H           2.2885   -0.7574   -0.0133 H       1  LIG1        0.0826
      8 N           1.7535    2.1441    0.0329 N.pl3   1  LIG1       -0.3558
      9 H           2.6680    2.0068   -0.3762 H       1  LIG1        0.1424
     10 H           1.3117    2.9718   -0.3472 H       1  LIG1        0.1424
     11 N          -2.0625    3.0685   -0.1015 N.1     1  LIG1       -0.1907
     12 C          -1.3454    2.1684   -0.0726 C.1     1  LIG1        0.1032
     13 C          -2.2656   -0.8611   -0.0697 C.ar    1  LIG1        0.0869
     14 C          -2.6402   -2.1874   -0.0937 C.ar    1  LIG1        0.0699
     15 C          -4.0669   -2.2061   -0.0988 C.ar    1  LIG1        0.0997
     16 C          -4.4958   -0.8855   -0.0769 C.ar    1  LIG1        0.0846
     17 N          -3.3977   -0.0986   -0.0604 N.ar    1  LIG1       -0.3493
     18 H          -3.4877    0.9231   -0.0371 H       1  LIG1        0.1661
     19 N          -1.7228   -3.2808   -0.1083 N.pl3   1  LIG1       -0.3553
     20 H          -1.8806   -3.8911    0.6902 H       1  LIG1        0.1424
     21 H          -1.8417   -3.8375   -0.9516 H       1  LIG1        0.1424
     22 N          -5.6332   -4.2547   -0.1399 N.1     1  LIG1       -0.1907
     23 C          -4.9204   -3.3522   -0.1215 C.1     1  LIG1        0.1032
     24 C          -5.8271   -0.3024   -0.0671 C.ar    1  LIG1        0.0869
     25 C          -6.1587    1.0363   -0.0394 C.ar    1  LIG1        0.0699
     26 C          -7.5846    1.0941   -0.0351 C.ar    1  LIG1        0.0997
     27 C          -8.0515   -0.2141   -0.0604 C.ar    1  LIG1        0.0846
     28 N          -6.9789   -1.0342   -0.0804 N.ar    1  LIG1       -0.3493
     29 H          -7.1055   -2.0523   -0.1018 H       1  LIG1        0.1661
     30 N          -5.1900    2.0767   -0.0175 N.pl3   1  LIG1       -0.3553
     31 H          -5.2313    2.6700   -0.8415 H       1  LIG1        0.1424
     32 H          -5.2630    2.6626    0.8095 H       1  LIG1        0.1424
     33 N          -9.1719    3.1240    0.0132 N.1     1  LIG1       -0.1907
     34 C          -8.4300    2.2452   -0.0083 C.1     1  LIG1        0.1032
     35 C          -9.3984   -0.7644   -0.0662 C.ar    1  LIG1        0.0864
     36 C          -9.7597   -2.0922   -0.0922 C.ar    1  LIG1        0.0693
     37 C         -11.1864   -2.1234   -0.0861 C.ar    1  LIG1        0.0903
     38 C         -11.6295   -0.8162   -0.0563 C.ar    1  LIG1        0.0215
     39 N         -10.5420   -0.0118   -0.0444 N.ar    1  LIG1       -0.3568
     40 H         -10.5593    1.0005   -0.0220 H       1  LIG1        0.1655
     41 H         -12.6323   -0.4268   -0.0431 H       1  LIG1        0.0820
     42 N          -8.8180   -3.1604   -0.1190 N.pl3   1  LIG1       -0.3553
     43 H          -8.9061   -3.7644    0.6944 H       1  LIG1        0.1424
     44 H          -8.9201   -3.7353   -0.9515 H       1  LIG1        0.1424
     45 N         -12.5984   -4.2828   -0.1276 N.1     1  LIG1       -0.1908
     46 C         -11.9893   -3.3098   -0.1084 C.1     1  LIG1        0.1025
@<TRIPOS>BOND
     1    21    19    1
     2    44    42    1
     3    31    30    1
     4     9     8    1
     5    10     8    1
     6    22    23    3
     7    45    46    3
     8    23    15    1
     9    42    36    1
    10    42    43    1
    11    46    37    1
    12    19    14    1
    13    19    20    1
    14    29    28    1
    15    11    12    3
    16    15    14   ar
    17    15    16   ar
    18    14    13   ar
    19    36    37   ar
    20    36    35   ar
    21    37    38   ar
    22    28    24   ar
    23    28    27   ar
    24    16    24    1
    25    16    17   ar
    26    12     3    1
    27    13    17   ar
    28    13     4    1
    29    24    25   ar
    30    35    27    1
    31    35    39   ar
    32    17    18    1
    33    27    26   ar
    34    38    39   ar
    35    38    41    1
    36     4     3   ar
    37     4     5   ar
    38     3     2   ar
    39     6     5    1
    40    39    40    1
    41     5     1   ar
    42    25    26   ar
    43    25    30    1
    44     2     1   ar
    45     2     8    1
    46    26    34    1
    47     1     7    1
    48    30    32    1
    49    34    33    3
