@<TRIPOS>MOLECULE
mol_data/opt/m06hf/geoms/mol2/13hd13hd-13hd-13hd.out
 46 49 0 0 0
SMALL
GASTEIGER

@<TRIPOS>ATOM
      1 C           1.1657   -0.0753   -0.3066 C.ar    1  LIG1        0.0243
      2 C           0.6790    1.1992   -0.4772 C.ar    1  LIG1        0.0604
      3 C          -0.7445    1.0958   -0.4013 C.ar    1  LIG1        0.0990
      4 C          -1.0586   -0.2444   -0.1905 C.ar    1  LIG1        0.0842
      5 N           0.0971   -0.9247   -0.1341 N.ar    1  LIG1       -0.3568
      6 H           0.1019   -1.9257    0.0403 H       1  LIG1        0.1655
      7 H           2.1805   -0.4296   -0.2846 H       1  LIG1        0.0826
      8 N           1.3917    2.3937   -0.6178 N.pl3   1  LIG1       -0.3558
      9 H           2.3312    2.2637   -0.9679 H       1  LIG1        0.1424
     10 H           0.8989    3.0914   -1.1608 H       1  LIG1        0.1424
     11 N          -2.5656    2.9125   -0.5632 N.1     1  LIG1       -0.1907
     12 C          -1.7171    2.1363   -0.4936 C.1     1  LIG1        0.1032
     13 C          -2.3478   -0.8964   -0.0357 C.ar    1  LIG1        0.0869
     14 C          -2.6380   -2.2011    0.2765 C.ar    1  LIG1        0.0699
     15 C          -4.0648   -2.2991    0.3378 C.ar    1  LIG1        0.0997
     16 C          -4.5878   -1.0473    0.0432 C.ar    1  LIG1        0.0846
     17 N          -3.5315   -0.2235   -0.1773 N.ar    1  LIG1       -0.3493
     18 H          -3.6100    0.7352   -0.4935 H       1  LIG1        0.1661
     19 N          -1.6485   -3.2036    0.4992 N.pl3   1  LIG1       -0.3553
     20 H          -1.6850   -3.5395    1.4591 H       1  LIG1        0.1424
     21 H          -1.8059   -4.0021   -0.1112 H       1  LIG1        0.1424
     22 N          -5.4355   -4.3857    0.9780 N.1     1  LIG1       -0.1907
     23 C          -4.8179   -3.4571    0.6960 C.1     1  LIG1        0.1032
     24 C          -5.9349   -0.5176   -0.0488 C.ar    1  LIG1        0.0869
     25 C          -7.1349   -1.0628   -0.4801 C.ar    1  LIG1        0.0699
     26 C          -8.0597    0.0273   -0.5343 C.ar    1  LIG1        0.0997
     27 C          -7.3878    1.1820   -0.1453 C.ar    1  LIG1        0.0846
     28 N          -6.1276    0.8361    0.1486 N.ar    1  LIG1       -0.3493
     29 H          -5.4929    1.5306    0.5536 H       1  LIG1        0.1661
     30 N          -7.3945   -2.3561   -0.8950 N.pl3   1  LIG1       -0.3553
     31 H          -8.3691   -2.5377   -1.0918 H       1  LIG1        0.1424
     32 H          -6.9644   -3.0951   -0.3541 H       1  LIG1        0.1424
     33 N         -10.5421    0.0292   -1.2223 N.1     1  LIG1       -0.1907
     34 C          -9.4313   -0.0071   -0.9229 C.1     1  LIG1        0.1032
     35 C          -7.8090    2.5665   -0.0134 C.ar    1  LIG1        0.0864
     36 C          -7.0306    3.6426    0.3518 C.ar    1  LIG1        0.0693
     37 C          -7.8906    4.7810    0.3456 C.ar    1  LIG1        0.0903
     38 C          -9.1493    4.3498   -0.0243 C.ar    1  LIG1        0.0215
     39 N          -9.0815    3.0171   -0.2419 N.ar    1  LIG1       -0.3568
     40 H          -9.8517    2.4284   -0.5332 H       1  LIG1        0.1655
     41 H         -10.0621    4.9066   -0.1454 H       1  LIG1        0.0820
     42 N          -5.6443    3.5489    0.6685 N.pl3   1  LIG1       -0.3553
     43 H          -5.0471    3.8648   -0.0947 H       1  LIG1        0.1424
     44 H          -5.4165    4.0983    1.4928 H       1  LIG1        0.1424
     45 N          -7.1479    7.1795    0.9407 N.1     1  LIG1       -0.1908
     46 C          -7.4976    6.1195    0.6722 C.1     1  LIG1        0.1025
@<TRIPOS>BOND
     1    33    34    3
     2    10     8    1
     3    31    30    1
     4     9     8    1
     5    34    26    1
     6    30    25    1
     7    30    32    1
     8     8     2    1
     9    11    12    3
    10    26    25   ar
    11    26    27   ar
    12    40    39    1
    13    12     3    1
    14    18    17    1
    15    25    24   ar
    16     2     3   ar
    17     2     1   ar
    18     3     4   ar
    19     1     7    1
    20     1     5   ar
    21    39    38   ar
    22    39    35   ar
    23     4     5   ar
    24     4    13    1
    25    17    13   ar
    26    17    16   ar
    27    41    38    1
    28    27    35    1
    29    27    28   ar
    30     5     6    1
    31    21    19    1
    32    43    42    1
    33    24    16    1
    34    24    28   ar
    35    13    14   ar
    36    38    37   ar
    37    35    36   ar
    38    16    15   ar
    39    28    29    1
    40    14    15   ar
    41    14    19    1
    42    15    23    1
    43    37    36   ar
    44    37    46    1
    45    36    42    1
    46    19    20    1
    47    42    44    1
    48    46    45    3
    49    23    22    3
