@<TRIPOS>MOLECULE
mol_data/opt/m06hf/geoms/mol2/13hd13hd-.out
 24 25 0 0 0
SMALL
GASTEIGER

@<TRIPOS>ATOM
      1 C           1.1862   -0.3133   -0.0785 C.ar    1  LIG1        0.0243
      2 C           0.8381    1.0161   -0.0265 C.ar    1  LIG1        0.0604
      3 C          -0.5894    1.0534   -0.0050 C.ar    1  LIG1        0.0990
      4 C          -1.0475   -0.2588   -0.0445 C.ar    1  LIG1        0.0841
      5 N           0.0315   -1.0588   -0.0866 N.ar    1  LIG1       -0.3568
      6 H          -0.0762   -2.0699   -0.1221 H       1  LIG1        0.1655
      7 H           2.1573   -0.7735   -0.0986 H       1  LIG1        0.0826
      8 N           1.6749    2.1335    0.0642 N.pl3   1  LIG1       -0.3558
      9 H           2.5950    1.9783   -0.3253 H       1  LIG1        0.1424
     10 H           1.2599    2.9736   -0.3185 H       1  LIG1        0.1424
     11 N          -2.1776    3.0809    0.0670 N.1     1  LIG1       -0.1907
     12 C          -1.4380    2.1990    0.0403 C.1     1  LIG1        0.1032
     13 C          -2.3972   -0.8055   -0.0497 C.ar    1  LIG1        0.0864
     14 C          -2.7840   -2.1246   -0.0952 C.ar    1  LIG1        0.0693
     15 C          -4.2116   -2.1329   -0.0779 C.ar    1  LIG1        0.0903
     16 C          -4.6328   -0.8204   -0.0223 C.ar    1  LIG1        0.0215
     17 N          -3.5301   -0.0365   -0.0062 N.ar    1  LIG1       -0.3568
     18 H          -3.5310    0.9757    0.0334 H       1  LIG1        0.1655
     19 H          -5.6275   -0.4124    0.0060 H       1  LIG1        0.0820
     20 N          -1.8770   -3.2260   -0.1472 N.pl3   1  LIG1       -0.3553
     21 H          -2.0118   -3.8364    0.6556 H       1  LIG1        0.1424
     22 H          -2.0387   -3.7816   -0.9841 H       1  LIG1        0.1424
     23 N          -5.6414   -4.2805   -0.1424 N.1     1  LIG1       -0.1908
     24 C          -5.0273   -3.3103   -0.1129 C.1     1  LIG1        0.1025
@<TRIPOS>BOND
     1    22    20    1
     2     9     8    1
     3    10     8    1
     4    20    14    1
     5    20    21    1
     6    23    24    3
     7     6     5    1
     8    24    15    1
     9     7     1    1
    10    14    15   ar
    11    14    13   ar
    12     5     1   ar
    13     5     4   ar
    14     1     2   ar
    15    15    16   ar
    16    13     4    1
    17    13    17   ar
    18     4     3   ar
    19     2     3   ar
    20     2     8    1
    21    16    17   ar
    22    16    19    1
    23    17    18    1
    24     3    12    1
    25    12    11    3
