@<TRIPOS>MOLECULE
mol_data/opt/m06hf/geoms/mol2/13he13he13he-13he-.out
 50 53 0 0 0
SMALL
GASTEIGER

@<TRIPOS>ATOM
      1 C           1.1572   -0.0871    0.9449 C.ar    1  LIG1        0.0243
      2 C           0.8924    1.0679    0.2554 C.ar    1  LIG1        0.0584
      3 C          -0.4858    1.0129   -0.1346 C.ar    1  LIG1        0.0720
      4 C          -1.0103   -0.1764    0.3496 C.ar    1  LIG1        0.0821
      5 N          -0.0039   -0.8291    0.9828 N.ar    1  LIG1       -0.3569
      6 H          -0.1383   -1.6720    1.5178 H       1  LIG1        0.1655
      7 H           2.0634   -0.4281    1.4116 H       1  LIG1        0.0826
      8 N           1.7610    2.1391   -0.0094 N.pl3   1  LIG1       -0.3559
      9 H           2.6829    1.8401   -0.2995 H       1  LIG1        0.1424
     10 H           1.3662    2.7766   -0.6910 H       1  LIG1        0.1424
     11 C          -1.1678    1.9905   -0.9212 C.1     1  LIG1       -0.0656
     12 C          -1.7259    2.8310   -1.5806 C.1     1  LIG1       -0.1138
     13 H          -2.2142    3.5627   -2.1814 H       1  LIG1        0.1232
     14 C          -2.3559   -0.7253    0.2616 C.ar    1  LIG1        0.0868
     15 C          -3.5826   -0.1151    0.4468 C.ar    1  LIG1        0.0679
     16 C          -4.5728   -1.1396    0.3178 C.ar    1  LIG1        0.0727
     17 C          -3.9015   -2.3317    0.0665 C.ar    1  LIG1        0.0826
     18 N          -2.5812   -2.0685    0.0366 N.ar    1  LIG1       -0.3493
     19 H          -1.9118   -2.7876   -0.2262 H       1  LIG1        0.1661
     20 N          -3.8353    1.2088    0.7903 N.pl3   1  LIG1       -0.3553
     21 H          -3.2117    1.8737    0.3480 H       1  LIG1        0.1424
     22 H          -4.8072    1.4616    0.6676 H       1  LIG1        0.1424
     23 C          -5.9863   -0.9693    0.4406 C.1     1  LIG1       -0.0656
     24 C          -7.1776   -0.8131    0.5480 C.1     1  LIG1       -0.1138
     25 H          -8.2243   -0.6502    0.6622 H       1  LIG1        0.1232
     26 C          -4.4025   -3.6735   -0.1726 C.ar    1  LIG1        0.0868
     27 C          -3.7065   -4.8197   -0.4774 C.ar    1  LIG1        0.0679
     28 C          -4.6665   -5.8691   -0.6202 C.ar    1  LIG1        0.0727
     29 C          -5.9167   -5.3166   -0.3809 C.ar    1  LIG1        0.0826
     30 N          -5.7314   -3.9929   -0.1175 N.ar    1  LIG1       -0.3493
     31 H          -6.4487   -3.3456    0.1860 H       1  LIG1        0.1661
     32 N          -2.2864   -4.8794   -0.6317 N.pl3   1  LIG1       -0.3553
     33 H          -1.8978   -5.5656    0.0115 H       1  LIG1        0.1424
     34 H          -2.0516   -5.1880   -1.5729 H       1  LIG1        0.1424
     35 C          -4.3819   -7.2209   -0.9879 C.1     1  LIG1       -0.0656
     36 C          -4.1244   -8.3575   -1.2932 C.1     1  LIG1       -0.1138
     37 H          -3.8967   -9.3565   -1.5867 H       1  LIG1        0.1232
     38 C          -7.2365   -5.9286   -0.3771 C.ar    1  LIG1        0.0863
     39 C          -7.6675   -7.1233    0.1605 C.ar    1  LIG1        0.0672
     40 C          -9.0821   -7.1877   -0.0656 C.ar    1  LIG1        0.0632
     41 C          -9.4500   -6.0324   -0.7261 C.ar    1  LIG1        0.0195
     42 N          -8.3417   -5.2822   -0.9052 N.ar    1  LIG1       -0.3569
     43 H          -8.2900   -4.4400   -1.4557 H       1  LIG1        0.1655
     44 H         -10.4178   -5.7241   -1.0802 H       1  LIG1        0.0820
     45 N          -6.9254   -8.0602    0.8717 N.pl3   1  LIG1       -0.3553
     46 H          -7.4477   -8.9109    1.0398 H       1  LIG1        0.1424
     47 H          -6.0093   -8.2444    0.4810 H       1  LIG1        0.1424
     48 C          -9.9241   -8.2707    0.3409 C.1     1  LIG1       -0.0663
     49 C         -10.5918   -9.2056    0.6979 C.1     1  LIG1       -0.1138
     50 H         -11.1918  -10.0266    1.0143 H       1  LIG1        0.1232
@<TRIPOS>BOND
     1    13    12    1
     2    37    36    1
     3    12    11    3
     4    34    32    1
     5    43    42    1
     6    36    35    3
     7    44    41    1
     8    35    28    1
     9    11     3    1
    10    42    41   ar
    11    42    38   ar
    12    41    40   ar
    13    10     8    1
    14    32    27    1
    15    32    33    1
    16    28    27   ar
    17    28    29   ar
    18    27    26   ar
    19    29    38    1
    20    29    30   ar
    21    38    39   ar
    22     9     8    1
    23    19    18    1
    24    26    30   ar
    25    26    17    1
    26     3     2   ar
    27     3     4   ar
    28    30    31    1
    29    40    39   ar
    30    40    48    1
    31     8     2    1
    32    18    17   ar
    33    18    14   ar
    34    17    16   ar
    35    39    45    1
    36     2     1   ar
    37    14     4    1
    38    14    15   ar
    39    16    23    1
    40    16    15   ar
    41    48    49    3
    42    21    20    1
    43     4     5   ar
    44    23    24    3
    45    15    20    1
    46    47    45    1
    47    24    25    1
    48    22    20    1
    49    49    50    1
    50    45    46    1
    51     1     5   ar
    52     1     7    1
    53     5     6    1
