@<TRIPOS>MOLECULE
mol_data/opt/m06hf/geoms/mol2/13he13he-4he13he.out
 52 55 0 0 0
SMALL
GASTEIGER

@<TRIPOS>ATOM
      1 C           1.3582   -0.4407    0.1719 C.ar    1  LIG1        0.0243
      2 C           0.9984    0.8536    0.4509 C.ar    1  LIG1        0.0584
      3 C          -0.4329    0.9099    0.3790 C.ar    1  LIG1        0.0720
      4 C          -0.8690   -0.3660    0.0588 C.ar    1  LIG1        0.0821
      5 N           0.2222   -1.1624   -0.0608 N.ar    1  LIG1       -0.3569
      6 H           0.1230   -2.1417   -0.3128 H       1  LIG1        0.1655
      7 H           2.3408   -0.8762    0.1278 H       1  LIG1        0.0826
      8 N           1.9065    1.9083    0.7495 N.pl3   1  LIG1       -0.3559
      9 H           1.7912    2.6713    0.0883 H       1  LIG1        0.1424
     10 H           1.7229    2.2806    1.6771 H       1  LIG1        0.1424
     11 C          -1.2736    2.0498    0.5803 C.1     1  LIG1       -0.0656
     12 C          -2.0066    2.9929    0.7426 C.1     1  LIG1       -0.1138
     13 H          -2.6542    3.8249    0.8951 H       1  LIG1        0.1232
     14 C          -2.2090   -0.8880   -0.1536 C.ar    1  LIG1        0.0867
     15 C          -2.6035   -2.1487   -0.5405 C.ar    1  LIG1        0.0679
     16 C          -4.0280   -2.1352   -0.6320 C.ar    1  LIG1        0.0712
     17 C          -4.4497   -0.8553   -0.2895 C.ar    1  LIG1        0.0662
     18 N          -3.3316   -0.1260   -0.0106 N.ar    1  LIG1       -0.3505
     19 H          -3.3362    0.8369    0.3148 H       1  LIG1        0.1660
     20 N          -1.7025   -3.2275   -0.8015 N.pl3   1  LIG1       -0.3553
     21 H          -1.9446   -4.0267   -0.2197 H       1  LIG1        0.1424
     22 H          -1.7925   -3.5299   -1.7691 H       1  LIG1        0.1424
     23 C          -4.8280   -3.2516   -1.0331 C.1     1  LIG1       -0.0657
     24 C          -5.4670   -4.2132   -1.3718 C.1     1  LIG1       -0.1138
     25 H          -6.0436   -5.0550   -1.6767 H       1  LIG1        0.1232
     26 C          -6.0739    1.0614   -0.4630 C.ar    1  LIG1        0.0345
     27 C          -7.3662    1.5554   -0.2926 C.ar    1  LIG1       -0.0301
     28 C          -5.8067   -0.2933   -0.1735 C.ar    1  LIG1        0.0214
     29 C          -8.4189    0.7419    0.1303 C.ar    1  LIG1        0.0173
     30 H          -7.5718    2.6024   -0.4878 H       1  LIG1        0.0643
     31 C          -6.8528   -1.1042    0.2524 C.ar    1  LIG1       -0.0348
     32 C          -8.1518   -0.6150    0.4001 C.ar    1  LIG1        0.0346
     33 H          -6.6552   -2.1434    0.4798 H       1  LIG1        0.0637
     34 N          -5.0443    1.9206   -0.8603 N.pl3   1  LIG1       -0.3574
     35 H          -4.3609    1.5033   -1.4826 H       1  LIG1        0.1423
     36 H          -5.3675    2.8164   -1.1994 H       1  LIG1        0.1423
     37 C          -9.1717   -1.5438    0.8300 C.1     1  LIG1       -0.0690
     38 C          -9.9908   -2.3457    1.1986 C.1     1  LIG1       -0.1139
     39 H         -10.7082   -3.0723    1.5030 H       1  LIG1        0.1232
     40 C          -9.7463    1.3575    0.2769 C.ar    1  LIG1        0.0699
     41 C         -10.2641    2.4838   -0.3375 C.ar    1  LIG1        0.0658
     42 C         -11.5671    2.7001    0.2012 C.ar    1  LIG1        0.0632
     43 C         -11.7954    1.6959    1.1247 C.ar    1  LIG1        0.0195
     44 N         -10.7089    0.9018    1.1517 N.ar    1  LIG1       -0.3580
     45 H         -10.6074    0.0553    1.6929 H       1  LIG1        0.1654
     46 H         -12.6596    1.5095    1.7374 H       1  LIG1        0.0820
     47 N          -9.6420    3.3005   -1.3037 N.pl3   1  LIG1       -0.3554
     48 H          -9.3274    2.7611   -2.1051 H       1  LIG1        0.1424
     49 H         -10.2833    4.0245   -1.6121 H       1  LIG1        0.1424
     50 C         -12.4457    3.7613   -0.1850 C.1     1  LIG1       -0.0663
     51 C         -13.1518    4.6663   -0.5461 C.1     1  LIG1       -0.1138
     52 H         -13.7873    5.4634   -0.8540 H       1  LIG1        0.1232
@<TRIPOS>BOND
     1    48    47    1
     2    22    20    1
     3    25    24    1
     4    49    47    1
     5    35    34    1
     6    24    23    3
     7    47    41    1
     8    36    34    1
     9    23    16    1
    10    34    26    1
    11    52    51    1
    12    20    15    1
    13    20    21    1
    14    16    15   ar
    15    16    17   ar
    16    51    50    3
    17    15    14   ar
    18    30    27    1
    19    26    27   ar
    20    26    28   ar
    21    41    42   ar
    22    41    40   ar
    23     6     5    1
    24    27    29   ar
    25    17    28    1
    26    17    18   ar
    27    50    42    1
    28    28    31   ar
    29    14    18   ar
    30    14     4    1
    31     5     4   ar
    32     5     1   ar
    33    18    19    1
    34     4     3   ar
    35     9     8    1
    36     7     1    1
    37    29    40    1
    38    29    32   ar
    39     1     2   ar
    40    42    43   ar
    41    31    32   ar
    42    31    33    1
    43    40    44   ar
    44     3     2   ar
    45     3    11    1
    46    32    37    1
    47     2     8    1
    48    11    12    3
    49    12    13    1
    50     8    10    1
    51    37    38    3
    52    43    44   ar
    53    43    46    1
    54    44    45    1
    55    38    39    1
