@<TRIPOS>MOLECULE
mol_data/opt/m06hf/geoms/mol2/13he4la4fh12fh.out
 52 55 0 0 0
SMALL
GASTEIGER

@<TRIPOS>ATOM
      1 C           1.1304    0.1827    0.7022 C.ar    1  LIG1        0.0444
      2 C           0.4840    1.3340    1.0712 C.ar    1  LIG1        0.1376
      3 C          -0.9033    1.1976    0.7753 C.ar    1  LIG1        0.0177
      4 C          -1.0486   -0.0584    0.2188 C.ar    1  LIG1        0.0713
      5 N           0.1798   -0.6590    0.1844 N.ar    1  LIG1       -0.3562
      6 H           0.3621   -1.5384   -0.2703 H       1  LIG1        0.1655
      7 H           2.1696   -0.0833    0.7690 H       1  LIG1        0.0844
      8 O           1.0966    2.4211    1.6290 O.3     1  LIG1       -0.5050
      9 H           0.4273    3.0200    1.9742 H       1  LIG1        0.2922
     10 C          -1.9857    2.2061    1.0736 C.3     1  LIG1       -0.0342
     11 H          -2.9376    1.8625    0.6688 H       1  LIG1        0.0279
     12 H          -1.7533    3.1698    0.6128 H       1  LIG1        0.0279
     13 H          -2.0932    2.3541    2.1514 H       1  LIG1        0.0279
     14 C          -2.2423   -0.7356   -0.2801 C.ar    1  LIG1        0.0883
     15 C          -3.2389   -0.2685   -1.1110 C.ar    1  LIG1        0.0943
     16 C          -4.1515   -1.3411   -1.2904 C.ar    1  LIG1        0.1636
     17 C          -3.6971   -2.4291   -0.5767 C.ar    1  LIG1        0.0924
     18 N          -2.5155   -2.0551    0.0085 N.ar    1  LIG1       -0.3486
     19 H          -2.0850   -2.5523    0.7732 H       1  LIG1        0.1661
     20 N          -3.3735    1.0119   -1.6675 N.pl3   1  LIG1       -0.3534
     21 H          -2.4783    1.4258   -1.9040 H       1  LIG1        0.1425
     22 H          -3.9986    1.0009   -2.4652 H       1  LIG1        0.1425
     23 O          -5.2663   -1.2566   -2.0880 O.3     1  LIG1       -0.5031
     24 H          -5.2895   -2.0110   -2.6893 H       1  LIG1        0.2923
     25 C          -3.4758   -4.9021   -0.2841 C.ar    1  LIG1        0.0376
     26 C          -4.2780   -3.7681   -0.4448 C.ar    1  LIG1        0.0212
     27 C          -5.6586   -3.9625   -0.4961 C.ar    1  LIG1       -0.0336
     28 C          -6.1732   -5.2497   -0.3566 C.ar    1  LIG1        0.0513
     29 C          -5.2771   -6.3124   -0.1351 C.ar    1  LIG1        0.0876
     30 N          -3.9594   -6.1278   -0.1255 N.ar    1  LIG1       -0.2531
     31 H          -6.3257   -3.1216   -0.6390 H       1  LIG1        0.0637
     32 H          -2.3951   -4.8126   -0.2974 H       1  LIG1        0.0836
     33 C          -7.5931   -5.4685   -0.4808 C.1     1  LIG1       -0.0675
     34 C          -8.7774   -5.6204   -0.6144 C.1     1  LIG1       -0.1138
     35 H          -9.8275   -5.7683   -0.7199 H       1  LIG1        0.1232
     36 C          -6.6157   -8.0680    1.1077 C.ar    1  LIG1        0.0341
     37 C          -7.0085   -9.3982    1.2422 C.ar    1  LIG1       -0.0422
     38 C          -5.7512   -7.7177    0.0541 C.ar    1  LIG1        0.0204
     39 C          -6.5603  -10.3786    0.3615 C.ar    1  LIG1       -0.0188
     40 H          -7.6662   -9.6663    2.0577 H       1  LIG1        0.0631
     41 C          -5.2839   -8.6933   -0.8104 C.ar    1  LIG1       -0.0096
     42 C          -5.6882  -10.0238   -0.6673 C.ar    1  LIG1        0.1208
     43 H          -4.5972   -8.4402   -1.6066 H       1  LIG1        0.0661
     44 H          -6.8860  -11.3999    0.4956 H       1  LIG1        0.0654
     45 C          -7.0566   -7.0958    2.0795 C.1     1  LIG1       -0.0690
     46 C          -7.4225   -6.3069    2.9096 C.1     1  LIG1       -0.1139
     47 H          -7.7475   -5.5976    3.6350 H       1  LIG1        0.1232
     48 O          -5.1818  -10.8959   -1.5719 O.3     1  LIG1       -0.4951
     49 C          -5.5434  -12.2586   -1.4572 C.3     1  LIG1        0.0788
     50 H          -5.0239  -12.7725   -2.2611 H       1  LIG1        0.0660
     51 H          -5.2255  -12.6629   -0.4928 H       1  LIG1        0.0660
     52 H          -6.6226  -12.3832   -1.5760 H       1  LIG1        0.0660
@<TRIPOS>BOND
     1    24    23    1
     2    22    20    1
     3    50    49    1
     4    23    16    1
     5    21    20    1
     6    20    15    1
     7    43    41    1
     8    52    49    1
     9    48    49    1
    10    48    42    1
    11    49    51    1
    12    16    15   ar
    13    16    17   ar
    14    15    14   ar
    15    41    42   ar
    16    41    38   ar
    17    35    34    1
    18    42    39   ar
    19    31    27    1
    20    34    33    3
    21    17    26    1
    22    17    18   ar
    23    27    26   ar
    24    27    28   ar
    25    33    28    1
    26    26    25   ar
    27    28    29   ar
    28    32    25    1
    29    25    30   ar
    30    14    18   ar
    31    14     4    1
    32     6     5    1
    33    29    30   ar
    34    29    38    1
    35    18    19    1
    36    38    36   ar
    37     5     4   ar
    38     5     1   ar
    39     4     3   ar
    40    39    44    1
    41    39    37   ar
    42    12    10    1
    43    11    10    1
    44     1     7    1
    45     1     2   ar
    46     3     2   ar
    47     3    10    1
    48     2     8    1
    49    10    13    1
    50    36    37   ar
    51    36    45    1
    52    37    40    1
    53     8     9    1
    54    45    46    3
    55    46    47    1
