@<TRIPOS>MOLECULE
mol_data/opt/m06hf/geoms/mol2/13he12hl-4af-12da.out
 46 49 0 0 0
SMALL
GASTEIGER

@<TRIPOS>ATOM
      1 C           1.2205    0.0893    0.5318 C.ar    1  LIG1        0.0243
      2 C           0.8827    1.2720   -0.0761 C.ar    1  LIG1        0.0584
      3 C          -0.5095    1.1899   -0.4039 C.ar    1  LIG1        0.0736
      4 C          -0.9639   -0.0476    0.0352 C.ar    1  LIG1        0.1015
      5 N           0.0909   -0.6933    0.5835 N.ar    1  LIG1       -0.3556
      6 H           0.0229   -1.6110    0.9932 H       1  LIG1        0.1655
      7 H           2.1607   -0.2430    0.9333 H       1  LIG1        0.0826
      8 N           1.7011    2.3870   -0.3158 N.pl3   1  LIG1       -0.3559
      9 H           2.6095    2.1394   -0.6868 H       1  LIG1        0.1424
     10 H           1.2439    3.0577   -0.9223 H       1  LIG1        0.1424
     11 C          -1.2410    2.1864   -1.1187 C.1     1  LIG1       -0.0656
     12 C          -1.8229    3.0485   -1.7288 C.1     1  LIG1       -0.1138
     13 H          -2.3328    3.8008   -2.2855 H       1  LIG1        0.1232
     14 C          -2.2759   -0.6669   -0.0103 C.ar    1  LIG1        0.1773
     15 C          -3.5501   -0.1819   -0.0036 C.ar    1  LIG1        0.1155
     16 C          -4.3942   -1.3487   -0.0129 C.ar    1  LIG1        0.1870
     17 C          -3.5874   -2.4449   -0.0121 C.ar    1  LIG1        0.1792
     18 O          -2.2968   -2.0366   -0.0076 O.2     1  LIG1       -0.4476
     19 N          -4.0531    1.1094    0.0954 N.pl3   1  LIG1       -0.3521
     20 H          -3.3972    1.8321   -0.1782 H       1  LIG1        0.1425
     21 H          -4.9352    1.2002   -0.3956 H       1  LIG1        0.1425
     22 O          -5.7535   -1.3015   -0.0001 O.3     1  LIG1       -0.4896
     23 C          -6.2773   -1.0437    1.3111 C.3     1  LIG1        0.0791
     24 H          -7.3552   -0.9623    1.1965 H       1  LIG1        0.0660
     25 H          -6.0264   -1.8736    1.9735 H       1  LIG1        0.0660
     26 H          -5.8597   -0.1134    1.6995 H       1  LIG1        0.0660
     27 C          -5.1857   -4.3421   -0.1184 C.ar    1  LIG1       -0.0501
     28 C          -5.4278   -5.7066   -0.1012 C.ar    1  LIG1       -0.0469
     29 C          -3.8685   -3.8811   -0.0223 C.ar    1  LIG1        0.0245
     30 C          -4.3831   -6.6309   -0.0060 C.ar    1  LIG1        0.0599
     31 H          -6.4453   -6.0710   -0.1628 H       1  LIG1        0.0626
     32 C          -2.8141   -4.7900    0.0658 C.ar    1  LIG1       -0.0087
     33 C          -3.0651   -6.1576    0.0653 C.ar    1  LIG1        0.1282
     34 H          -1.7951   -4.4255    0.1212 H       1  LIG1        0.0661
     35 H          -5.9964   -3.6328   -0.2126 H       1  LIG1        0.0625
     36 O          -2.0580   -7.0646    0.1209 O.3     1  LIG1       -0.5060
     37 H          -1.2055   -6.6190    0.0832 H       1  LIG1        0.2922
     38 C          -4.6813   -8.0703   -0.0124 C.ar    1  LIG1        0.1556
     39 C          -5.6415   -8.7985   -0.6645 C.ar    1  LIG1        0.0975
     40 C          -5.4774  -10.1684   -0.2548 C.ar    1  LIG1       -0.0058
     41 C          -4.4347  -10.1547    0.6051 C.ar    1  LIG1        0.0939
     42 O          -3.9603   -8.8999    0.7539 O.2     1  LIG1       -0.4615
     43 H          -3.9331  -10.9229    1.1657 H       1  LIG1        0.1030
     44 N          -7.4002   -7.8893   -2.3218 N.1     1  LIG1       -0.1907
     45 C          -6.6098   -8.2882   -1.5905 C.1     1  LIG1        0.1030
     46 H          -6.0600  -11.0126   -0.5784 H       1  LIG1        0.0662
@<TRIPOS>BOND
     1    44    45    3
     2    13    12    1
     3    12    11    3
     4    45    39    1
     5    11     3    1
     6    10     8    1
     7     9     8    1
     8    39    40   ar
     9    39    38   ar
    10    46    40    1
    11     3     2   ar
    12     3     4   ar
    13    21    19    1
    14     8     2    1
    15    40    41   ar
    16    35    27    1
    17    20    19    1
    18    31    28    1
    19    27    28   ar
    20    27    29   ar
    21    28    30   ar
    22     2     1   ar
    23    29    17    1
    24    29    32   ar
    25    16    17   ar
    26    16    15   ar
    27    16    22    1
    28    38    30    1
    29    38    42   ar
    30    17    18   ar
    31    14    18   ar
    32    14    15   ar
    33    14     4    1
    34    30    33   ar
    35    15    19    1
    36    22    23    1
    37     4     5   ar
    38    33    32   ar
    39    33    36    1
    40    32    34    1
    41    37    36    1
    42     1     5   ar
    43     1     7    1
    44     5     6    1
    45    41    42   ar
    46    41    43    1
    47    24    23    1
    48    23    26    1
    49    23    25    1
