@<TRIPOS>MOLECULE
mol_data/opt/m06hf/geoms/mol2/13he13he-13he-13he.out
 50 53 0 0 0
SMALL
GASTEIGER

@<TRIPOS>ATOM
      1 C           1.3119   -0.4001    0.1295 C.ar    1  LIG1        0.0243
      2 C           0.9416    0.8370    0.6006 C.ar    1  LIG1        0.0584
      3 C          -0.4886    0.8734    0.5880 C.ar    1  LIG1        0.0720
      4 C          -0.9216   -0.3571    0.1070 C.ar    1  LIG1        0.0821
      5 N           0.1698   -1.0994   -0.1700 N.ar    1  LIG1       -0.3569
      6 H           0.0755   -2.0405   -0.5402 H       1  LIG1        0.1655
      7 H           2.2903   -0.8258   -0.0015 H       1  LIG1        0.0826
      8 N           1.7800    1.8701    1.0611 N.pl3   1  LIG1       -0.3559
      9 H           2.5255    2.0855    0.4107 H       1  LIG1        0.1424
     10 H           1.2480    2.7084    1.2646 H       1  LIG1        0.1424
     11 C          -1.3151    1.9652    0.9970 C.1     1  LIG1       -0.0656
     12 C          -2.0076    2.8892    1.3453 C.1     1  LIG1       -0.1138
     13 H          -2.6067    3.7064    1.6738 H       1  LIG1        0.1232
     14 C          -2.2608   -0.8740   -0.1179 C.ar    1  LIG1        0.0868
     15 C          -2.6515   -2.1037   -0.5929 C.ar    1  LIG1        0.0679
     16 C          -4.0808   -2.1034   -0.6367 C.ar    1  LIG1        0.0727
     17 C          -4.5047   -0.8670   -0.1683 C.ar    1  LIG1        0.0826
     18 N          -3.3899   -0.1457    0.1349 N.ar    1  LIG1       -0.3493
     19 H          -3.3807    0.7682    0.5696 H       1  LIG1        0.1661
     20 N          -1.7458   -3.1420   -0.9734 N.pl3   1  LIG1       -0.3553
     21 H          -1.9030   -3.9672   -0.3986 H       1  LIG1        0.1424
     22 H          -1.9157   -3.4154   -1.9388 H       1  LIG1        0.1424
     23 C          -4.9020   -3.1641   -1.1283 C.1     1  LIG1       -0.0656
     24 C          -5.5810   -4.0689   -1.5428 C.1     1  LIG1       -0.1138
     25 H          -6.1795   -4.8587   -1.9333 H       1  LIG1        0.1232
     26 C          -5.8406   -0.3212    0.0099 C.ar    1  LIG1        0.0868
     27 C          -6.9919   -0.9061    0.5057 C.ar    1  LIG1        0.0679
     28 C          -7.9901    0.1175    0.5327 C.ar    1  LIG1        0.0727
     29 C          -7.3983    1.2842    0.0592 C.ar    1  LIG1        0.0826
     30 N          -6.1180    1.0062   -0.2490 N.ar    1  LIG1       -0.3493
     31 H          -5.5192    1.7063   -0.6813 H       1  LIG1        0.1661
     32 N          -7.1561   -2.2000    0.9885 N.pl3   1  LIG1       -0.3553
     33 H          -8.1291   -2.4362    1.1344 H       1  LIG1        0.1424
     34 H          -6.6676   -2.9068    0.4517 H       1  LIG1        0.1424
     35 C          -9.3403   -0.0311    0.9748 C.1     1  LIG1       -0.0656
     36 C         -10.4789   -0.1651    1.3488 C.1     1  LIG1       -0.1138
     37 H         -11.4795   -0.3014    1.6876 H       1  LIG1        0.1232
     38 C          -7.9435    2.6154   -0.1468 C.ar    1  LIG1        0.0863
     39 C          -7.3301    3.7322   -0.6669 C.ar    1  LIG1        0.0672
     40 C          -8.2961    4.7858   -0.6552 C.ar    1  LIG1        0.0632
     41 C          -9.4573    4.2580   -0.1265 C.ar    1  LIG1        0.0195
     42 N          -9.2284    2.9548    0.1725 N.ar    1  LIG1       -0.3569
     43 H          -9.8900    2.3015    0.5707 H       1  LIG1        0.1655
     44 H         -10.4091    4.7270    0.0498 H       1  LIG1        0.0820
     45 N          -5.9755    3.7631   -1.1226 N.pl3   1  LIG1       -0.3553
     46 H          -5.9468    4.0048   -2.1108 H       1  LIG1        0.1424
     47 H          -5.4572    4.4856   -0.6280 H       1  LIG1        0.1424
     48 C          -8.0703    6.1241   -1.1121 C.1     1  LIG1       -0.0663
     49 C          -7.8474    7.2387   -1.5044 C.1     1  LIG1       -0.1138
     50 H          -7.6610    8.2280   -1.8518 H       1  LIG1        0.1232
@<TRIPOS>BOND
     1    46    45    1
     2    22    20    1
     3    25    24    1
     4    50    49    1
     5    24    23    3
     6    49    48    3
     7    23    16    1
     8    45    39    1
     9    45    47    1
    10    48    40    1
    11    20    15    1
    12    20    21    1
    13    31    30    1
    14    39    40   ar
    15    39    38   ar
    16    40    41   ar
    17    16    15   ar
    18    16    17   ar
    19    15    14   ar
    20     6     5    1
    21    30    26   ar
    22    30    29   ar
    23     5     4   ar
    24     5     1   ar
    25    17    26    1
    26    17    18   ar
    27    38    29    1
    28    38    42   ar
    29    41    44    1
    30    41    42   ar
    31    14     4    1
    32    14    18   ar
    33     7     1    1
    34    26    27   ar
    35    29    28   ar
    36     4     3   ar
    37     1     2   ar
    38    18    19    1
    39    42    43    1
    40     9     8    1
    41    34    32    1
    42    27    28   ar
    43    27    32    1
    44    28    35    1
    45     3     2   ar
    46     3    11    1
    47     2     8    1
    48    35    36    3
    49    32    33    1
    50    11    12    3
    51     8    10    1
    52    12    13    1
    53    36    37    1
