@<TRIPOS>MOLECULE
mol_data/opt/m06hf/geoms/mol2/13he13he-13he13he-.out
 50 53 0 0 0
SMALL
GASTEIGER

@<TRIPOS>ATOM
      1 C           1.3230   -0.3401   -0.0462 C.ar    1  LIG1        0.0243
      2 C           0.9650    0.9871   -0.0438 C.ar    1  LIG1        0.0584
      3 C          -0.4651    1.0313   -0.0511 C.ar    1  LIG1        0.0720
      4 C          -0.9111   -0.2848   -0.0554 C.ar    1  LIG1        0.0821
      5 N           0.1728   -1.0883   -0.0599 N.ar    1  LIG1       -0.3569
      6 H           0.0665   -2.0989   -0.0668 H       1  LIG1        0.1655
      7 H           2.2972   -0.7951   -0.0282 H       1  LIG1        0.0826
      8 N           1.8090    2.1123    0.0096 N.pl3   1  LIG1       -0.3559
      9 H           2.5897    2.0436   -0.6314 H       1  LIG1        0.1424
     10 H           1.2900    2.9642   -0.1691 H       1  LIG1        0.1424
     11 C          -1.2740    2.2081   -0.0603 C.1     1  LIG1       -0.0656
     12 C          -1.9452    3.2089   -0.0730 C.1     1  LIG1       -0.1138
     13 H          -2.5350    4.0951   -0.0800 H       1  LIG1        0.1232
     14 C          -2.2543   -0.8421   -0.0615 C.ar    1  LIG1        0.0868
     15 C          -2.6359   -2.1672   -0.0675 C.ar    1  LIG1        0.0679
     16 C          -4.0624   -2.1938   -0.0672 C.ar    1  LIG1        0.0727
     17 C          -4.4858   -0.8710   -0.0605 C.ar    1  LIG1        0.0826
     18 N          -3.3850   -0.0792   -0.0573 N.ar    1  LIG1       -0.3493
     19 H          -3.4459    0.9400   -0.0560 H       1  LIG1        0.1661
     20 N          -1.7260   -3.2708   -0.0697 N.pl3   1  LIG1       -0.3553
     21 H          -1.8779   -3.8467    0.7555 H       1  LIG1        0.1424
     22 H          -1.8977   -3.8599   -0.8815 H       1  LIG1        0.1424
     23 C          -4.8935   -3.3565   -0.0734 C.1     1  LIG1       -0.0656
     24 C          -5.5944   -4.3359   -0.0797 C.1     1  LIG1       -0.1138
     25 H          -6.2095   -5.2050   -0.0858 H       1  LIG1        0.1232
     26 C          -5.8222   -0.3002   -0.0549 C.ar    1  LIG1        0.0868
     27 C          -6.1881    1.0290   -0.0351 C.ar    1  LIG1        0.0679
     28 C          -7.6153    1.0705   -0.0381 C.ar    1  LIG1        0.0727
     29 C          -8.0523   -0.2480   -0.0589 C.ar    1  LIG1        0.0826
     30 N          -6.9622   -1.0516   -0.0676 N.ar    1  LIG1       -0.3493
     31 H          -7.0378   -2.0701   -0.0836 H       1  LIG1        0.1661
     32 N          -5.2618    2.1140   -0.0134 N.pl3   1  LIG1       -0.3553
     33 H          -5.4291    2.7411   -0.7961 H       1  LIG1        0.1424
     34 H          -5.3616    2.6522    0.8440 H       1  LIG1        0.1424
     35 C          -8.4324    2.2439   -0.0234 C.1     1  LIG1       -0.0656
     36 C          -9.1151    3.2371   -0.0118 C.1     1  LIG1       -0.1138
     37 H          -9.7017    4.1263   -0.0001 H       1  LIG1        0.1232
     38 C          -9.3952   -0.8048   -0.0710 C.ar    1  LIG1        0.0863
     39 C          -9.7877   -2.1234   -0.0817 C.ar    1  LIG1        0.0672
     40 C         -11.2172   -2.1361   -0.0927 C.ar    1  LIG1        0.0632
     41 C         -11.6293   -0.8182   -0.0878 C.ar    1  LIG1        0.0195
     42 N         -10.5237   -0.0327   -0.0741 N.ar    1  LIG1       -0.3569
     43 H         -10.5026    0.9784   -0.0663 H       1  LIG1        0.1655
     44 H         -12.6238   -0.4080   -0.0934 H       1  LIG1        0.0820
     45 N          -8.8825   -3.2275   -0.0803 N.pl3   1  LIG1       -0.3553
     46 H          -9.0234   -3.7930    0.7537 H       1  LIG1        0.1424
     47 H          -9.0598   -3.8240   -0.8852 H       1  LIG1        0.1424
     48 C         -12.0356   -3.3110   -0.1073 C.1     1  LIG1       -0.0663
     49 C         -12.6924   -4.3180   -0.1197 C.1     1  LIG1       -0.1138
     50 H         -13.2835   -5.2038   -0.1304 H       1  LIG1        0.1232
@<TRIPOS>BOND
     1    47    45    1
     2    22    20    1
     3    33    32    1
     4     9     8    1
     5    10     8    1
     6    50    49    1
     7    49    48    3
     8    48    40    1
     9    44    41    1
    10    40    41   ar
    11    40    39   ar
    12    41    42   ar
    13    25    24    1
    14    31    30    1
    15    39    45    1
    16    39    38   ar
    17    45    46    1
    18    13    12    1
    19    24    23    3
    20    42    38   ar
    21    42    43    1
    22    23    16    1
    23    12    11    3
    24    38    29    1
    25    20    15    1
    26    20    21    1
    27    30    29   ar
    28    30    26   ar
    29    15    16   ar
    30    15    14   ar
    31    16    17   ar
    32     6     5    1
    33    14    18   ar
    34    14     4    1
    35    17    18   ar
    36    17    26    1
    37    11     3    1
    38     5     4   ar
    39     5     1   ar
    40    29    28   ar
    41    18    19    1
    42     4     3   ar
    43    26    27   ar
    44     3     2   ar
    45     1     2   ar
    46     1     7    1
    47     2     8    1
    48    28    27   ar
    49    28    35    1
    50    27    32    1
    51    35    36    3
    52    32    34    1
    53    36    37    1
