@<TRIPOS>MOLECULE
mol_data/opt/m06hf/geoms/mol2/13he13he13he13he-.out
 50 53 0 0 0
SMALL
GASTEIGER

@<TRIPOS>ATOM
      1 C           0.5344    0.4475    2.0448 C.ar    1  LIG1        0.0243
      2 C           0.6508    1.2298    0.9252 C.ar    1  LIG1        0.0584
      3 C          -0.4702    0.9237    0.0861 C.ar    1  LIG1        0.0720
      4 C          -1.2347   -0.0303    0.7398 C.ar    1  LIG1        0.0821
      5 N          -0.6074   -0.3135    1.9103 N.ar    1  LIG1       -0.3569
      6 H          -1.0176   -0.8732    2.6409 H       1  LIG1        0.1655
      7 H           1.1573    0.3840    2.9187 H       1  LIG1        0.0826
      8 N           1.6355    2.1855    0.6318 N.pl3   1  LIG1       -0.3559
      9 H           2.5692    1.8872    0.8816 H       1  LIG1        0.1424
     10 H           1.6009    2.4713   -0.3395 H       1  LIG1        0.1424
     11 C          -0.7241    1.4811   -1.2044 C.1     1  LIG1       -0.0656
     12 C          -0.9256    1.9728   -2.2859 C.1     1  LIG1       -0.1138
     13 H          -1.0953    2.3928   -3.2499 H       1  LIG1        0.1232
     14 C          -2.4819   -0.6706    0.3458 C.ar    1  LIG1        0.0868
     15 C          -3.6400   -0.1282   -0.1702 C.ar    1  LIG1        0.0679
     16 C          -4.5700   -1.2077   -0.3158 C.ar    1  LIG1        0.0727
     17 C          -3.9482   -2.3673    0.1292 C.ar    1  LIG1        0.0826
     18 N          -2.6966   -2.0277    0.5184 N.ar    1  LIG1       -0.3493
     19 H          -2.0114   -2.6775    0.8704 H       1  LIG1        0.1661
     20 N          -3.9108    1.2090   -0.4376 N.pl3   1  LIG1       -0.3553
     21 H          -3.1261    1.7181   -0.8271 H       1  LIG1        0.1424
     22 H          -4.7543    1.3296   -0.9833 H       1  LIG1        0.1424
     23 C          -5.8868   -1.1036   -0.8575 C.1     1  LIG1       -0.0656
     24 C          -6.9986   -0.9957   -1.3096 C.1     1  LIG1       -0.1138
     25 H          -7.9734   -0.9045   -1.7290 H       1  LIG1        0.1232
     26 C          -4.4400   -3.7354    0.1974 C.ar    1  LIG1        0.0868
     27 C          -5.6521   -4.2253    0.6472 C.ar    1  LIG1        0.0679
     28 C          -5.5729   -5.6511    0.5636 C.ar    1  LIG1        0.0727
     29 C          -4.3111   -5.9655    0.0701 C.ar    1  LIG1        0.0826
     30 N          -3.6468   -4.8138   -0.1412 N.ar    1  LIG1       -0.3493
     31 H          -2.7357   -4.8144   -0.5939 H       1  LIG1        0.1661
     32 N          -6.7197   -3.5072    1.1756 N.pl3   1  LIG1       -0.3553
     33 H          -6.8897   -2.6237    0.7089 H       1  LIG1        0.1424
     34 H          -7.5609   -4.0646    1.2505 H       1  LIG1        0.1424
     35 C          -6.5986   -6.5778    0.9261 C.1     1  LIG1       -0.0656
     36 C          -7.4709   -7.3527    1.2323 C.1     1  LIG1       -0.1138
     37 H          -8.2525   -8.0212    1.5119 H       1  LIG1        0.1232
     38 C          -3.7002   -7.2454   -0.2477 C.ar    1  LIG1        0.0863
     39 C          -2.4674   -7.5020   -0.8031 C.ar    1  LIG1        0.0672
     40 C          -2.3448   -8.9215   -0.9162 C.ar    1  LIG1        0.0632
     41 C          -3.5139   -9.4647   -0.4217 C.ar    1  LIG1        0.0195
     42 N          -4.3160   -8.4452   -0.0252 N.ar    1  LIG1       -0.3569
     43 H          -5.2417   -8.5263    0.3740 H       1  LIG1        0.1655
     44 H          -3.8109  -10.4946   -0.3315 H       1  LIG1        0.0820
     45 N          -1.5309   -6.4901   -1.1832 N.pl3   1  LIG1       -0.3553
     46 H          -0.6427   -6.6462   -0.7116 H       1  LIG1        0.1424
     47 H          -1.3468   -6.5475   -2.1827 H       1  LIG1        0.1424
     48 C          -1.2126   -9.6166   -1.4512 C.1     1  LIG1       -0.0663
     49 C          -0.2481  -10.1694   -1.9102 C.1     1  LIG1       -0.1138
     50 H           0.5994  -10.6690   -2.3183 H       1  LIG1        0.1232
@<TRIPOS>BOND
     1    13    12    1
     2    50    49    1
     3    12    11    3
     4    47    45    1
     5    49    48    3
     6    25    24    1
     7    48    40    1
     8    24    23    3
     9    11     3    1
    10    45    39    1
    11    45    46    1
    12    22    20    1
    13    40    39   ar
    14    40    41   ar
    15    23    16    1
    16    21    20    1
    17    39    38   ar
    18    31    30    1
    19    20    15    1
    20    41    44    1
    21    41    42   ar
    22    10     8    1
    23    16    15   ar
    24    16    17   ar
    25    38    42   ar
    26    38    29    1
    27    15    14   ar
    28    30    29   ar
    29    30    26   ar
    30    42    43    1
    31    29    28   ar
    32     3     4   ar
    33     3     2   ar
    34    17    26    1
    35    17    18   ar
    36    26    27   ar
    37    14    18   ar
    38    14     4    1
    39    18    19    1
    40    28    27   ar
    41    28    35    1
    42     8     9    1
    43     8     2    1
    44    27    32    1
    45    33    32    1
    46     4     5   ar
    47     2     1   ar
    48    35    36    3
    49    32    34    1
    50    36    37    1
    51     5     1   ar
    52     5     6    1
    53     1     7    1
