@<TRIPOS>MOLECULE
mol_data/opt/m06hf/geoms/mol2/13he13he13he-13he.out
 50 53 0 0 0
SMALL
GASTEIGER

@<TRIPOS>ATOM
      1 C           1.1348   -0.1292   -1.0630 C.ar    1  LIG1        0.0243
      2 C           0.9284    1.0057   -0.3223 C.ar    1  LIG1        0.0584
      3 C          -0.4351    0.9739    0.1208 C.ar    1  LIG1        0.0720
      4 C          -1.0097   -0.1859   -0.3799 C.ar    1  LIG1        0.0821
      5 N          -0.0491   -0.8314   -1.0924 N.ar    1  LIG1       -0.3569
      6 H          -0.2269   -1.6534   -1.6465 H       1  LIG1        0.1655
      7 H           2.0221   -0.4915   -1.5499 H       1  LIG1        0.0826
      8 N           1.8650    1.9974    0.0192 N.pl3   1  LIG1       -0.3559
      9 H           2.3750    2.3501   -0.7812 H       1  LIG1        0.1424
     10 H           1.4203    2.7617    0.5147 H       1  LIG1        0.1424
     11 C          -1.0549    1.9529    0.9566 C.1     1  LIG1       -0.0656
     12 C          -1.5673    2.7973    1.6448 C.1     1  LIG1       -0.1138
     13 H          -2.0362    3.5223    2.2681 H       1  LIG1        0.1232
     14 C          -2.3592   -0.7211   -0.2629 C.ar    1  LIG1        0.0868
     15 C          -3.5892   -0.0940   -0.3404 C.ar    1  LIG1        0.0679
     16 C          -4.5814   -1.1216   -0.2727 C.ar    1  LIG1        0.0727
     17 C          -3.9101   -2.3322   -0.1522 C.ar    1  LIG1        0.0826
     18 N          -2.5856   -2.0773   -0.1454 N.ar    1  LIG1       -0.3493
     19 H          -1.9111   -2.8185    0.0272 H       1  LIG1        0.1661
     20 N          -3.8714    1.2653   -0.4390 N.pl3   1  LIG1       -0.3553
     21 H          -3.0549    1.8500   -0.5620 H       1  LIG1        0.1424
     22 H          -4.6135    1.4741   -1.0945 H       1  LIG1        0.1424
     23 C          -5.9970   -0.9422   -0.3310 C.1     1  LIG1       -0.0656
     24 C          -7.1913   -0.7972   -0.3896 C.1     1  LIG1       -0.1138
     25 H          -8.2459   -0.6564   -0.4292 H       1  LIG1        0.1232
     26 C          -4.4054   -3.6920   -0.0182 C.ar    1  LIG1        0.0868
     27 C          -3.6851   -4.8519    0.1756 C.ar    1  LIG1        0.0679
     28 C          -4.6252   -5.9236    0.2388 C.ar    1  LIG1        0.0727
     29 C          -5.8849   -5.3587    0.0804 C.ar    1  LIG1        0.0826
     30 N          -5.7288   -4.0218   -0.0696 N.ar    1  LIG1       -0.3493
     31 H          -6.5230   -3.3917   -0.1982 H       1  LIG1        0.1661
     32 N          -2.2617   -4.9096    0.2953 N.pl3   1  LIG1       -0.3553
     33 H          -2.0015   -5.2023    1.2348 H       1  LIG1        0.1424
     34 H          -1.8852   -5.6013   -0.3490 H       1  LIG1        0.1424
     35 C          -4.3221   -7.3080    0.4298 C.1     1  LIG1       -0.0656
     36 C          -4.0588   -8.4731    0.5917 C.1     1  LIG1       -0.1138
     37 H          -3.8055   -9.4977    0.7379 H       1  LIG1        0.1232
     38 C          -7.2042   -5.9689    0.0578 C.ar    1  LIG1        0.0863
     39 C          -8.4323   -5.3719   -0.1094 C.ar    1  LIG1        0.0672
     40 C          -9.4145   -6.4095   -0.0509 C.ar    1  LIG1        0.0632
     41 C          -8.7343   -7.5941    0.1504 C.ar    1  LIG1        0.0195
     42 N          -7.4088   -7.3120    0.2124 N.ar    1  LIG1       -0.3569
     43 H          -6.6577   -7.9743    0.3549 H       1  LIG1        0.1655
     44 H          -9.1113   -8.5964    0.2502 H       1  LIG1        0.0820
     45 N          -8.6178   -3.9699   -0.3026 N.pl3   1  LIG1       -0.3553
     46 H          -9.0631   -3.7949   -1.2003 H       1  LIG1        0.1424
     47 H          -9.2290   -3.5945    0.4187 H       1  LIG1        0.1424
     48 C         -10.8286   -6.2234   -0.1807 C.1     1  LIG1       -0.0663
     49 C         -12.0107   -6.0344   -0.2945 C.1     1  LIG1       -0.1138
     50 H         -13.0594   -5.8767   -0.3945 H       1  LIG1        0.1232
@<TRIPOS>BOND
     1     6     5    1
     2     7     1    1
     3    46    45    1
     4    22    20    1
     5     5     1   ar
     6     5     4   ar
     7     1     2   ar
     8     9     8    1
     9    21    20    1
    10    20    15    1
    11    25    24    1
    12    50    49    1
    13    24    23    3
    14     4    14    1
    15     4     3   ar
    16    34    32    1
    17    15    16   ar
    18    15    14   ar
    19    23    16    1
    20     2     8    1
    21     2     3   ar
    22    45    39    1
    23    45    47    1
    24    49    48    3
    25    16    17   ar
    26    14    18   ar
    27    31    30    1
    28    48    40    1
    29    17    18   ar
    30    17    26    1
    31    18    19    1
    32    39    40   ar
    33    39    38   ar
    34    30    26   ar
    35    30    29   ar
    36    40    41   ar
    37    26    27   ar
    38     8    10    1
    39    38    29    1
    40    38    42   ar
    41    29    28   ar
    42     3    11    1
    43    41    42   ar
    44    41    44    1
    45    27    28   ar
    46    27    32    1
    47    42    43    1
    48    28    35    1
    49    32    33    1
    50    35    36    3
    51    36    37    1
    52    11    12    3
    53    12    13    1
