@<TRIPOS>MOLECULE
mol_data/opt/m06hf/geoms/mol2/13he13he-.out
 26 27 0 0 0
SMALL
GASTEIGER

@<TRIPOS>ATOM
      1 C           1.1836   -0.3194   -0.0679 C.ar    1  LIG1        0.0243
      2 C           0.8252    1.0071   -0.0282 C.ar    1  LIG1        0.0584
      3 C          -0.6046    1.0497   -0.0117 C.ar    1  LIG1        0.0720
      4 C          -1.0498   -0.2669   -0.0402 C.ar    1  LIG1        0.0821
      5 N           0.0326   -1.0689   -0.0769 N.ar    1  LIG1       -0.3569
      6 H          -0.0741   -2.0791   -0.1072 H       1  LIG1        0.1655
      7 H           2.1574   -0.7743   -0.0784 H       1  LIG1        0.0826
      8 N           1.6617    2.1333    0.0450 N.pl3   1  LIG1       -0.3559
      9 H           2.5132    2.0269   -0.4916 H       1  LIG1        0.1424
     10 H           1.1756    2.9776   -0.2322 H       1  LIG1        0.1424
     11 C          -1.4174    2.2240    0.0225 C.1     1  LIG1       -0.0656
     12 C          -2.0955    3.2211    0.0459 C.1     1  LIG1       -0.1138
     13 H          -2.6752    4.1145    0.0750 H       1  LIG1        0.1232
     14 C          -2.3943   -0.8223   -0.0444 C.ar    1  LIG1        0.0863
     15 C          -2.7897   -2.1397   -0.0774 C.ar    1  LIG1        0.0672
     16 C          -4.2196   -2.1503   -0.0678 C.ar    1  LIG1        0.0632
     17 C          -4.6292   -0.8326   -0.0286 C.ar    1  LIG1        0.0195
     18 N          -3.5210   -0.0494   -0.0146 N.ar    1  LIG1       -0.3569
     19 H          -3.4968    0.9615    0.0135 H       1  LIG1        0.1655
     20 H          -5.6221   -0.4203   -0.0102 H       1  LIG1        0.0820
     21 N          -1.8870   -3.2481   -0.1122 N.pl3   1  LIG1       -0.3553
     22 H          -2.0283   -3.8369    0.7057 H       1  LIG1        0.1424
     23 H          -2.0761   -3.8242   -0.9295 H       1  LIG1        0.1424
     24 C          -5.0417   -3.3227   -0.0957 C.1     1  LIG1       -0.0663
     25 C          -5.7050   -4.3260   -0.1207 C.1     1  LIG1       -0.1138
     26 H          -6.3012   -5.2086   -0.1427 H       1  LIG1        0.1232
@<TRIPOS>BOND
     1    23    21    1
     2     9     8    1
     3    10     8    1
     4    26    25    1
     5    25    24    3
     6    21    15    1
     7    21    22    1
     8     6     5    1
     9    24    16    1
    10     7     1    1
    11    15    16   ar
    12    15    14   ar
    13     5     1   ar
    14     5     4   ar
    15     1     2   ar
    16    16    17   ar
    17    14     4    1
    18    14    18   ar
    19     4     3   ar
    20    17    18   ar
    21    17    20    1
    22     2     3   ar
    23     2     8    1
    24    18    19    1
    25     3    11    1
    26    11    12    3
    27    12    13    1
