@<TRIPOS>MOLECULE
mol_data/opt/m06hf/geoms/mol2/13he13he-13he-13he-.out
 50 53 0 0 0
SMALL
GASTEIGER

@<TRIPOS>ATOM
      1 C           1.2922   -0.2717    0.3530 C.ar    1  LIG1        0.0243
      2 C           0.8601    0.9788    0.7272 C.ar    1  LIG1        0.0584
      3 C          -0.5665    0.9708    0.6274 C.ar    1  LIG1        0.0720
      4 C          -0.9355   -0.2983    0.1960 C.ar    1  LIG1        0.0821
      5 N           0.1888   -1.0238    0.0331 N.ar    1  LIG1       -0.3569
      6 H           0.1440   -1.9866   -0.2858 H       1  LIG1        0.1655
      7 H           2.2877   -0.6752    0.3028 H       1  LIG1        0.0826
      8 N           1.6279    2.0621    1.1846 N.pl3   1  LIG1       -0.3559
      9 H           2.5052    2.1622    0.6908 H       1  LIG1        0.1424
     10 H           1.1052    2.9294    1.1536 H       1  LIG1        0.1424
     11 C          -1.4469    2.0589    0.9171 C.1     1  LIG1       -0.0656
     12 C          -2.1872    2.9793    1.1618 C.1     1  LIG1       -0.1138
     13 H          -2.8298    3.7957    1.3998 H       1  LIG1        0.1232
     14 C          -2.2462   -0.8619   -0.0785 C.ar    1  LIG1        0.0868
     15 C          -2.5828   -2.1267   -0.5009 C.ar    1  LIG1        0.0679
     16 C          -4.0066   -2.1611   -0.6299 C.ar    1  LIG1        0.0727
     17 C          -4.4819   -0.9098   -0.2656 C.ar    1  LIG1        0.0826
     18 N          -3.4021   -0.1457    0.0613 N.ar    1  LIG1       -0.3493
     19 H          -3.4354    0.7837    0.4618 H       1  LIG1        0.1661
     20 N          -1.6338   -3.1634   -0.7577 N.pl3   1  LIG1       -0.3553
     21 H          -1.7872   -3.9428   -0.1212 H       1  LIG1        0.1424
     22 H          -1.7509   -3.5202   -1.7030 H       1  LIG1        0.1424
     23 C          -4.7852   -3.2700   -1.0865 C.1     1  LIG1       -0.0656
     24 C          -5.4311   -4.2146   -1.4639 C.1     1  LIG1       -0.1138
     25 H          -5.9990   -5.0425   -1.8212 H       1  LIG1        0.1232
     26 C          -5.8383   -0.3870   -0.2070 C.ar    1  LIG1        0.0868
     27 C          -6.9950   -0.9427    0.2999 C.ar    1  LIG1        0.0679
     28 C          -8.0197    0.0477    0.1632 C.ar    1  LIG1        0.0727
     29 C          -7.4476    1.1760   -0.4089 C.ar    1  LIG1        0.0826
     30 N          -6.1406    0.8974   -0.6284 N.ar    1  LIG1       -0.3493
     31 H          -5.4744    1.5491   -1.0125 H       1  LIG1        0.1661
     32 N          -7.1538   -2.1851    0.9018 N.pl3   1  LIG1       -0.3553
     33 H          -8.1274   -2.4359    1.0161 H       1  LIG1        0.1424
     34 H          -6.6138   -2.9258    0.4706 H       1  LIG1        0.1424
     35 C          -9.3894   -0.1107    0.5346 C.1     1  LIG1       -0.0656
     36 C         -10.5387   -0.2563    0.8647 C.1     1  LIG1       -0.1138
     37 H         -11.5595   -0.3892    1.1381 H       1  LIG1        0.1232
     38 C          -8.0469    2.4560   -0.7605 C.ar    1  LIG1        0.0863
     39 C          -8.8756    3.2810   -0.0307 C.ar    1  LIG1        0.0672
     40 C          -9.1200    4.4387   -0.8413 C.ar    1  LIG1        0.0632
     41 C          -8.4314    4.2686   -2.0258 C.ar    1  LIG1        0.0195
     42 N          -7.7862    3.0832   -1.9682 N.ar    1  LIG1       -0.3569
     43 H          -7.3202    2.6381   -2.7425 H       1  LIG1        0.1655
     44 H          -8.3841    4.9080   -2.8895 H       1  LIG1        0.0820
     45 N          -9.3289    3.1016    1.2711 N.pl3   1  LIG1       -0.3553
     46 H         -10.0576    3.7598    1.5154 H       1  LIG1        0.1424
     47 H          -9.5864    2.1463    1.4889 H       1  LIG1        0.1424
     48 C          -9.9357    5.5499   -0.4566 C.1     1  LIG1       -0.0663
     49 C         -10.6357    6.4596   -0.0956 C.1     1  LIG1       -0.1138
     50 H         -11.2534    7.2694    0.2159 H       1  LIG1        0.1232
@<TRIPOS>BOND
     1    44    41    1
     2    43    42    1
     3    41    42   ar
     4    41    40   ar
     5    42    38   ar
     6    25    24    1
     7    22    20    1
     8    24    23    3
     9    23    16    1
    10    31    30    1
    11    40    48    1
    12    40    39   ar
    13    38    29    1
    14    38    39   ar
    15    20    15    1
    16    20    21    1
    17    16    15   ar
    18    16    17   ar
    19    30    29   ar
    20    30    26   ar
    21    15    14   ar
    22    48    49    3
    23    29    28   ar
    24     6     5    1
    25    17    26    1
    26    17    18   ar
    27    26    27   ar
    28    49    50    1
    29    14    18   ar
    30    14     4    1
    31    39    45    1
    32     5     4   ar
    33     5     1   ar
    34    18    19    1
    35    28    27   ar
    36    28    35    1
    37     4     3   ar
    38    27    32    1
    39     7     1    1
    40     1     2   ar
    41    34    32    1
    42    35    36    3
    43     3     2   ar
    44     3    11    1
    45     9     8    1
    46     2     8    1
    47    36    37    1
    48    32    33    1
    49    11    12    3
    50    10     8    1
    51    12    13    1
    52    45    47    1
    53    45    46    1
