@<TRIPOS>MOLECULE
mol_data/opt/m06hf/geoms/mol2/13he12eh6ll-4ei-.out
 57 60 0 0 0
SMALL
GASTEIGER

@<TRIPOS>ATOM
      1 C           1.2610   -0.0246   -0.3657 C.ar    1  LIG1        0.0243
      2 C           0.8949    1.2366    0.0420 C.ar    1  LIG1        0.0584
      3 C          -0.5275    1.2335    0.1943 C.ar    1  LIG1        0.0736
      4 C          -0.9653   -0.0409   -0.1388 C.ar    1  LIG1        0.1008
      5 N           0.1250   -0.7752   -0.4794 N.ar    1  LIG1       -0.3556
      6 H           0.0647   -1.7485   -0.7423 H       1  LIG1        0.1655
      7 H           2.2361   -0.4303   -0.5675 H       1  LIG1        0.0826
      8 N           1.7521    2.3237    0.3133 N.pl3   1  LIG1       -0.3559
      9 H           2.2297    2.6491   -0.5194 H       1  LIG1        0.1424
     10 H           1.2261    3.0919    0.7168 H       1  LIG1        0.1424
     11 C          -1.2811    2.3420    0.6893 C.1     1  LIG1       -0.0656
     12 C          -1.8556    3.3021    1.1310 C.1     1  LIG1       -0.1138
     13 H          -2.3878    4.1342    1.5286 H       1  LIG1        0.1232
     14 C          -2.2694   -0.6779   -0.1704 C.ar    1  LIG1        0.1702
     15 C          -3.5611   -0.2531   -0.3313 C.ar    1  LIG1        0.0931
     16 C          -4.3699   -1.4496   -0.3294 C.ar    1  LIG1        0.0874
     17 C          -3.5076   -2.4947   -0.1838 C.ar    1  LIG1        0.1627
     18 O          -2.2363   -2.0167   -0.0880 O.2     1  LIG1       -0.4500
     19 C          -4.0772    1.0545   -0.5818 C.1     1  LIG1       -0.0639
     20 C          -4.5784    2.1194   -0.8273 C.1     1  LIG1       -0.1137
     21 H          -4.9905    3.0771   -1.0456 H       1  LIG1        0.1232
     22 N          -5.7622   -1.4777   -0.4470 N.pl3   1  LIG1       -0.3541
     23 H          -6.1267   -0.5742   -0.7289 H       1  LIG1        0.1425
     24 H          -6.0899   -2.2122   -1.0651 H       1  LIG1        0.1425
     25 C          -2.8634   -4.9069   -0.5632 C.ar    1  LIG1        0.2262
     26 C          -3.7596   -3.9303   -0.0862 C.ar    1  LIG1        0.0841
     27 C          -4.9419   -4.3803    0.4937 C.ar    1  LIG1       -0.0020
     28 C          -5.2080   -5.7479    0.5610 C.ar    1  LIG1        0.1469
     29 C          -4.2747   -6.6299    0.0117 C.ar    1  LIG1        0.1175
     30 N          -3.1215   -6.1950   -0.5052 N.ar    1  LIG1       -0.2086
     31 H          -5.6279   -3.6498    0.9052 H       1  LIG1        0.0663
     32 O          -1.7040   -4.4978   -1.1179 O.3     1  LIG1       -0.4792
     33 C          -0.8621   -5.5205   -1.6423 C.3     1  LIG1        0.0804
     34 H          -0.0161   -4.9976   -2.0810 H       1  LIG1        0.0660
     35 H          -0.5341   -6.1871   -0.8451 H       1  LIG1        0.0660
     36 H          -1.3937   -6.1005   -2.3962 H       1  LIG1        0.0660
     37 O          -6.2937   -6.2801    1.1695 O.3     1  LIG1       -0.4929
     38 C          -7.4306   -5.4516    1.3247 C.3     1  LIG1        0.0789
     39 H          -8.2385   -6.1127    1.6258 H       1  LIG1        0.0660
     40 H          -7.2615   -4.6985    2.0977 H       1  LIG1        0.0660
     41 H          -7.6798   -4.9678    0.3769 H       1  LIG1        0.0660
     42 C          -5.6666   -8.6958   -0.4690 C.ar    1  LIG1        0.0340
     43 C          -5.8018  -10.0868   -0.4262 C.ar    1  LIG1       -0.0454
     44 C          -4.4935   -8.1053    0.0261 C.ar    1  LIG1        0.0197
     45 C          -4.7863  -10.8787    0.0920 C.ar    1  LIG1       -0.0576
     46 H          -6.7085  -10.5343   -0.8103 H       1  LIG1        0.0630
     47 C          -3.4750   -8.9189    0.5175 C.ar    1  LIG1       -0.0484
     48 C          -3.6030  -10.3056    0.5621 C.ar    1  LIG1       -0.0498
     49 H          -2.5681   -8.4437    0.8727 H       1  LIG1        0.0627
     50 H          -4.9101  -11.9547    0.1241 H       1  LIG1        0.0621
     51 C          -6.7202   -7.9167   -1.0802 C.1     1  LIG1       -0.0690
     52 C          -7.6073   -7.3189   -1.6300 C.1     1  LIG1       -0.1139
     53 H          -8.3904   -6.7925   -2.1239 H       1  LIG1        0.1232
     54 C          -2.4711  -11.1713    1.0840 C.3     1  LIG1       -0.0397
     55 H          -1.8919  -10.6323    1.8332 H       1  LIG1        0.0278
     56 H          -1.8040  -11.4483    0.2651 H       1  LIG1        0.0278
     57 H          -2.8625  -12.0839    1.5334 H       1  LIG1        0.0278
@<TRIPOS>BOND
     1    36    33    1
     2    53    52    1
     3    34    33    1
     4    33    32    1
     5    33    35    1
     6    52    51    3
     7    32    25    1
     8    51    42    1
     9    24    22    1
    10    21    20    1
    11    20    19    3
    12    46    43    1
    13     6     5    1
    14    23    22    1
    15    19    15    1
    16     7     1    1
    17    25    30   ar
    18    25    26   ar
    19     9     8    1
    20    30    29   ar
    21     5     1   ar
    22     5     4   ar
    23    42    43   ar
    24    42    44   ar
    25    22    16    1
    26    43    45   ar
    27     1     2   ar
    28    15    16   ar
    29    15    14   ar
    30    16    17   ar
    31    17    18   ar
    32    17    26    1
    33    14     4    1
    34    14    18   ar
    35     4     3   ar
    36    26    27   ar
    37    29    44    1
    38    29    28   ar
    39    44    47   ar
    40     2     3   ar
    41     2     8    1
    42    45    50    1
    43    45    48   ar
    44     3    11    1
    45    56    54    1
    46     8    10    1
    47    41    38    1
    48    27    28   ar
    49    27    31    1
    50    47    48   ar
    51    47    49    1
    52    28    37    1
    53    48    54    1
    54    11    12    3
    55    54    57    1
    56    54    55    1
    57    12    13    1
    58    37    38    1
    59    38    39    1
    60    38    40    1
