@<TRIPOS>MOLECULE
mol_data/opt/m06hf/geoms/mol2/13he13he-13he.out
 38 40 0 0 0
SMALL
GASTEIGER

@<TRIPOS>ATOM
      1 C           1.2559   -0.3473   -0.0188 C.ar    1  LIG1        0.0243
      2 C           0.8879    0.9767   -0.0369 C.ar    1  LIG1        0.0584
      3 C          -0.5420    1.0099   -0.0525 C.ar    1  LIG1        0.0720
      4 C          -0.9788   -0.3087   -0.0412 C.ar    1  LIG1        0.0821
      5 N           0.1125   -1.1045   -0.0316 N.ar    1  LIG1       -0.3569
      6 H           0.0137   -2.1160   -0.0264 H       1  LIG1        0.1655
      7 H           2.2332   -0.7938    0.0122 H       1  LIG1        0.0826
      8 N           1.7323    2.1045   -0.0027 N.pl3   1  LIG1       -0.3559
      9 H           2.4345    2.0824   -0.7324 H       1  LIG1        0.1424
     10 H           1.1936    2.9601   -0.0773 H       1  LIG1        0.1424
     11 C          -1.3613    2.1804   -0.0793 C.1     1  LIG1       -0.0656
     12 C          -2.0438    3.1737   -0.1051 C.1     1  LIG1       -0.1138
     13 H          -2.6415    4.0552   -0.1258 H       1  LIG1        0.1232
     14 C          -2.3179   -0.8766   -0.0478 C.ar    1  LIG1        0.0868
     15 C          -2.6889   -2.2042   -0.0478 C.ar    1  LIG1        0.0679
     16 C          -4.1162   -2.2412   -0.0555 C.ar    1  LIG1        0.0727
     17 C          -4.5494   -0.9216   -0.0591 C.ar    1  LIG1        0.0826
     18 N          -3.4553   -0.1220   -0.0546 N.ar    1  LIG1       -0.3493
     19 H          -3.5259    0.8973   -0.0569 H       1  LIG1        0.1661
     20 N          -1.7707   -3.3000   -0.0395 N.pl3   1  LIG1       -0.3553
     21 H          -1.9237   -3.8788    0.7831 H       1  LIG1        0.1424
     22 H          -1.9198   -3.8884   -0.8559 H       1  LIG1        0.1424
     23 C          -4.9354   -3.4137   -0.0583 C.1     1  LIG1       -0.0656
     24 C          -5.6166   -4.4087   -0.0608 C.1     1  LIG1       -0.1138
     25 H          -6.1971   -5.3022   -0.0623 H       1  LIG1        0.1232
     26 C          -5.8907   -0.3602   -0.0654 C.ar    1  LIG1        0.0863
     27 C          -6.2784    0.9595   -0.0587 C.ar    1  LIG1        0.0672
     28 C          -7.7082    0.9774   -0.0703 C.ar    1  LIG1        0.0632
     29 C          -8.1253   -0.3382   -0.0835 C.ar    1  LIG1        0.0195
     30 N          -7.0220   -1.1284   -0.0795 N.ar    1  LIG1       -0.3569
     31 H          -7.0054   -2.1397   -0.0864 H       1  LIG1        0.1655
     32 H          -9.1202   -0.7463   -0.0950 H       1  LIG1        0.0820
     33 N          -5.3675    2.0581   -0.0435 N.pl3   1  LIG1       -0.3553
     34 H          -5.5322    2.6615   -0.8456 H       1  LIG1        0.1424
     35 H          -5.5052    2.6184    0.7942 H       1  LIG1        0.1424
     36 C          -8.5216    2.1567   -0.0693 C.1     1  LIG1       -0.0663
     37 C          -9.1734    3.1678   -0.0682 C.1     1  LIG1       -0.1138
     38 H          -9.7575    4.0590   -0.0666 H       1  LIG1        0.1232
@<TRIPOS>BOND
     1    22    20    1
     2    34    33    1
     3     9     8    1
     4    13    12    1
     5    12    11    3
     6    32    29    1
     7    31    30    1
     8    29    30   ar
     9    29    28   ar
    10    30    26   ar
    11    11     3    1
    12    10     8    1
    13    28    36    1
    14    28    27   ar
    15    36    37    3
    16    37    38    1
    17    26    17    1
    18    26    27   ar
    19    25    24    1
    20    24    23    3
    21    17    16   ar
    22    17    18   ar
    23    27    33    1
    24    23    16    1
    25    19    18    1
    26    16    15   ar
    27    18    14   ar
    28     3     4   ar
    29     3     2   ar
    30    15    14   ar
    31    15    20    1
    32    14     4    1
    33    33    35    1
    34     4     5   ar
    35    20    21    1
    36     2     1   ar
    37     2     8    1
    38     5     6    1
    39     5     1   ar
    40     1     7    1
