@<TRIPOS>MOLECULE
mol_data/opt/m06hf/geoms/mol2/13he13he.out
 26 27 0 0 0
SMALL
GASTEIGER

@<TRIPOS>ATOM
      1 C           1.1489   -0.3051    0.5471 C.ar    1  LIG1        0.0243
      2 C           0.8257    0.9652    0.1459 C.ar    1  LIG1        0.0584
      3 C          -0.5656    0.9508   -0.1988 C.ar    1  LIG1        0.0720
      4 C          -1.0386   -0.3335    0.0214 C.ar    1  LIG1        0.0821
      5 N           0.0101   -1.0779    0.4566 N.ar    1  LIG1       -0.3569
      6 H          -0.0835   -2.0140    0.8162 H       1  LIG1        0.1655
      7 H           2.0819   -0.7103    0.8952 H       1  LIG1        0.0826
      8 N           1.6495    2.1000    0.1027 N.pl3   1  LIG1       -0.3559
      9 H           2.5809    1.9061   -0.2408 H       1  LIG1        0.1424
     10 H           1.2230    2.8493   -0.4288 H       1  LIG1        0.1424
     11 C          -1.3104    2.0533   -0.7177 C.1     1  LIG1       -0.0656
     12 C          -1.9257    2.9951   -1.1496 C.1     1  LIG1       -0.1138
     13 H          -2.4674    3.8196   -1.5511 H       1  LIG1        0.1232
     14 C          -2.3767   -0.8837   -0.1459 C.ar    1  LIG1        0.0863
     15 C          -3.6025   -0.3768    0.2291 C.ar    1  LIG1        0.0672
     16 C          -4.5828   -1.3568   -0.1396 C.ar    1  LIG1        0.0632
     17 C          -3.9133   -2.4153   -0.7204 C.ar    1  LIG1        0.0195
     18 N          -2.5937   -2.1263   -0.7175 N.ar    1  LIG1       -0.3569
     19 H          -1.8807   -2.6587   -1.1893 H       1  LIG1        0.1655
     20 H          -4.3031   -3.3277   -1.1366 H       1  LIG1        0.0820
     21 N          -3.8652    0.8065    0.9123 N.pl3   1  LIG1       -0.3553
     22 H          -3.3113    1.5936    0.5950 H       1  LIG1        0.1424
     23 H          -4.8547    1.0195    0.9358 H       1  LIG1        0.1424
     24 C          -5.9911   -1.2263    0.0779 C.1     1  LIG1       -0.0663
     25 C          -7.1676   -1.0733    0.2773 C.1     1  LIG1       -0.1138
     26 H          -8.2105   -0.9507    0.4543 H       1  LIG1        0.1232
@<TRIPOS>BOND
     1    13    12    1
     2    19    18    1
     3    12    11    3
     4    20    17    1
     5    17    18   ar
     6    17    16   ar
     7    11     3    1
     8    18    14   ar
     9    10     8    1
    10     9     8    1
    11     3     4   ar
    12     3     2   ar
    13    14     4    1
    14    14    15   ar
    15    16    24    1
    16    16    15   ar
    17     4     5   ar
    18    24    25    3
    19     8     2    1
    20     2     1   ar
    21    15    21    1
    22    25    26    1
    23     5     1   ar
    24     5     6    1
    25     1     7    1
    26    22    21    1
    27    21    23    1
