@<TRIPOS>MOLECULE
mol_data/opt/m06hf/geoms/mol2/13he4ia4fi13de12lh-13ha13ai6fa-.out
 96 103 0 0 0
SMALL
GASTEIGER

@<TRIPOS>ATOM
      1 C           0.6053    1.2454    2.8687 C.ar    1  LIG1        0.0242
      2 C           0.8557    1.7841    1.6323 C.ar    1  LIG1        0.0583
      3 C          -0.2553    1.4410    0.7945 C.ar    1  LIG1        0.0705
      4 C          -1.1457    0.7040    1.5617 C.ar    1  LIG1        0.0641
      5 N          -0.5983    0.5846    2.7975 N.ar    1  LIG1       -0.3580
      6 H          -1.0695    0.1408    3.5699 H       1  LIG1        0.1654
      7 H           1.1748    1.2941    3.7791 H       1  LIG1        0.0826
      8 N           1.9584    2.5612    1.2360 N.pl3   1  LIG1       -0.3559
      9 H           2.8450    2.1442    1.4905 H       1  LIG1        0.1424
     10 H           1.9338    2.7425    0.2386 H       1  LIG1        0.1424
     11 C          -0.3459    1.7584   -0.5966 C.1     1  LIG1       -0.0657
     12 C          -0.3694    2.0463   -1.7656 C.1     1  LIG1       -0.1138
     13 H          -0.4001    2.2884   -2.8025 H       1  LIG1        0.1232
     14 C          -3.5177    0.7881    0.7148 C.ar    1  LIG1       -0.0407
     15 C          -4.7088    0.1132    0.4533 C.ar    1  LIG1       -0.0504
     16 C          -2.4370    0.0572    1.2349 C.ar    1  LIG1        0.0025
     17 C          -4.8538   -1.2529    0.7070 C.ar    1  LIG1       -0.0141
     18 H          -5.5514    0.6635    0.0551 H       1  LIG1        0.0626
     19 C          -2.5740   -1.3105    1.4872 C.ar    1  LIG1       -0.0518
     20 C          -3.7710   -1.9642    1.2275 C.ar    1  LIG1       -0.0533
     21 H          -1.7207   -1.8654    1.8576 H       1  LIG1        0.0624
     22 C          -3.4237    2.2805    0.4597 C.3     1  LIG1       -0.0391
     23 H          -4.4243    2.7073    0.3975 H       1  LIG1        0.0278
     24 H          -2.8956    2.4717   -0.4753 H       1  LIG1        0.0278
     25 H          -2.8711    2.7706    1.2621 H       1  LIG1        0.0278
     26 H          -3.8579   -3.0299    1.3978 H       1  LIG1        0.0624
     27 C          -6.9105   -1.7475   -0.6866 C.ar    1  LIG1        0.1252
     28 C          -8.0987   -2.4430   -0.8729 C.ar    1  LIG1       -0.0102
     29 C          -6.1514   -1.9511    0.4751 C.ar    1  LIG1        0.0239
     30 C          -8.5658   -3.3321    0.0970 C.ar    1  LIG1        0.0060
     31 H          -8.6693   -2.2999   -1.7837 H       1  LIG1        0.0661
     32 C          -6.6466   -2.8383    1.4300 C.ar    1  LIG1       -0.0470
     33 C          -7.8445   -3.5363    1.2810 C.ar    1  LIG1       -0.0405
     34 H          -6.0831   -2.9588    2.3482 H       1  LIG1        0.0628
     35 O          -6.4411   -0.8783   -1.6187 O.3     1  LIG1       -0.5061
     36 H          -7.0541   -0.8099   -2.3586 H       1  LIG1        0.2922
     37 C          -8.3346   -4.4310    2.4090 C.3     1  LIG1       -0.0391
     38 H          -7.8990   -4.0962    3.3497 H       1  LIG1        0.0278
     39 H          -8.0331   -5.4717    2.2604 H       1  LIG1        0.0278
     40 H          -9.4205   -4.3892    2.4973 H       1  LIG1        0.0278
     41 C          -9.8503   -4.0162   -0.1631 C.ar    1  LIG1        0.0662
     42 C         -11.0403   -3.5200   -0.6665 C.ar    1  LIG1        0.0930
     43 C         -11.9776   -4.5988   -0.7471 C.ar    1  LIG1        0.0710
     44 C         -11.3191   -5.7184   -0.2716 C.ar    1  LIG1        0.1031
     45 N         -10.0508   -5.3408    0.0664 N.ar    1  LIG1       -0.3496
     46 H          -9.3471   -5.9868    0.3946 H       1  LIG1        0.1661
     47 N         -11.4621   -1.0682   -1.3526 N.1     1  LIG1       -0.1908
     48 C         -11.2832   -2.1588   -1.0409 C.1     1  LIG1        0.1025
     49 C         -13.3139   -4.5405   -1.2490 C.1     1  LIG1       -0.0661
     50 C         -14.4379   -4.4927   -1.6703 C.1     1  LIG1       -0.1138
     51 H         -15.4311   -4.4513   -2.0535 H       1  LIG1        0.1232
     52 C         -11.7374   -7.0978   -0.1019 C.ar    1  LIG1        0.1963
     53 C         -12.9289   -7.7249    0.1116 C.ar    1  LIG1        0.1886
     54 C         -12.6441   -9.1323    0.2000 C.ar    1  LIG1        0.1155
     55 C         -11.2943   -9.2560    0.0743 C.ar    1  LIG1        0.1779
     56 O         -10.7406   -8.0265   -0.1233 O.2     1  LIG1       -0.4461
     57 O         -14.1820   -7.2306    0.2432 O.3     1  LIG1       -0.4896
     58 C         -14.3547   -6.3389    1.3497 C.3     1  LIG1        0.0791
     59 H         -15.4086   -6.0746    1.3576 H       1  LIG1        0.0660
     60 H         -14.0785   -6.8471    2.2752 H       1  LIG1        0.0660
     61 H         -13.7512   -5.4420    1.2119 H       1  LIG1        0.0660
     62 N         -13.5967  -10.1562    0.3849 N.pl3   1  LIG1       -0.3521
     63 H         -14.5188   -9.7468    0.5041 H       1  LIG1        0.1425
     64 H         -13.6124  -10.7928   -0.4078 H       1  LIG1        0.1425
     65 C         -10.4282  -10.4112    0.1366 C.ar    1  LIG1        0.1055
     66 C         -10.5654  -11.5646    0.8923 C.ar    1  LIG1        0.0539
     67 C          -9.4376  -12.3838    0.5965 C.ar    1  LIG1       -0.0135
     68 C          -8.6583  -11.7034   -0.3151 C.ar    1  LIG1        0.0652
     69 N          -9.2536  -10.5074   -0.5797 N.ar    1  LIG1       -0.3491
     70 H          -8.9959   -9.8790   -1.3247 H       1  LIG1        0.1661
     71 N         -11.5520  -11.8123    1.8439 N.pl3   1  LIG1       -0.3562
     72 H         -12.4403  -11.3524    1.6484 H       1  LIG1        0.1424
     73 H         -11.6638  -12.7936    2.0562 H       1  LIG1        0.1424
     74 H          -9.1924  -13.3331    1.0434 H       1  LIG1        0.0658
     75 C          -7.3921  -12.0871   -0.9371 C.ar    1  LIG1        0.0636
     76 C          -6.9316  -13.3104   -1.3663 C.ar    1  LIG1       -0.0315
     77 C          -5.6144  -13.1278   -1.8819 C.ar    1  LIG1       -0.0244
     78 C          -5.3164  -11.7881   -1.7477 C.ar    1  LIG1        0.0550
     79 N          -6.4136  -11.1633   -1.1919 N.ar    1  LIG1       -0.3527
     80 H          -6.3972  -10.2270   -0.8124 H       1  LIG1        0.1660
     81 H          -7.4960  -14.2287   -1.3471 H       1  LIG1        0.0642
     82 C          -4.7315  -14.1869   -2.4959 C.3     1  LIG1       -0.0377
     83 H          -4.2804  -14.8112   -1.7223 H       1  LIG1        0.0278
     84 H          -3.9358  -13.7240   -3.0798 H       1  LIG1        0.0278
     85 H          -5.3190  -14.8290   -3.1524 H       1  LIG1        0.0278
     86 C          -4.2045   -9.8538   -2.8845 C.ar    1  LIG1        0.2216
     87 C          -4.1042  -11.0199   -2.0949 C.ar    1  LIG1        0.0599
     88 C          -2.8344  -11.3921   -1.6713 C.ar    1  LIG1       -0.0461
     89 C          -1.7352  -10.6110   -2.0209 C.ar    1  LIG1       -0.0427
     90 C          -1.9674   -9.4675   -2.7742 C.ar    1  LIG1        0.0314
     91 N          -3.1753   -9.0965   -3.2017 N.ar    1  LIG1       -0.2209
     92 H          -2.7242  -12.2778   -1.0579 H       1  LIG1        0.0626
     93 H          -1.1490   -8.8171   -3.0569 H       1  LIG1        0.0831
     94 O          -5.4022   -9.4423   -3.3560 O.3     1  LIG1       -0.4919
     95 H          -6.0467  -10.1553   -3.2547 H       1  LIG1        0.2937
     96 H          -0.7353  -10.8701   -1.7059 H       1  LIG1        0.0633
@<TRIPOS>BOND
     1    94    95    1
     2    94    86    1
     3    91    86   ar
     4    91    90   ar
     5    85    82    1
     6    84    82    1
     7    93    90    1
     8    86    87   ar
     9    13    12    1
    10    90    89   ar
    11    82    77    1
    12    82    83    1
    13    36    35    1
    14    87    78    1
    15    87    88   ar
    16    51    50    1
    17    89    96    1
    18    89    88   ar
    19    77    78   ar
    20    77    76   ar
    21    31    28    1
    22    12    11    3
    23    78    79   ar
    24    88    92    1
    25    50    49    3
    26    35    27    1
    27    76    81    1
    28    76    75   ar
    29    47    48    3
    30    70    69    1
    31    49    43    1
    32    79    75   ar
    33    79    80    1
    34    48    42    1
    35    75    68    1
    36    28    27   ar
    37    28    30   ar
    38    43    42   ar
    39    43    44   ar
    40    27    29   ar
    41    42    41   ar
    42    11     3    1
    43    69    68   ar
    44    69    65   ar
    45    24    22    1
    46    64    62    1
    47    68    67   ar
    48    44    52    1
    49    44    45   ar
    50    41    45   ar
    51    41    30    1
    52    56    52   ar
    53    56    55   ar
    54    52    53   ar
    55    18    15    1
    56    45    46    1
    57    55    65    1
    58    55    54   ar
    59    30    33   ar
    60    53    54   ar
    61    53    57    1
    62    65    66   ar
    63    54    62    1
    64    10     8    1
    65    57    58    1
    66    62    63    1
    67    23    22    1
    68    15    17   ar
    69    15    14   ar
    70    22    14    1
    71    22    25    1
    72    29    17    1
    73    29    32   ar
    74    67    66   ar
    75    67    74    1
    76    17    20   ar
    77    14    16   ar
    78     3     4   ar
    79     3     2   ar
    80    66    71    1
    81    61    58    1
    82    20    26    1
    83    20    19   ar
    84    16    19   ar
    85    16     4    1
    86     8     9    1
    87     8     2    1
    88    33    32   ar
    89    33    37    1
    90    58    59    1
    91    58    60    1
    92    32    34    1
    93    19    21    1
    94     4     5   ar
    95     2     1   ar
    96    72    71    1
    97    71    73    1
    98    39    37    1
    99    37    40    1
   100    37    38    1
   101     5     1   ar
   102     5     6    1
   103     1     7    1
