@<TRIPOS>MOLECULE
mol_data/opt/m06hf/geoms/mol2/13he12ii-4fl-12df-.out
 51 54 0 0 0
SMALL
GASTEIGER

@<TRIPOS>ATOM
      1 C           1.1880   -0.2028    0.0429 C.ar    1  LIG1        0.0243
      2 C           0.7624    0.9755   -0.5191 C.ar    1  LIG1        0.0584
      3 C          -0.6681    0.9294   -0.5546 C.ar    1  LIG1        0.0735
      4 C          -1.0538   -0.2813    0.0055 C.ar    1  LIG1        0.0998
      5 N           0.0748   -0.9478    0.3460 N.ar    1  LIG1       -0.3556
      6 H           0.0712   -1.8629    0.7668 H       1  LIG1        0.1655
      7 H           2.1816   -0.5547    0.2557 H       1  LIG1        0.0826
      8 N           1.5390    2.0616   -0.9548 N.pl3   1  LIG1       -0.3559
      9 H           2.3554    1.7776   -1.4816 H       1  LIG1        0.1424
     10 H           0.9814    2.7133   -1.4948 H       1  LIG1        0.1424
     11 C          -1.4953    1.9284   -1.1553 C.1     1  LIG1       -0.0656
     12 C          -2.1454    2.7930   -1.6835 C.1     1  LIG1       -0.1138
     13 H          -2.7327    3.5479   -2.1515 H       1  LIG1        0.1232
     14 C          -2.3692   -0.8669    0.2306 C.ar    1  LIG1        0.1561
     15 C          -3.5740   -0.3467    0.5896 C.ar    1  LIG1        0.0003
     16 C          -4.4805   -1.4704    0.6594 C.ar    1  LIG1       -0.0010
     17 C          -3.7409   -2.5693    0.3436 C.ar    1  LIG1        0.1425
     18 O          -2.4535   -2.2137    0.0920 O.2     1  LIG1       -0.4527
     19 C          -3.8983    1.0853    0.9226 C.3     1  LIG1       -0.0358
     20 H          -4.4961    1.1249    1.8345 H       1  LIG1        0.0279
     21 H          -4.4616    1.5526    0.1133 H       1  LIG1        0.0279
     22 H          -2.9814    1.6530    1.0739 H       1  LIG1        0.0279
     23 C          -5.9262   -1.4029    1.0769 C.3     1  LIG1       -0.0358
     24 H          -6.2566   -2.3648    1.4639 H       1  LIG1        0.0279
     25 H          -6.5557   -1.1411    0.2255 H       1  LIG1        0.0279
     26 H          -6.0466   -0.6469    1.8536 H       1  LIG1        0.0279
     27 C          -5.2309   -4.5033   -0.2449 C.ar    1  LIG1        0.1284
     28 C          -5.4772   -5.8710   -0.2589 C.ar    1  LIG1       -0.0052
     29 C          -4.0285   -4.0099    0.2818 C.ar    1  LIG1        0.0624
     30 C          -4.5160   -6.7769    0.1942 C.ar    1  LIG1        0.0637
     31 H          -6.4265   -6.2354   -0.6339 H       1  LIG1        0.0662
     32 C          -3.0678   -4.9241    0.7158 C.ar    1  LIG1       -0.0051
     33 C          -3.2913   -6.2926    0.6714 C.ar    1  LIG1        0.1317
     34 H          -2.1218   -4.5723    1.1048 H       1  LIG1        0.0662
     35 O          -6.1343   -3.6128   -0.7333 O.3     1  LIG1       -0.5060
     36 H          -6.8492   -4.0711   -1.1886 H       1  LIG1        0.2922
     37 O          -2.3053   -7.1322    1.1150 O.3     1  LIG1       -0.4944
     38 C          -1.5836   -7.7858    0.0725 C.3     1  LIG1        0.0788
     39 H          -0.8207   -8.3847    0.5633 H       1  LIG1        0.0660
     40 H          -2.2442   -8.4333   -0.5101 H       1  LIG1        0.0660
     41 H          -1.1208   -7.0446   -0.5826 H       1  LIG1        0.0660
     42 C          -4.8071   -8.2175    0.1421 C.ar    1  LIG1        0.1594
     43 C          -5.5886   -8.9556   -0.7105 C.ar    1  LIG1        0.1388
     44 C          -5.4861  -10.3211   -0.2730 C.ar    1  LIG1        0.1728
     45 C          -4.6554  -10.3075    0.7974 C.ar    1  LIG1        0.1352
     46 O          -4.2535   -9.0343    1.0426 O.2     1  LIG1       -0.4577
     47 H          -4.2839  -11.0726    1.4542 H       1  LIG1        0.1068
     48 N          -6.9696   -8.0703   -2.7001 N.1     1  LIG1       -0.1906
     49 C          -6.3496   -8.4764   -1.8231 C.1     1  LIG1        0.1067
     50 O          -6.1343  -11.3304   -0.8920 O.3     1  LIG1       -0.5028
     51 H          -5.9518  -12.1735   -0.4642 H       1  LIG1        0.2923
@<TRIPOS>BOND
     1    48    49    3
     2    13    12    1
     3    49    43    1
     4    12    11    3
     5    10     8    1
     6     9     8    1
     7    36    35    1
     8    11     3    1
     9     8     2    1
    10    50    51    1
    11    50    44    1
    12    35    27    1
    13    43    44   ar
    14    43    42   ar
    15    31    28    1
    16    41    38    1
    17     3     2   ar
    18     3     4   ar
    19     2     1   ar
    20    40    38    1
    21    44    45   ar
    22    28    27   ar
    23    28    30   ar
    24    27    29   ar
    25     4    14    1
    26     4     5   ar
    27     1     7    1
    28     1     5   ar
    29    38    39    1
    30    38    37    1
    31    18    14   ar
    32    18    17   ar
    33    21    19    1
    34    42    30    1
    35    42    46   ar
    36    30    33   ar
    37    25    23    1
    38    14    15   ar
    39    29    17    1
    40    29    32   ar
    41    17    16   ar
    42     5     6    1
    43    15    16   ar
    44    15    19    1
    45    16    23    1
    46    33    32   ar
    47    33    37    1
    48    32    34    1
    49    45    46   ar
    50    45    47    1
    51    19    22    1
    52    19    20    1
    53    23    24    1
    54    23    26    1
