@<TRIPOS>MOLECULE
mol_data/opt/m06hf/geoms/mol2/13he6ai12lh-6fe.out
 51 54 0 0 0
SMALL
GASTEIGER

@<TRIPOS>ATOM
      1 C           1.1341    0.2562    1.4270 C.ar    1  LIG1        0.0242
      2 C           1.0567    1.1281    0.3692 C.ar    1  LIG1        0.0583
      3 C          -0.2291    0.9397   -0.2306 C.ar    1  LIG1        0.0705
      4 C          -0.8864   -0.0478    0.4909 C.ar    1  LIG1        0.0653
      5 N          -0.0420   -0.4519    1.4734 N.ar    1  LIG1       -0.3580
      6 H          -0.2914   -1.1049    2.1989 H       1  LIG1        0.1654
      7 H           1.9178    0.1007    2.1466 H       1  LIG1        0.0826
      8 N           2.0133    2.0668   -0.0481 N.pl3   1  LIG1       -0.3559
      9 H           2.9466    1.6806   -0.1109 H       1  LIG1        0.1424
     10 H           1.7496    2.4925   -0.9291 H       1  LIG1        0.1424
     11 C          -0.6891    1.6324   -1.3943 C.1     1  LIG1       -0.0657
     12 C          -1.0334    2.2415   -2.3742 C.1     1  LIG1       -0.1138
     13 H          -1.3413    2.7719   -3.2452 H       1  LIG1        0.1232
     14 C          -2.4641   -1.9792    0.6348 C.ar    1  LIG1        0.0375
     15 C          -2.2177   -0.6410    0.3069 C.ar    1  LIG1        0.0179
     16 C          -3.2786    0.0946   -0.2170 C.ar    1  LIG1       -0.0461
     17 C          -4.5344   -0.4861   -0.3802 C.ar    1  LIG1       -0.0207
     18 C          -4.6707   -1.8170    0.0466 C.ar    1  LIG1        0.1126
     19 N          -3.6549   -2.5427    0.5228 N.ar    1  LIG1       -0.2508
     20 H          -3.1154    1.1232   -0.5160 H       1  LIG1        0.0628
     21 H          -1.6618   -2.6213    0.9813 H       1  LIG1        0.0836
     22 C          -5.6571    0.3034   -1.0222 C.3     1  LIG1       -0.0376
     23 H          -6.3239    0.7227   -0.2688 H       1  LIG1        0.0278
     24 H          -6.2542   -0.3425   -1.6668 H       1  LIG1        0.0278
     25 H          -5.2308    1.1106   -1.6167 H       1  LIG1        0.0278
     26 C          -5.9516   -2.5490   -0.0275 C.ar    1  LIG1        0.1973
     27 C          -7.2623   -2.2177    0.1428 C.ar    1  LIG1        0.1886
     28 C          -8.0406   -3.4183   -0.0136 C.ar    1  LIG1        0.1142
     29 C          -7.1379   -4.4108   -0.2474 C.ar    1  LIG1        0.1652
     30 O          -5.8800   -3.8806   -0.2580 O.2     1  LIG1       -0.4474
     31 O          -7.8212   -1.0154    0.4473 O.3     1  LIG1       -0.4896
     32 C          -7.8364   -0.7489    1.8553 C.3     1  LIG1        0.0791
     33 H          -6.8133   -0.6831    2.2289 H       1  LIG1        0.0660
     34 H          -8.3472    0.2032    1.9788 H       1  LIG1        0.0660
     35 H          -8.3751   -1.5420    2.3769 H       1  LIG1        0.0660
     36 N          -9.4331   -3.4581    0.1071 N.pl3   1  LIG1       -0.3522
     37 H          -9.8188   -2.5225    0.0338 H       1  LIG1        0.1425
     38 H          -9.8730   -4.0770   -0.5656 H       1  LIG1        0.1425
     39 C          -6.3193   -6.6247   -1.1525 C.ar    1  LIG1        0.2234
     40 C          -7.2924   -5.8484   -0.4713 C.ar    1  LIG1        0.0817
     41 C          -8.4368   -6.4989   -0.0275 C.ar    1  LIG1       -0.0290
     42 C          -8.6172   -7.8556   -0.3056 C.ar    1  LIG1        0.0437
     43 C          -7.6106   -8.5058   -1.0211 C.ar    1  LIG1        0.0468
     44 N          -6.4958   -7.9069   -1.4199 N.ar    1  LIG1       -0.2196
     45 H          -9.1801   -5.9574    0.5453 H       1  LIG1        0.0639
     46 H          -7.7162   -9.5543   -1.2703 H       1  LIG1        0.0843
     47 O          -5.1590   -6.1113   -1.5744 O.3     1  LIG1       -0.4919
     48 H          -5.0169   -5.2195   -1.2272 H       1  LIG1        0.2937
     49 C          -9.7926   -8.5648    0.1311 C.1     1  LIG1       -0.0681
     50 C         -10.7727   -9.1553    0.4979 C.1     1  LIG1       -0.1139
     51 H         -11.6391   -9.6810    0.8257 H       1  LIG1        0.1232
@<TRIPOS>BOND
     1    13    12    1
     2    12    11    3
     3    24    22    1
     4    25    22    1
     5    47    48    1
     6    47    39    1
     7    44    39   ar
     8    44    43   ar
     9    11     3    1
    10    46    43    1
    11    39    40   ar
    12    22    17    1
    13    22    23    1
    14    43    42   ar
    15    10     8    1
    16    38    36    1
    17    20    16    1
    18    40    29    1
    19    40    41   ar
    20    17    16   ar
    21    17    18   ar
    22    42    41   ar
    23    42    49    1
    24    30    29   ar
    25    30    26   ar
    26    29    28   ar
    27     3     2   ar
    28     3     4   ar
    29    16    15   ar
    30     9     8    1
    31     8     2    1
    32    26    18    1
    33    26    27   ar
    34    41    45    1
    35    28    36    1
    36    28    27   ar
    37    37    36    1
    38    18    19   ar
    39    49    50    3
    40    27    31    1
    41    15     4    1
    42    15    14   ar
    43     2     1   ar
    44    31    32    1
    45     4     5   ar
    46    50    51    1
    47    19    14   ar
    48    14    21    1
    49     1     5   ar
    50     1     7    1
    51     5     6    1
    52    32    34    1
    53    32    33    1
    54    32    35    1
