@<TRIPOS>MOLECULE
mol_data/opt/m06hf/geoms/mol2/13he13he13he.out
 38 40 0 0 0
SMALL
GASTEIGER

@<TRIPOS>ATOM
      1 C           1.2102   -0.1163    0.4621 C.ar    1  LIG1        0.0243
      2 C           0.8363    1.0030   -0.2347 C.ar    1  LIG1        0.0584
      3 C          -0.5836    0.9244   -0.4189 C.ar    1  LIG1        0.0720
      4 C          -1.0202   -0.2422    0.1908 C.ar    1  LIG1        0.0821
      5 N           0.0737   -0.8610    0.7035 N.ar    1  LIG1       -0.3569
      6 H           0.0233   -1.6623    1.3113 H       1  LIG1        0.1655
      7 H           2.1781   -0.4315    0.8084 H       1  LIG1        0.0826
      8 N           1.6381    2.0676   -0.6707 N.pl3   1  LIG1       -0.3559
      9 H           2.5562    1.7778   -0.9803 H       1  LIG1        0.1424
     10 H           1.1758    2.6170   -1.3855 H       1  LIG1        0.1424
     11 C          -1.3840    1.8617   -1.1394 C.1     1  LIG1       -0.0656
     12 C          -2.0437    2.6694   -1.7431 C.1     1  LIG1       -0.1138
     13 H          -2.6248    3.3750   -2.2898 H       1  LIG1        0.1232
     14 C          -2.3590   -0.7979    0.3130 C.ar    1  LIG1        0.0868
     15 C          -3.5571   -0.1887    0.6116 C.ar    1  LIG1        0.0679
     16 C          -4.5496   -1.2261    0.6546 C.ar    1  LIG1        0.0727
     17 C          -3.9182   -2.4269    0.3737 C.ar    1  LIG1        0.0826
     18 N          -2.5960   -2.1612    0.1877 N.ar    1  LIG1       -0.3493
     19 H          -1.9729   -2.7896   -0.2969 H       1  LIG1        0.1661
     20 N          -3.7880    1.1402    0.9350 N.pl3   1  LIG1       -0.3553
     21 H          -3.2426    1.8038    0.3982 H       1  LIG1        0.1424
     22 H          -4.7726    1.3706    0.9571 H       1  LIG1        0.1424
     23 C          -5.9273   -1.0325    0.9806 C.1     1  LIG1       -0.0656
     24 C          -7.0888   -0.8476    1.2366 C.1     1  LIG1       -0.1138
     25 H          -8.1172   -0.7071    1.4764 H       1  LIG1        0.1232
     26 C          -4.4503   -3.7736    0.2354 C.ar    1  LIG1        0.0863
     27 C          -5.5999   -4.2329   -0.3746 C.ar    1  LIG1        0.0672
     28 C          -5.5573   -5.6654   -0.3088 C.ar    1  LIG1        0.0632
     29 C          -4.3927   -6.0152    0.3426 C.ar    1  LIG1        0.0195
     30 N          -3.7312   -4.8801    0.6598 N.ar    1  LIG1       -0.3569
     31 H          -2.9277   -4.8235    1.2644 H       1  LIG1        0.1655
     32 H          -4.0193   -6.9907    0.5999 H       1  LIG1        0.0820
     33 N          -6.6384   -3.5075   -0.9384 N.pl3   1  LIG1       -0.3553
     34 H          -6.4679   -2.5151   -1.0272 H       1  LIG1        0.1424
     35 H          -7.0272   -3.9333   -1.7693 H       1  LIG1        0.1424
     36 C          -6.5490   -6.5437   -0.8497 C.1     1  LIG1       -0.0663
     37 C          -7.3954   -7.2564   -1.3219 C.1     1  LIG1       -0.1138
     38 H          -8.1472   -7.8920   -1.7285 H       1  LIG1        0.1232
@<TRIPOS>BOND
     1    13    12    1
     2    35    33    1
     3    12    11    3
     4    38    37    1
     5    10     8    1
     6    37    36    3
     7    11     3    1
     8    34    33    1
     9     9     8    1
    10    33    27    1
    11    36    28    1
    12     8     2    1
    13     3     2   ar
    14     3     4   ar
    15    27    28   ar
    16    27    26   ar
    17    28    29   ar
    18    19    18    1
    19     2     1   ar
    20    18    14   ar
    21    18    17   ar
    22     4    14    1
    23     4     5   ar
    24    26    17    1
    25    26    30   ar
    26    14    15   ar
    27    29    32    1
    28    29    30   ar
    29    17    16   ar
    30    21    20    1
    31     1     5   ar
    32     1     7    1
    33    15    16   ar
    34    15    20    1
    35    16    23    1
    36    30    31    1
    37     5     6    1
    38    20    22    1
    39    23    24    3
    40    24    25    1
