@<TRIPOS>MOLECULE
mol_data/opt/m06hf/geoms/mol2/13he13he13he13he.out
 50 53 0 0 0
SMALL
GASTEIGER

@<TRIPOS>ATOM
      1 C           0.6062    0.2756    2.0419 C.ar    1  LIG1        0.0243
      2 C           0.7241    1.1262    0.9730 C.ar    1  LIG1        0.0584
      3 C          -0.4113    0.8929    0.1300 C.ar    1  LIG1        0.0720
      4 C          -1.1851   -0.0875    0.7309 C.ar    1  LIG1        0.0821
      5 N          -0.5501   -0.4558    1.8734 N.ar    1  LIG1       -0.3569
      6 H          -0.9649   -1.0483    2.5751 H       1  LIG1        0.1655
      7 H           1.2381    0.1448    2.9019 H       1  LIG1        0.0826
      8 N           1.7207    2.0830    0.7295 N.pl3   1  LIG1       -0.3559
      9 H           2.6510    1.7603    0.9617 H       1  LIG1        0.1424
     10 H           1.6876    2.4241   -0.2236 H       1  LIG1        0.1424
     11 C          -0.6736    1.5355   -1.1189 C.1     1  LIG1       -0.0656
     12 C          -0.8846    2.0951   -2.1653 C.1     1  LIG1       -0.1138
     13 H          -1.0626    2.5752   -3.0995 H       1  LIG1        0.1232
     14 C          -2.4496   -0.6774    0.3122 C.ar    1  LIG1        0.0868
     15 C          -3.6072   -0.0770   -0.1375 C.ar    1  LIG1        0.0679
     16 C          -4.5594   -1.1262   -0.3453 C.ar    1  LIG1        0.0727
     17 C          -3.9510   -2.3265   -0.0044 C.ar    1  LIG1        0.0826
     18 N          -2.6847   -2.0396    0.3835 N.ar    1  LIG1       -0.3493
     19 H          -2.0150   -2.7207    0.7048 H       1  LIG1        0.1661
     20 N          -3.8559    1.2806   -0.2991 N.pl3   1  LIG1       -0.3553
     21 H          -3.0634    1.8072   -0.6468 H       1  LIG1        0.1424
     22 H          -4.6976    1.4592   -0.8310 H       1  LIG1        0.1424
     23 C          -5.8914   -0.9649   -0.8343 C.1     1  LIG1       -0.0656
     24 C          -7.0170   -0.8150   -1.2368 C.1     1  LIG1       -0.1138
     25 H          -8.0053   -0.6861   -1.6123 H       1  LIG1        0.1232
     26 C          -4.4788   -3.6838   -0.0230 C.ar    1  LIG1        0.0868
     27 C          -5.6619   -4.1821    0.4813 C.ar    1  LIG1        0.0679
     28 C          -5.6431   -5.5948    0.2516 C.ar    1  LIG1        0.0727
     29 C          -4.4453   -5.9081   -0.3764 C.ar    1  LIG1        0.0826
     30 N          -3.7596   -4.7505   -0.5357 N.ar    1  LIG1       -0.3493
     31 H          -2.8498   -4.6804   -0.9629 H       1  LIG1        0.1661
     32 N          -6.6611   -3.4873    1.1525 N.pl3   1  LIG1       -0.3553
     33 H          -6.8360   -2.5601    0.7836 H       1  LIG1        0.1424
     34 H          -7.5108   -4.0286    1.2458 H       1  LIG1        0.1424
     35 C          -6.6837   -6.5130    0.5892 C.1     1  LIG1       -0.0656
     36 C          -7.5634   -7.2794    0.8896 C.1     1  LIG1       -0.1138
     37 H          -8.3475   -7.9573    1.1357 H       1  LIG1        0.1232
     38 C          -3.9335   -7.1941   -0.8293 C.ar    1  LIG1        0.0863
     39 C          -3.8771   -8.4077   -0.1782 C.ar    1  LIG1        0.0672
     40 C          -3.2252   -9.3223   -1.0698 C.ar    1  LIG1        0.0632
     41 C          -2.9134   -8.6276   -2.2216 C.ar    1  LIG1        0.0195
     42 N          -3.3352   -7.3533   -2.0687 N.ar    1  LIG1       -0.3569
     43 H          -3.3605   -6.6589   -2.7979 H       1  LIG1        0.1655
     44 H          -2.4413   -8.9731   -3.1243 H       1  LIG1        0.0820
     45 N          -4.2806   -8.6991    1.1203 N.pl3   1  LIG1       -0.3553
     46 H          -5.1510   -8.2546    1.3883 H       1  LIG1        0.1424
     47 H          -4.2895   -9.6949    1.3012 H       1  LIG1        0.1424
     48 C          -2.9637  -10.6996   -0.7836 C.1     1  LIG1       -0.0663
     49 C          -2.7701  -11.8541   -0.5066 C.1     1  LIG1       -0.1138
     50 H          -2.5942  -12.8774   -0.2704 H       1  LIG1        0.1232
@<TRIPOS>BOND
     1    44    41    1
     2    13    12    1
     3    43    42    1
     4    41    42   ar
     5    41    40   ar
     6    12    11    3
     7    42    38   ar
     8    25    24    1
     9    24    23    3
    10    11     3    1
    11    40    48    1
    12    40    39   ar
    13    31    30    1
    14    23    16    1
    15    22    20    1
    16    38    29    1
    17    38    39   ar
    18    48    49    3
    19    21    20    1
    20    30    29   ar
    21    30    26   ar
    22    49    50    1
    23    29    28   ar
    24    16    15   ar
    25    16    17   ar
    26    20    15    1
    27    10     8    1
    28    39    45    1
    29    15    14   ar
    30    26    17    1
    31    26    27   ar
    32    17    18   ar
    33     3     4   ar
    34     3     2   ar
    35    28    27   ar
    36    28    35    1
    37    14    18   ar
    38    14     4    1
    39    18    19    1
    40    27    32    1
    41    35    36    3
    42     8     9    1
    43     8     2    1
    44     4     5   ar
    45    33    32    1
    46    36    37    1
    47     2     1   ar
    48    45    47    1
    49    45    46    1
    50    32    34    1
    51     5     1   ar
    52     5     6    1
    53     1     7    1
