@<TRIPOS>MOLECULE
mol_data/opt/m06hf/geoms/mol2/13hf6ff12de-4ia.out
 47 50 0 0 0
SMALL
GASTEIGER

@<TRIPOS>ATOM
      1 C           1.0943    0.3094   -0.9437 C.ar    1  LIG1        0.0267
      2 C           0.9206    0.9773    0.2443 C.ar    1  LIG1        0.0848
      3 C          -0.3937    0.6601    0.6959 C.ar    1  LIG1        0.1630
      4 C          -0.9766   -0.1840   -0.2215 C.ar    1  LIG1        0.0956
      5 N          -0.0333   -0.4051   -1.2122 N.ar    1  LIG1       -0.3560
      6 H          -0.2360   -0.8686   -2.0852 H       1  LIG1        0.1655
      7 H           1.9505    0.3010   -1.5956 H       1  LIG1        0.0827
      8 N           1.8847    1.8050    0.8820 N.pl3   1  LIG1       -0.3540
      9 H           1.5574    2.7660    0.9189 H       1  LIG1        0.1425
     10 H           2.0302    1.4999    1.8403 H       1  LIG1        0.1425
     11 O          -0.9128    1.1335    1.8620 O.3     1  LIG1       -0.5031
     12 H          -1.6408    0.5711    2.1531 H       1  LIG1        0.2923
     13 C          -2.5153   -2.1372   -0.5764 C.ar    1  LIG1        0.2226
     14 C          -2.3187   -0.7775   -0.2266 C.ar    1  LIG1        0.0667
     15 C          -3.4416   -0.0516    0.1382 C.ar    1  LIG1       -0.0036
     16 C          -4.7016   -0.6546    0.1266 C.ar    1  LIG1        0.1467
     17 C          -4.7737   -1.9854   -0.2828 C.ar    1  LIG1        0.1523
     18 N          -3.6937   -2.7043   -0.6152 N.ar    1  LIG1       -0.2056
     19 H          -3.3629    0.9923    0.4179 H       1  LIG1        0.0663
     20 O          -1.4642   -2.9167   -0.9175 O.3     1  LIG1       -0.4919
     21 H          -0.6476   -2.5248   -0.5792 H       1  LIG1        0.2937
     22 O          -5.7828    0.0430    0.5857 O.3     1  LIG1       -0.5045
     23 H          -6.3393    0.3634   -0.1396 H       1  LIG1        0.2922
     24 C          -6.0571   -2.7093   -0.3596 C.ar    1  LIG1        0.1760
     25 C          -7.3127   -2.3496   -0.7534 C.ar    1  LIG1        0.1150
     26 C          -8.1346   -3.5318   -0.6620 C.ar    1  LIG1        0.0884
     27 C          -7.3021   -4.5160   -0.2036 C.ar    1  LIG1        0.1526
     28 O          -6.0602   -4.0077   -0.0358 O.2     1  LIG1       -0.4506
     29 N          -7.9346   -0.0092   -1.6358 N.1     1  LIG1       -0.1907
     30 C          -7.6891   -1.0633   -1.2491 C.1     1  LIG1        0.1043
     31 C          -9.4977   -3.6306   -1.0803 C.1     1  LIG1       -0.0645
     32 C         -10.6366   -3.6736   -1.4600 C.1     1  LIG1       -0.1138
     33 H         -11.6443   -3.7101   -1.8058 H       1  LIG1        0.1232
     34 C          -8.5476   -6.4820    0.7649 C.ar    1  LIG1       -0.0398
     35 C          -8.6115   -7.8697    0.9222 C.ar    1  LIG1       -0.0582
     36 C          -7.4612   -5.9599    0.0494 C.ar    1  LIG1        0.0214
     37 C          -7.6307   -8.7086    0.4086 C.ar    1  LIG1       -0.0615
     38 H          -9.4434   -8.2924    1.4727 H       1  LIG1        0.0620
     39 C          -6.4553   -6.7990   -0.4472 C.ar    1  LIG1       -0.0508
     40 C          -6.5388   -8.1715   -0.2713 C.ar    1  LIG1       -0.0611
     41 H          -5.6160   -6.3586   -0.9702 H       1  LIG1        0.0625
     42 H          -7.7100   -9.7788    0.5502 H       1  LIG1        0.0618
     43 C          -9.6180   -5.6133    1.3995 C.3     1  LIG1       -0.0390
     44 H          -9.9822   -6.0964    2.3059 H       1  LIG1        0.0278
     45 H         -10.4532   -5.4712    0.7132 H       1  LIG1        0.0278
     46 H          -9.2215   -4.6314    1.6574 H       1  LIG1        0.0278
     47 H          -5.7623   -8.8160   -0.6601 H       1  LIG1        0.0618
@<TRIPOS>BOND
     1     6     5    1
     2    33    32    1
     3    29    30    3
     4     7     1    1
     5    32    31    3
     6    30    25    1
     7     5     1   ar
     8     5     4   ar
     9    31    26    1
    10    41    39    1
    11     1     2   ar
    12    20    21    1
    13    20    13    1
    14    25    26   ar
    15    25    24   ar
    16    26    27   ar
    17    47    40    1
    18    18    13   ar
    19    18    17   ar
    20    13    14   ar
    21    39    40   ar
    22    39    36   ar
    23    24    17    1
    24    24    28   ar
    25    17    16   ar
    26    40    37   ar
    27    14     4    1
    28    14    15   ar
    29     4     3   ar
    30    27    28   ar
    31    27    36    1
    32    23    22    1
    33    36    34   ar
    34    16    15   ar
    35    16    22    1
    36    15    19    1
    37     2     3   ar
    38     2     8    1
    39    37    42    1
    40    37    35   ar
    41     3    11    1
    42    45    43    1
    43    34    35   ar
    44    34    43    1
    45     8     9    1
    46     8    10    1
    47    35    38    1
    48    43    46    1
    49    43    44    1
    50    11    12    1
