@<TRIPOS>MOLECULE
mol_data/opt/m06hf/geoms/mol2/13hf4de-6af6ha-.out
 47 50 0 0 0
SMALL
GASTEIGER

@<TRIPOS>ATOM
      1 C           1.3398   -0.1196    0.4338 C.ar    1  LIG1        0.0267
      2 C           0.9672    1.1004   -0.0802 C.ar    1  LIG1        0.0848
      3 C          -0.4461    1.0645   -0.2341 C.ar    1  LIG1        0.1629
      4 C          -0.8929   -0.1783    0.1813 C.ar    1  LIG1        0.0917
      5 N           0.2165   -0.8891    0.5593 N.ar    1  LIG1       -0.3561
      6 H           0.1809   -1.7788    1.0298 H       1  LIG1        0.1655
      7 H           2.3095   -0.4819    0.7259 H       1  LIG1        0.0827
      8 N           1.7795    2.2093   -0.3947 N.pl3   1  LIG1       -0.3540
      9 H           2.4952    1.9777   -1.0740 H       1  LIG1        0.1425
     10 H           1.1984    2.9532   -0.7680 H       1  LIG1        0.1425
     11 O          -1.1592    2.0788   -0.8089 O.3     1  LIG1       -0.5031
     12 H          -1.6801    2.5375   -0.1342 H       1  LIG1        0.2923
     13 C          -3.3837   -0.0966    0.5225 C.ar    1  LIG1        0.0616
     14 C          -4.6422   -0.6958    0.4731 C.ar    1  LIG1       -0.0348
     15 C          -2.2226   -0.7932    0.1542 C.ar    1  LIG1        0.0205
     16 C          -4.7847   -2.0216    0.0773 C.ar    1  LIG1        0.0003
     17 H          -5.5122   -0.1292    0.7782 H       1  LIG1        0.0637
     18 C          -2.3745   -2.1226   -0.2484 C.ar    1  LIG1       -0.0353
     19 C          -3.6260   -2.7369   -0.2838 C.ar    1  LIG1        0.0331
     20 H          -1.5107   -2.6800   -0.5846 H       1  LIG1        0.0637
     21 N          -3.2018    2.3384    1.4031 N.1     1  LIG1       -0.1908
     22 C          -3.2829    1.2599    1.0144 C.1     1  LIG1        0.0998
     23 C          -3.6989   -4.1019   -0.7521 C.1     1  LIG1       -0.0690
     24 C          -3.7172   -5.2343   -1.1531 C.1     1  LIG1       -0.1139
     25 H          -3.7404   -6.2367   -1.5146 H       1  LIG1        0.1232
     26 C          -6.4112   -3.8566    0.6491 C.ar    1  LIG1        0.0362
     27 C          -6.1425   -2.6310    0.0321 C.ar    1  LIG1        0.0049
     28 C          -7.1862   -1.9901   -0.6263 C.ar    1  LIG1       -0.0088
     29 C          -8.4474   -2.5742   -0.6281 C.ar    1  LIG1        0.1434
     30 C          -8.6386   -3.7848    0.0572 C.ar    1  LIG1        0.1155
     31 N          -7.6174   -4.4058    0.6532 N.ar    1  LIG1       -0.2506
     32 H          -7.0366   -1.0646   -1.1680 H       1  LIG1        0.0661
     33 H          -5.6257   -4.3999    1.1585 H       1  LIG1        0.0836
     34 O          -9.4381   -1.9500   -1.3105 O.3     1  LIG1       -0.5046
     35 H         -10.1716   -2.5635   -1.4542 H       1  LIG1        0.2922
     36 C         -10.1644   -5.8094   -0.1019 C.ar    1  LIG1        0.1255
     37 C          -9.9873   -4.4150    0.1135 C.ar    1  LIG1        0.0434
     38 C         -11.1238   -3.6617    0.3910 C.ar    1  LIG1       -0.0477
     39 C         -12.3837   -4.2565    0.3937 C.ar    1  LIG1       -0.0428
     40 C         -12.4430   -5.6159    0.1154 C.ar    1  LIG1        0.0297
     41 N         -11.3742   -6.3725   -0.1140 N.ar    1  LIG1       -0.2401
     42 H         -11.0167   -2.6054    0.6149 H       1  LIG1        0.0626
     43 H         -13.3964   -6.1309    0.0871 H       1  LIG1        0.0830
     44 N          -9.1036   -6.6296   -0.3415 N.pl3   1  LIG1       -0.3426
     45 H          -9.3305   -7.6124   -0.3480 H       1  LIG1        0.1437
     46 H          -8.2136   -6.3437    0.0428 H       1  LIG1        0.1437
     47 H         -13.2778   -3.6903    0.6062 H       1  LIG1        0.0633
@<TRIPOS>BOND
     1    25    24    1
     2    35    34    1
     3    34    29    1
     4    32    28    1
     5    24    23    3
     6     9     8    1
     7    11     3    1
     8    11    12    1
     9    10     8    1
    10    23    19    1
    11    29    28   ar
    12    29    30   ar
    13    28    27   ar
    14    20    18    1
    15     8     2    1
    16    45    44    1
    17    44    36    1
    18    44    46    1
    19    19    18   ar
    20    19    16   ar
    21    18    15   ar
    22     3     2   ar
    23     3     4   ar
    24    41    36   ar
    25    41    40   ar
    26    36    37   ar
    27     2     1   ar
    28    27    16    1
    29    27    26   ar
    30    30    37    1
    31    30    31   ar
    32    16    14   ar
    33    43    40    1
    34    37    38   ar
    35    40    39   ar
    36    15     4    1
    37    15    13   ar
    38     4     5   ar
    39    38    39   ar
    40    38    42    1
    41    39    47    1
    42     1     5   ar
    43     1     7    1
    44    14    13   ar
    45    14    17    1
    46    13    22    1
    47     5     6    1
    48    26    31   ar
    49    26    33    1
    50    22    21    3
