@<TRIPOS>MOLECULE
mol_data/opt/m06hf/geoms/mol2/13hf13hf.out
 24 25 0 0 0
SMALL
GASTEIGER

@<TRIPOS>ATOM
      1 C           1.2590   -0.3719   -0.3628 C.ar    1  LIG1        0.0267
      2 C           0.8451    0.9092   -0.0959 C.ar    1  LIG1        0.0849
      3 C          -0.5729    0.8627    0.0697 C.ar    1  LIG1        0.1643
      4 C          -0.9686   -0.4470   -0.0995 C.ar    1  LIG1        0.1087
      5 N           0.1672   -1.1927   -0.3471 N.ar    1  LIG1       -0.3549
      6 H           0.1606   -2.1395   -0.6866 H       1  LIG1        0.1655
      7 H           2.2495   -0.7384   -0.5680 H       1  LIG1        0.0827
      8 N           1.6762    2.0605    0.0050 N.pl3   1  LIG1       -0.3540
      9 H           1.1748    2.8588   -0.3754 H       1  LIG1        0.1425
     10 H           1.8648    2.2728    0.9813 H       1  LIG1        0.1425
     11 O          -1.3381    1.9414    0.3484 O.3     1  LIG1       -0.5031
     12 H          -2.2565    1.7642    0.0073 H       1  LIG1        0.2923
     13 C          -2.3117   -0.9973   -0.0118 C.ar    1  LIG1        0.0911
     14 C          -3.5071   -0.3625   -0.2667 C.ar    1  LIG1        0.0938
     15 C          -4.5452   -1.2969   -0.0022 C.ar    1  LIG1        0.1554
     16 C          -3.9650   -2.4721    0.3991 C.ar    1  LIG1        0.0461
     17 N          -2.6021   -2.2733    0.3788 N.ar    1  LIG1       -0.3549
     18 H          -1.9232   -2.9106    0.7601 H       1  LIG1        0.1655
     19 H          -4.3998   -3.4135    0.6843 H       1  LIG1        0.0845
     20 N          -3.6456    0.9880   -0.7120 N.pl3   1  LIG1       -0.3535
     21 H          -3.6022    1.0479   -1.7276 H       1  LIG1        0.1425
     22 H          -4.5479    1.3533   -0.4164 H       1  LIG1        0.1425
     23 O          -5.8632   -0.9757   -0.1784 O.3     1  LIG1       -0.5035
     24 H          -6.4218   -1.5641    0.3388 H       1  LIG1        0.2923
@<TRIPOS>BOND
     1    21    20    1
     2    20    22    1
     3    20    14    1
     4     6     5    1
     5     7     1    1
     6     9     8    1
     7     1     5   ar
     8     1     2   ar
     9     5     4   ar
    10    14    13   ar
    11    14    15   ar
    12    23    15    1
    13    23    24    1
    14     4    13    1
    15     4     3   ar
    16     2     8    1
    17     2     3   ar
    18    13    17   ar
    19    15    16   ar
    20     8    10    1
    21    12    11    1
    22     3    11    1
    23    17    16   ar
    24    17    18    1
    25    16    19    1
