@<TRIPOS>MOLECULE
mol_data/opt/m06hf/geoms/mol2/13hf6fh6ef12fa-.out
 45 48 0 0 0
SMALL
GASTEIGER

@<TRIPOS>ATOM
      1 C           1.3678   -0.2327    0.1613 C.ar    1  LIG1        0.0267
      2 C           0.9359    1.0704    0.0470 C.ar    1  LIG1        0.0848
      3 C          -0.4817    1.0193    0.0225 C.ar    1  LIG1        0.1630
      4 C          -0.8783   -0.2996    0.1234 C.ar    1  LIG1        0.0956
      5 N           0.2700   -1.0431    0.2121 N.ar    1  LIG1       -0.3560
      6 H           0.2701   -2.0522    0.2264 H       1  LIG1        0.1655
      7 H           2.3669   -0.6259    0.2241 H       1  LIG1        0.0827
      8 N           1.7137    2.2502    0.0054 N.pl3   1  LIG1       -0.3540
      9 H           2.3122    2.2761   -0.8132 H       1  LIG1        0.1425
     10 H           1.0967    3.0560   -0.0195 H       1  LIG1        0.1425
     11 O          -1.2813    2.1328   -0.0986 O.3     1  LIG1       -0.5031
     12 H          -1.8576    2.1970    0.6727 H       1  LIG1        0.2923
     13 C          -2.5293   -2.0992    0.7193 C.ar    1  LIG1        0.2224
     14 C          -2.2282   -0.8754    0.0925 C.ar    1  LIG1        0.0650
     15 C          -3.2645   -0.2259   -0.5666 C.ar    1  LIG1       -0.0246
     16 C          -4.5393   -0.7985   -0.6089 C.ar    1  LIG1        0.0519
     17 C          -4.7073   -2.0337    0.0349 C.ar    1  LIG1        0.0982
     18 N          -3.7157   -2.6494    0.6805 N.ar    1  LIG1       -0.2105
     19 H          -3.0654    0.7145   -1.0675 H       1  LIG1        0.0645
     20 O          -1.5505   -2.7938    1.3881 O.3     1  LIG1       -0.4919
     21 H          -1.0942   -2.1903    1.9903 H       1  LIG1        0.2937
     22 N          -5.5982   -0.1488   -1.2439 N.pl3   1  LIG1       -0.3563
     23 H          -5.3121    0.5010   -1.9634 H       1  LIG1        0.1424
     24 H          -6.3369   -0.7652   -1.5582 H       1  LIG1        0.1424
     25 C          -6.2006   -4.0176   -0.4664 C.ar    1  LIG1        0.1234
     26 C          -6.0372   -2.7133    0.0356 C.ar    1  LIG1        0.0396
     27 C          -7.1589   -2.0722    0.5424 C.ar    1  LIG1       -0.0060
     28 C          -8.3894   -2.7257    0.5673 C.ar    1  LIG1        0.1466
     29 C          -8.4421   -4.0342    0.0554 C.ar    1  LIG1        0.1522
     30 N          -7.3720   -4.6414   -0.4506 N.ar    1  LIG1       -0.2308
     31 H          -7.0990   -1.0662    0.9389 H       1  LIG1        0.0662
     32 C          -5.0874   -4.7318   -1.0595 C.1     1  LIG1       -0.0491
     33 C          -4.1695   -5.3174   -1.5641 C.1     1  LIG1       -0.1124
     34 H          -3.3535   -5.8448   -1.9997 H       1  LIG1        0.1232
     35 O          -9.4333   -2.0796    1.1187 O.3     1  LIG1       -0.5045
     36 H         -10.2908   -2.4132    0.7916 H       1  LIG1        0.2922
     37 C          -9.6791   -4.8409    0.0736 C.ar    1  LIG1        0.1976
     38 C         -11.0119   -4.5557    0.0917 C.ar    1  LIG1        0.1643
     39 C         -11.7243   -5.7979    0.0840 C.ar    1  LIG1        0.0185
     40 C         -10.7538   -6.7455    0.0598 C.ar    1  LIG1        0.0963
     41 O          -9.5392   -6.1855    0.0481 O.2     1  LIG1       -0.4575
     42 H         -10.7857   -7.8204    0.0463 H       1  LIG1        0.1031
     43 O         -11.5429   -3.2888    0.0585 O.3     1  LIG1       -0.5032
     44 H         -12.4236   -3.2809    0.4493 H       1  LIG1        0.2923
     45 H         -12.7908   -5.9472    0.0823 H       1  LIG1        0.0686
@<TRIPOS>BOND
     1    34    33    1
     2    23    22    1
     3    33    32    3
     4    24    22    1
     5    22    16    1
     6    19    15    1
     7    32    25    1
     8     9     8    1
     9    16    15   ar
    10    16    17   ar
    11    15    14   ar
    12    25    30   ar
    13    25    26   ar
    14    30    29   ar
    15    11     3    1
    16    11    12    1
    17    10     8    1
    18     8     2    1
    19     3     2   ar
    20     3     4   ar
    21    17    26    1
    22    17    18   ar
    23    26    27   ar
    24    42    40    1
    25     2     1   ar
    26    41    40   ar
    27    41    37   ar
    28    29    37    1
    29    29    28   ar
    30    43    38    1
    31    43    44    1
    32    40    39   ar
    33    37    38   ar
    34    45    39    1
    35    39    38   ar
    36    14     4    1
    37    14    13   ar
    38     4     5   ar
    39     1     5   ar
    40     1     7    1
    41     5     6    1
    42    27    28   ar
    43    27    31    1
    44    28    35    1
    45    18    13   ar
    46    13    20    1
    47    36    35    1
    48    20    21    1
