@<TRIPOS>MOLECULE
mol_data/opt/m06hf/geoms/mol2/13hf13hf-.out
 24 25 0 0 0
SMALL
GASTEIGER

@<TRIPOS>ATOM
      1 C           1.1530   -0.3408   -0.1165 C.ar    1  LIG1        0.0267
      2 C           0.7239    0.9663   -0.1459 C.ar    1  LIG1        0.0849
      3 C          -0.7001    0.9194   -0.1217 C.ar    1  LIG1        0.1643
      4 C          -1.0934   -0.3954   -0.0786 C.ar    1  LIG1        0.1087
      5 N           0.0575   -1.1463   -0.0763 N.ar    1  LIG1       -0.3549
      6 H           0.0634   -2.1512   -0.0438 H       1  LIG1        0.1655
      7 H           2.1567   -0.7269   -0.1207 H       1  LIG1        0.0827
      8 N           1.5564    2.1180   -0.1925 N.pl3   1  LIG1       -0.3540
      9 H           1.4949    2.6265   -1.0672 H       1  LIG1        0.1425
     10 H           1.4157    2.7436    0.5928 H       1  LIG1        0.1425
     11 O          -1.5662    1.9825   -0.1240 O.3     1  LIG1       -0.5031
     12 H          -1.0709    2.7845   -0.3243 H       1  LIG1        0.2923
     13 C          -2.4343   -0.9569   -0.0425 C.ar    1  LIG1        0.0911
     14 C          -2.8918   -2.2638   -0.0101 C.ar    1  LIG1        0.0938
     15 C          -4.3107   -2.2023    0.0113 C.ar    1  LIG1        0.1554
     16 C          -4.6835   -0.8833   -0.0079 C.ar    1  LIG1        0.0461
     17 N          -3.5240   -0.1450   -0.0404 N.ar    1  LIG1       -0.3549
     18 H          -3.4500    0.8621   -0.0626 H       1  LIG1        0.1655
     19 H          -5.6558   -0.4281    0.0000 H       1  LIG1        0.0845
     20 N          -2.2120   -3.5169    0.0020 N.pl3   1  LIG1       -0.3535
     21 H          -1.6793   -3.7100   -0.8385 H       1  LIG1        0.1425
     22 H          -1.6589   -3.6827    0.8353 H       1  LIG1        0.1425
     23 O          -5.1067   -3.3028    0.0451 O.3     1  LIG1       -0.5035
     24 H          -4.4996   -4.0585    0.0487 H       1  LIG1        0.2923
@<TRIPOS>BOND
     1     9     8    1
     2    21    20    1
     3    12    11    1
     4     8     2    1
     5     8    10    1
     6     2     3   ar
     7     2     1   ar
     8    11     3    1
     9     3     4   ar
    10     7     1    1
    11     1     5   ar
    12     4     5   ar
    13     4    13    1
    14     5     6    1
    15    18    17    1
    16    13    17   ar
    17    13    14   ar
    18    17    16   ar
    19    14    20    1
    20    14    15   ar
    21    16    19    1
    22    16    15   ar
    23    20    22    1
    24    15    23    1
    25    23    24    1
