@<TRIPOS>MOLECULE
mol_data/opt/m06hf/geoms/mol2/13hf13hf-13hf-13hf.out
 46 49 0 0 0
SMALL
GASTEIGER

@<TRIPOS>ATOM
      1 C           1.3059   -0.4949   -0.0584 C.ar    1  LIG1        0.0267
      2 C           0.9084    0.7546    0.3601 C.ar    1  LIG1        0.0849
      3 C          -0.5154    0.7435    0.3527 C.ar    1  LIG1        0.1643
      4 C          -0.9402   -0.4943   -0.0646 C.ar    1  LIG1        0.1087
      5 N           0.1923   -1.2339   -0.3101 N.ar    1  LIG1       -0.3549
      6 H           0.1758   -2.1867   -0.6301 H       1  LIG1        0.1655
      7 H           2.3014   -0.8811   -0.1889 H       1  LIG1        0.0827
      8 N           1.7705    1.8252    0.7223 N.pl3   1  LIG1       -0.3540
      9 H           1.6683    2.6423    0.1313 H       1  LIG1        0.1425
     10 H           1.7075    2.0832    1.7006 H       1  LIG1        0.1425
     11 O          -1.3582    1.7682    0.6936 O.3     1  LIG1       -0.5031
     12 H          -0.8331    2.5075    1.0195 H       1  LIG1        0.2923
     13 C          -2.2951   -0.9907   -0.2299 C.ar    1  LIG1        0.0916
     14 C          -2.7898   -2.2237   -0.6258 C.ar    1  LIG1        0.0945
     15 C          -4.2031   -2.1281   -0.5886 C.ar    1  LIG1        0.1650
     16 C          -4.5463   -0.8618   -0.1749 C.ar    1  LIG1        0.1092
     17 N          -3.3619   -0.1907    0.0364 N.ar    1  LIG1       -0.3473
     18 H          -3.2694    0.7431    0.4134 H       1  LIG1        0.1662
     19 N          -2.1510   -3.4265   -1.0443 N.pl3   1  LIG1       -0.3534
     20 H          -1.6154   -3.3367   -1.9002 H       1  LIG1        0.1425
     21 H          -1.6143   -3.8893   -0.3190 H       1  LIG1        0.1425
     22 O          -5.0361   -3.1462   -0.9386 O.3     1  LIG1       -0.5030
     23 H          -4.4551   -3.8713   -1.2161 H       1  LIG1        0.2923
     24 C          -5.8558   -0.2618    0.0243 C.ar    1  LIG1        0.0916
     25 C          -7.0248   -0.8652    0.4605 C.ar    1  LIG1        0.0945
     26 C          -8.0177    0.1402    0.4765 C.ar    1  LIG1        0.1650
     27 C          -7.4439    1.3205    0.0699 C.ar    1  LIG1        0.1092
     28 N          -6.1257    1.0546   -0.2034 N.ar    1  LIG1       -0.3473
     29 H          -5.5275    1.7686   -0.6065 H       1  LIG1        0.1662
     30 N          -7.3068   -2.2058    0.8500 N.pl3   1  LIG1       -0.3534
     31 H          -6.9486   -2.8566    0.1543 H       1  LIG1        0.1425
     32 H          -6.8550   -2.4266    1.7337 H       1  LIG1        0.1425
     33 O          -9.3163   -0.0455    0.8489 O.3     1  LIG1       -0.5030
     34 H          -9.4048   -0.9976    1.0117 H       1  LIG1        0.2923
     35 C          -8.0193    2.6381   -0.1018 C.ar    1  LIG1        0.0912
     36 C          -7.4328    3.7964   -0.5662 C.ar    1  LIG1        0.0938
     37 C          -8.4426    4.7976   -0.5431 C.ar    1  LIG1        0.1554
     38 C          -9.5993    4.2261   -0.0724 C.ar    1  LIG1        0.0461
     39 N          -9.3172    2.9059    0.1922 N.ar    1  LIG1       -0.3549
     40 H          -9.9542    2.2051    0.5425 H       1  LIG1        0.1655
     41 H         -10.5766    4.6435    0.0932 H       1  LIG1        0.0845
     42 N          -6.0685    3.9053   -0.9843 N.pl3   1  LIG1       -0.3535
     43 H          -6.0257    4.2059   -1.9551 H       1  LIG1        0.1425
     44 H          -5.5915    4.6161   -0.4352 H       1  LIG1        0.1425
     45 O          -8.1961    6.0831   -0.9440 O.3     1  LIG1       -0.5035
     46 H          -8.9925    6.6147   -0.8487 H       1  LIG1        0.2923
@<TRIPOS>BOND
     1    43    42    1
     2    20    19    1
     3    23    22    1
     4    19    14    1
     5    19    21    1
     6    42    36    1
     7    42    44    1
     8    45    46    1
     9    45    37    1
    10    22    15    1
    11     6     5    1
    12    14    15   ar
    13    14    13   ar
    14    29    28    1
    15    15    16   ar
    16    36    37   ar
    17    36    35   ar
    18    37    38   ar
    19     5     4   ar
    20     5     1   ar
    21    13     4    1
    22    13    17   ar
    23    28    24   ar
    24    28    27   ar
    25     7     1    1
    26    16    24    1
    27    16    17   ar
    28    35    27    1
    29    35    39   ar
    30    38    41    1
    31    38    39   ar
    32     4     3   ar
    33     1     2   ar
    34    24    25   ar
    35    17    18    1
    36    27    26   ar
    37     9     8    1
    38    31    30    1
    39    39    40    1
    40     3     2   ar
    41     3    11    1
    42     2     8    1
    43    25    26   ar
    44    25    30    1
    45    26    33    1
    46    11    12    1
    47     8    10    1
    48    33    34    1
    49    30    32    1
