@<TRIPOS>MOLECULE
mol_data/opt/m06hf/geoms/mol2/13hf13hf-13hf-13hf-.out
 46 49 0 0 0
SMALL
GASTEIGER

@<TRIPOS>ATOM
      1 C           1.3022   -0.5180    0.1821 C.ar    1  LIG1        0.0267
      2 C           0.8874    0.7404    0.5551 C.ar    1  LIG1        0.0849
      3 C          -0.5318    0.7415    0.4419 C.ar    1  LIG1        0.1643
      4 C          -0.9364   -0.4981    0.0101 C.ar    1  LIG1        0.1087
      5 N           0.2036   -1.2507   -0.1421 N.ar    1  LIG1       -0.3549
      6 H           0.2036   -2.2068   -0.4520 H       1  LIG1        0.1655
      7 H           2.3008   -0.9151    0.1302 H       1  LIG1        0.0827
      8 N           1.7304    1.8073    0.9673 N.pl3   1  LIG1       -0.3540
      9 H           1.6612    2.6274    0.3755 H       1  LIG1        0.1425
     10 H           1.6199    2.0607    1.9425 H       1  LIG1        0.1425
     11 O          -1.3867    1.7807    0.7004 O.3     1  LIG1       -0.5031
     12 H          -0.8897    2.4984    1.1087 H       1  LIG1        0.2923
     13 C          -2.2824   -0.9816   -0.2438 C.ar    1  LIG1        0.0916
     14 C          -2.7687   -2.2182   -0.6379 C.ar    1  LIG1        0.0945
     15 C          -4.1803   -2.0999   -0.7004 C.ar    1  LIG1        0.1650
     16 C          -4.5296   -0.8180   -0.3470 C.ar    1  LIG1        0.1092
     17 N          -3.3503   -0.1569   -0.0754 N.ar    1  LIG1       -0.3473
     18 H          -3.2628    0.7742    0.3089 H       1  LIG1        0.1662
     19 N          -2.1252   -3.4438   -0.9720 N.pl3   1  LIG1       -0.3534
     20 H          -1.5422   -3.3977   -1.7999 H       1  LIG1        0.1425
     21 H          -1.6390   -3.8850   -0.1996 H       1  LIG1        0.1425
     22 O          -5.0061   -3.1127   -1.0765 O.3     1  LIG1       -0.5030
     23 H          -4.4242   -3.8636   -1.2731 H       1  LIG1        0.2923
     24 C          -5.8469   -0.2108   -0.2420 C.ar    1  LIG1        0.0916
     25 C          -7.0277   -0.7925    0.1757 C.ar    1  LIG1        0.0945
     26 C          -8.0329    0.2014    0.0817 C.ar    1  LIG1        0.1650
     27 C          -7.4601    1.3650   -0.3742 C.ar    1  LIG1        0.1092
     28 N          -6.1206    1.0883   -0.5674 N.ar    1  LIG1       -0.3473
     29 H          -5.4468    1.7560   -0.9048 H       1  LIG1        0.1662
     30 N          -7.3223   -2.1134    0.6161 N.pl3   1  LIG1       -0.3534
     31 H          -6.9222   -2.7959   -0.0248 H       1  LIG1        0.1425
     32 H          -6.9250   -2.2855    1.5361 H       1  LIG1        0.1425
     33 O          -9.3367   -0.0138    0.4017 O.3     1  LIG1       -0.5030
     34 H          -9.3977   -0.9629    0.5959 H       1  LIG1        0.2923
     35 C          -8.0669    2.6676   -0.6042 C.ar    1  LIG1        0.0912
     36 C          -9.0561    3.2880    0.1263 C.ar    1  LIG1        0.0938
     37 C          -9.3340    4.5260   -0.5154 C.ar    1  LIG1        0.1554
     38 C          -8.5130    4.6387   -1.6055 C.ar    1  LIG1        0.0461
     39 N          -7.7375    3.4967   -1.6413 N.ar    1  LIG1       -0.3549
     40 H          -7.1804    3.2134   -2.4301 H       1  LIG1        0.1655
     41 H          -8.4218    5.4176   -2.3396 H       1  LIG1        0.0845
     42 N          -9.7482    2.8815    1.3022 N.pl3   1  LIG1       -0.3535
     43 H         -10.0927    1.9290    1.1936 H       1  LIG1        0.1425
     44 H          -9.1319    2.8952    2.1105 H       1  LIG1        0.1425
     45 O         -10.2618    5.4040   -0.0553 O.3     1  LIG1       -0.5035
     46 H         -10.6773    4.9556    0.6985 H       1  LIG1        0.2923
@<TRIPOS>BOND
     1    40    39    1
     2    41    38    1
     3    20    19    1
     4    39    38   ar
     5    39    35   ar
     6    38    37   ar
     7    23    22    1
     8    22    15    1
     9    19    14    1
    10    19    21    1
    11    29    28    1
    12    15    14   ar
    13    15    16   ar
    14    14    13   ar
    15    35    27    1
    16    35    36   ar
    17    28    27   ar
    18    28    24   ar
    19    37    45    1
    20    37    36   ar
    21     6     5    1
    22    27    26   ar
    23    16    24    1
    24    16    17   ar
    25    13    17   ar
    26    13     4    1
    27    24    25   ar
    28     5     4   ar
    29     5     1   ar
    30    17    18    1
    31    45    46    1
    32    31    30    1
    33     4     3   ar
    34    26    25   ar
    35    26    33    1
    36    36    42    1
    37     7     1    1
    38    25    30    1
    39     1     2   ar
    40     9     8    1
    41    33    34    1
    42     3     2   ar
    43     3    11    1
    44     2     8    1
    45    30    32    1
    46    11    12    1
    47     8    10    1
    48    43    42    1
    49    42    44    1
