@<TRIPOS>MOLECULE
mol_data/opt/m06hf/geoms/mol2/13hf13hf-13hf13hf-.out
 46 49 0 0 0
SMALL
GASTEIGER

@<TRIPOS>ATOM
      1 C           6.4585    0.6951   -0.1328 C.ar    1  LIG1        0.0267
      2 C           6.2293   -0.6549   -0.0203 C.ar    1  LIG1        0.0849
      3 C           4.8158   -0.8158    0.0545 C.ar    1  LIG1        0.1643
      4 C           4.2310    0.4276   -0.0193 C.ar    1  LIG1        0.1087
      5 N           5.2512    1.3350   -0.1227 N.ar    1  LIG1       -0.3549
      6 H           5.1091    2.3260   -0.2151 H       1  LIG1        0.1655
      7 H           7.3903    1.2237   -0.2265 H       1  LIG1        0.0827
      8 N           7.2196   -1.6758   -0.0033 N.pl3   1  LIG1       -0.3540
      9 H           7.4503   -1.9592    0.9441 H       1  LIG1        0.1425
     10 H           6.8865   -2.4919   -0.5070 H       1  LIG1        0.1425
     11 O           4.1295   -2.0107    0.1177 O.3     1  LIG1       -0.5031
     12 H           4.1951   -2.3682    1.0114 H       1  LIG1        0.2923
     13 C           2.8209    0.7825   -0.0058 C.ar    1  LIG1        0.0916
     14 C           2.1799    2.0166    0.0300 C.ar    1  LIG1        0.0945
     15 C           0.7928    1.7473    0.0445 C.ar    1  LIG1        0.1650
     16 C           0.6164    0.3838    0.0171 C.ar    1  LIG1        0.1092
     17 N           1.8633   -0.1795   -0.0123 N.ar    1  LIG1       -0.3473
     18 H           2.0224   -1.1823   -0.0623 H       1  LIG1        0.1662
     19 N           2.6670    3.3556    0.0619 N.pl3   1  LIG1       -0.3534
     20 H           3.2407    3.5663    0.8711 H       1  LIG1        0.1425
     21 H           3.1213    3.6509   -0.7952 H       1  LIG1        0.1425
     22 O          -0.1950    2.6889    0.0801 O.3     1  LIG1       -0.5030
     23 H           0.2562    3.5461    0.1125 H       1  LIG1        0.2923
     24 C          -0.6083   -0.3854    0.0086 C.ar    1  LIG1        0.0916
     25 C          -0.8052   -1.7506    0.0004 C.ar    1  LIG1        0.0945
     26 C          -2.2142   -1.9469   -0.0153 C.ar    1  LIG1        0.1650
     27 C          -2.8248   -0.7112   -0.0222 C.ar    1  LIG1        0.1092
     28 N          -1.8259    0.2239   -0.0065 N.ar    1  LIG1       -0.3473
     29 H          -1.9443    1.2271   -0.0205 H       1  LIG1        0.1662
     30 N           0.2553   -2.7091   -0.0113 N.pl3   1  LIG1       -0.3534
     31 H           0.2113   -3.3159    0.8027 H       1  LIG1        0.1425
     32 H           0.1920   -3.2977   -0.8377 H       1  LIG1        0.1425
     33 O          -2.8813   -3.1571   -0.0645 O.3     1  LIG1       -0.5030
     34 H          -2.8696   -3.5575    0.8131 H       1  LIG1        0.2923
     35 C          -4.2394   -0.3799   -0.0609 C.ar    1  LIG1        0.0912
     36 C          -4.9040    0.8273    0.0710 C.ar    1  LIG1        0.0938
     37 C          -6.2909    0.5464   -0.0484 C.ar    1  LIG1        0.1554
     38 C          -6.4415   -0.8017   -0.2492 C.ar    1  LIG1        0.0461
     39 N          -5.1786   -1.3447   -0.2508 N.ar    1  LIG1       -0.3549
     40 H          -4.9310   -2.3111   -0.4040 H       1  LIG1        0.1655
     41 H          -7.3252   -1.3956   -0.3892 H       1  LIG1        0.0845
     42 N          -4.4401    2.1572    0.2928 N.pl3   1  LIG1       -0.3535
     43 H          -3.8997    2.2625    1.1447 H       1  LIG1        0.1425
     44 H          -3.9329    2.5473   -0.4947 H       1  LIG1        0.1425
     45 O          -7.2544    1.5007    0.0328 O.3     1  LIG1       -0.5035
     46 H          -6.7802    2.3262    0.2156 H       1  LIG1        0.2923
@<TRIPOS>BOND
     1    32    30    1
     2    21    19    1
     3    10     8    1
     4    44    42    1
     5    40    39    1
     6    41    38    1
     7    39    38   ar
     8    39    35   ar
     9    38    37   ar
    10     7     1    1
    11     6     5    1
    12     1     5   ar
    13     1     2   ar
    14     5     4   ar
    15    33    26    1
    16    33    34    1
    17    18    17    1
    18    35    27    1
    19    35    36   ar
    20    37    45    1
    21    37    36   ar
    22    27    26   ar
    23    27    28   ar
    24    29    28    1
    25     2     8    1
    26     2     3   ar
    27     4    13    1
    28     4     3   ar
    29    26    25   ar
    30    17    13   ar
    31    17    16   ar
    32    30    25    1
    33    30    31    1
    34    28    24   ar
    35    13    14   ar
    36     8     9    1
    37    25    24   ar
    38    24    16    1
    39    16    15   ar
    40    14    15   ar
    41    14    19    1
    42    45    46    1
    43    15    22    1
    44     3    11    1
    45    19    20    1
    46    36    42    1
    47    22    23    1
    48    11    12    1
    49    42    43    1
