@<TRIPOS>MOLECULE
mol_data/opt/m06hf/geoms/mol2/13hf13hf13hf-13hf-.out
 46 49 0 0 0
SMALL
GASTEIGER

@<TRIPOS>ATOM
      1 C           1.3460   -0.1751    0.4089 C.ar    1  LIG1        0.0267
      2 C           0.7978    1.0282    0.7779 C.ar    1  LIG1        0.0849
      3 C          -0.6090    0.9304    0.5538 C.ar    1  LIG1        0.1643
      4 C          -0.8647   -0.3317    0.0583 C.ar    1  LIG1        0.1087
      5 N           0.3426   -1.0009   -0.0078 N.ar    1  LIG1       -0.3549
      6 H           0.4845   -1.8721   -0.4899 H       1  LIG1        0.1655
      7 H           2.3774   -0.4817    0.4129 H       1  LIG1        0.0827
      8 N           1.5048    2.1495    1.2958 N.pl3   1  LIG1       -0.3540
      9 H           1.1142    2.9997    0.8983 H       1  LIG1        0.1425
     10 H           1.3729    2.2118    2.3021 H       1  LIG1        0.1425
     11 O          -1.4848    1.9238    0.8141 O.3     1  LIG1       -0.5031
     12 H          -2.2843    1.7930    0.2379 H       1  LIG1        0.2923
     13 C          -2.1459   -0.9198   -0.2890 C.ar    1  LIG1        0.0916
     14 C          -3.2969   -0.2760   -0.6981 C.ar    1  LIG1        0.0945
     15 C          -4.2924   -1.2717   -0.8698 C.ar    1  LIG1        0.1650
     16 C          -3.7364   -2.4913   -0.5640 C.ar    1  LIG1        0.1092
     17 N          -2.4147   -2.2582   -0.2371 N.ar    1  LIG1       -0.3473
     18 H          -1.8331   -2.9340    0.2322 H       1  LIG1        0.1662
     19 N          -3.4186    1.1309   -0.9155 N.pl3   1  LIG1       -0.3534
     20 H          -3.1583    1.3815   -1.8670 H       1  LIG1        0.1425
     21 H          -4.3801    1.4249   -0.7648 H       1  LIG1        0.1425
     22 O          -5.5636   -1.0057   -1.2872 O.3     1  LIG1       -0.5030
     23 H          -5.9751   -1.8279   -1.5820 H       1  LIG1        0.2923
     24 C          -4.3649   -3.8055   -0.5810 C.ar    1  LIG1        0.0916
     25 C          -3.9611   -5.0101   -1.1211 C.ar    1  LIG1        0.0945
     26 C          -5.0086   -5.9418   -0.8914 C.ar    1  LIG1        0.1650
     27 C          -6.0249   -5.3043   -0.2225 C.ar    1  LIG1        0.1092
     28 N          -5.6186   -3.9944   -0.0543 N.ar    1  LIG1       -0.3473
     29 H          -6.0358   -3.3557    0.6070 H       1  LIG1        0.1662
     30 N          -2.8192   -5.3700   -1.8914 N.pl3   1  LIG1       -0.3534
     31 H          -2.6049   -4.6719   -2.5965 H       1  LIG1        0.1425
     32 H          -1.9956   -5.5249   -1.3191 H       1  LIG1        0.1425
     33 O          -4.9843   -7.2251   -1.3353 O.3     1  LIG1       -0.5030
     34 H          -4.2171   -7.2881   -1.9259 H       1  LIG1        0.2923
     35 C          -7.3015   -5.8213    0.2462 C.ar    1  LIG1        0.0912
     36 C          -7.6059   -7.0891    0.6952 C.ar    1  LIG1        0.0938
     37 C          -8.9941   -7.0983    1.0017 C.ar    1  LIG1        0.1554
     38 C          -9.4988   -5.8502    0.7496 C.ar    1  LIG1        0.0461
     39 N          -8.4491   -5.0800    0.2936 N.ar    1  LIG1       -0.3549
     40 H          -8.5495   -4.1635   -0.1088 H       1  LIG1        0.1655
     41 H         -10.4939   -5.4596    0.8527 H       1  LIG1        0.0845
     42 N          -6.7979   -8.2469    0.8711 N.pl3   1  LIG1       -0.3535
     43 H          -6.2342   -8.4198    0.0420 H       1  LIG1        0.1425
     44 H          -6.1681   -8.1392    1.6616 H       1  LIG1        0.1425
     45 O          -9.6401   -8.1938    1.4732 O.3     1  LIG1       -0.5035
     46 H          -8.9783   -8.9035    1.4596 H       1  LIG1        0.2923
@<TRIPOS>BOND
     1    31    30    1
     2    34    33    1
     3    30    32    1
     4    30    25    1
     5    20    19    1
     6    23    22    1
     7    33    26    1
     8    22    15    1
     9    25    26   ar
    10    25    24   ar
    11    19    21    1
    12    19    14    1
    13    26    27   ar
    14    15    14   ar
    15    15    16   ar
    16    14    13   ar
    17    24    16    1
    18    24    28   ar
    19    16    17   ar
    20     6     5    1
    21    13    17   ar
    22    13     4    1
    23    17    18    1
    24    27    28   ar
    25    27    35    1
    26    40    39    1
    27    28    29    1
    28     5     4   ar
    29     5     1   ar
    30    43    42    1
    31     4     3   ar
    32    12    11    1
    33    35    39   ar
    34    35    36   ar
    35    39    38   ar
    36     1     7    1
    37     1     2   ar
    38     3     2   ar
    39     3    11    1
    40    36    42    1
    41    36    37   ar
    42    38    41    1
    43    38    37   ar
    44     2     8    1
    45    42    44    1
    46     9     8    1
    47    37    45    1
    48     8    10    1
    49    46    45    1
