@<TRIPOS>MOLECULE
mol_data/opt/m06hf/geoms/mol2/13hf13hf13hf13hf-.out
 46 49 0 0 0
SMALL
GASTEIGER

@<TRIPOS>ATOM
      1 C           1.2772    0.4043   -0.7445 C.ar    1  LIG1        0.0267
      2 C           0.8385    1.4279    0.0569 C.ar    1  LIG1        0.0849
      3 C          -0.5321    1.1612    0.3609 C.ar    1  LIG1        0.1643
      4 C          -0.8747   -0.0192   -0.2649 C.ar    1  LIG1        0.1087
      5 N           0.2506   -0.4783   -0.9245 N.ar    1  LIG1       -0.3549
      6 H           0.2446   -1.2035   -1.6219 H       1  LIG1        0.1655
      7 H           2.2436    0.2611   -1.1952 H       1  LIG1        0.0827
      8 N           1.6151    2.5338    0.5066 N.pl3   1  LIG1       -0.3540
      9 H           1.0567    3.3804    0.4308 H       1  LIG1        0.1425
     10 H           1.8366    2.4221    1.4928 H       1  LIG1        0.1425
     11 O          -1.2993    1.9500    1.1417 O.3     1  LIG1       -0.5031
     12 H          -2.2539    1.7983    0.8947 H       1  LIG1        0.2923
     13 C          -2.1477   -0.7179   -0.2213 C.ar    1  LIG1        0.0916
     14 C          -3.4068   -0.1828   -0.0378 C.ar    1  LIG1        0.0945
     15 C          -4.3379   -1.2542   -0.0375 C.ar    1  LIG1        0.1650
     16 C          -3.6232   -2.4214   -0.2240 C.ar    1  LIG1        0.1092
     17 N          -2.2910   -2.0696   -0.3480 N.ar    1  LIG1       -0.3473
     18 H          -1.5287   -2.7117   -0.4823 H       1  LIG1        0.1662
     19 N          -3.6938    1.2063    0.1391 N.pl3   1  LIG1       -0.3534
     20 H          -3.8448    1.6658   -0.7567 H       1  LIG1        0.1425
     21 H          -4.5465    1.3050    0.6855 H       1  LIG1        0.1425
     22 O          -5.6654   -1.0969    0.1423 O.3     1  LIG1       -0.5030
     23 H          -6.1296   -1.8824   -0.2638 H       1  LIG1        0.2923
     24 C          -4.1244   -3.7838   -0.2481 C.ar    1  LIG1        0.0916
     25 C          -5.3922   -4.2176   -0.5831 C.ar    1  LIG1        0.0945
     26 C          -5.4161   -5.6233   -0.3948 C.ar    1  LIG1        0.1650
     27 C          -4.1771   -6.0182    0.0479 C.ar    1  LIG1        0.1092
     28 N          -3.3938   -4.8806    0.1091 N.ar    1  LIG1       -0.3473
     29 H          -2.5132   -4.8475    0.5974 H       1  LIG1        0.1662
     30 N          -6.4561   -3.3804   -1.0429 N.pl3   1  LIG1       -0.3534
     31 H          -6.4407   -3.2860   -2.0568 H       1  LIG1        0.1425
     32 H          -7.3515   -3.7862   -0.7817 H       1  LIG1        0.1425
     33 O          -6.5110   -6.3917   -0.6497 O.3     1  LIG1       -0.5030
     34 H          -6.2738   -7.3234   -0.5593 H       1  LIG1        0.2923
     35 C          -3.7038   -7.3589    0.3867 C.ar    1  LIG1        0.0912
     36 C          -2.6894   -8.1270   -0.1536 C.ar    1  LIG1        0.0938
     37 C          -2.6939   -9.3698    0.5325 C.ar    1  LIG1        0.1554
     38 C          -3.7015   -9.3420    1.4636 C.ar    1  LIG1        0.0461
     39 N          -4.3075   -8.1136    1.3546 N.ar    1  LIG1       -0.3549
     40 H          -5.0198   -7.7535    1.9698 H       1  LIG1        0.1655
     41 H          -4.0246  -10.0836    2.1704 H       1  LIG1        0.0845
     42 N          -1.7876   -7.8831   -1.2298 N.pl3   1  LIG1       -0.3535
     43 H          -2.2774   -7.5972   -2.0720 H       1  LIG1        0.1425
     44 H          -1.0990   -7.1742   -1.0016 H       1  LIG1        0.1425
     45 O          -1.8403  -10.3846    0.2512 O.3     1  LIG1       -0.5035
     46 H          -1.3267  -10.0896   -0.5161 H       1  LIG1        0.2923
@<TRIPOS>BOND
     1    43    42    1
     2    31    30    1
     3     6     5    1
     4    42    44    1
     5    42    36    1
     6     7     1    1
     7    30    32    1
     8    30    25    1
     9     5     1   ar
    10     5     4   ar
    11    20    19    1
    12     1     2   ar
    13    33    34    1
    14    33    26    1
    15    25    26   ar
    16    25    24   ar
    17    46    45    1
    18    18    17    1
    19    26    27   ar
    20    17    16   ar
    21    17    13   ar
    22     4    13    1
    23     4     3   ar
    24    23    22    1
    25    24    16    1
    26    24    28   ar
    27    16    15   ar
    28    13    14   ar
    29    36    35   ar
    30    36    37   ar
    31    14    15   ar
    32    14    19    1
    33    15    22    1
    34    27    28   ar
    35    27    35    1
    36     2     3   ar
    37     2     8    1
    38    28    29    1
    39    19    21    1
    40    45    37    1
    41     3    11    1
    42    35    39   ar
    43     9     8    1
    44     8    10    1
    45    37    38   ar
    46    12    11    1
    47    39    38   ar
    48    39    40    1
    49    38    41    1
