@<TRIPOS>MOLECULE
mol_data/opt/m06hf/geoms/mol2/13hf13hf13hf.out
 35 37 0 0 0
SMALL
GASTEIGER

@<TRIPOS>ATOM
      1 C           1.3134   -0.0704   -0.8252 C.ar    1  LIG1        0.0267
      2 C           0.9162    1.0718   -0.1767 C.ar    1  LIG1        0.0849
      3 C          -0.4701    0.9149    0.1335 C.ar    1  LIG1        0.1643
      4 C          -0.8633   -0.3207   -0.3351 C.ar    1  LIG1        0.1087
      5 N           0.2452   -0.9181   -0.9058 N.ar    1  LIG1       -0.3549
      6 H           0.2075   -1.7287   -1.5006 H       1  LIG1        0.1655
      7 H           2.2774   -0.3215   -1.2315 H       1  LIG1        0.0827
      8 N           1.7428    2.1882    0.1388 N.pl3   1  LIG1       -0.3540
      9 H           1.2346    3.0442   -0.0682 H       1  LIG1        0.1425
     10 H           1.9370    2.2031    1.1370 H       1  LIG1        0.1425
     11 O          -1.2078    1.8362    0.7886 O.3     1  LIG1       -0.5031
     12 H          -2.1633    1.7084    0.5327 H       1  LIG1        0.2923
     13 C          -2.1728   -0.9411   -0.2261 C.ar    1  LIG1        0.0916
     14 C          -3.4024   -0.3194   -0.1553 C.ar    1  LIG1        0.0945
     15 C          -4.3916   -1.3292   -0.0187 C.ar    1  LIG1        0.1650
     16 C          -3.7401   -2.5458   -0.0111 C.ar    1  LIG1        0.1092
     17 N          -2.3890   -2.2880   -0.1538 N.ar    1  LIG1       -0.3473
     18 H          -1.6622   -2.9833   -0.1789 H       1  LIG1        0.1662
     19 N          -3.6145    1.0937   -0.1910 N.pl3   1  LIG1       -0.3534
     20 H          -3.7044    1.4268   -1.1487 H       1  LIG1        0.1425
     21 H          -4.4805    1.3139    0.2958 H       1  LIG1        0.1425
     22 O          -5.7134   -1.0806    0.0995 O.3     1  LIG1       -0.5030
     23 H          -6.2104   -1.8861   -0.2198 H       1  LIG1        0.2923
     24 C          -4.3260   -3.8662    0.1459 C.ar    1  LIG1        0.0912
     25 C          -5.5973   -4.2726   -0.1963 C.ar    1  LIG1        0.0938
     26 C          -5.7320   -5.6273    0.2102 C.ar    1  LIG1        0.1554
     27 C          -4.5475   -6.0171    0.7799 C.ar    1  LIG1        0.0461
     28 N          -3.6999   -4.9336    0.7251 N.ar    1  LIG1       -0.3549
     29 H          -2.8169   -4.8763    1.2044 H       1  LIG1        0.1655
     30 H          -4.2433   -6.9575    1.2033 H       1  LIG1        0.0845
     31 N          -6.5835   -3.4559   -0.8309 N.pl3   1  LIG1       -0.3535
     32 H          -6.4888   -3.4850   -1.8445 H       1  LIG1        0.1425
     33 H          -7.5109   -3.8004   -0.5939 H       1  LIG1        0.1425
     34 O          -6.8856   -6.3303   -0.0029 O.3     1  LIG1       -0.5035
     35 H          -6.9562   -7.0540    0.6275 H       1  LIG1        0.2923
@<TRIPOS>BOND
     1    32    31    1
     2     6     5    1
     3     7     1    1
     4    20    19    1
     5     5     1   ar
     6     5     4   ar
     7    31    33    1
     8    31    25    1
     9     1     2   ar
    10     4    13    1
    11     4     3   ar
    12    13    14   ar
    13    13    17   ar
    14    23    22    1
    15    25    24   ar
    16    25    26   ar
    17    19    14    1
    18    19    21    1
    19    18    17    1
    20     2     3   ar
    21     2     8    1
    22    14    15   ar
    23    17    16   ar
    24     9     8    1
    25    15    16   ar
    26    15    22    1
    27    16    24    1
    28    34    26    1
    29    34    35    1
    30     3    11    1
    31     8    10    1
    32    24    28   ar
    33    26    27   ar
    34    12    11    1
    35    28    27   ar
    36    28    29    1
    37    27    30    1
