@<TRIPOS>MOLECULE
mol_data/opt/m06hf/geoms/mol2/13hf13hf-4hf13hf.out
 48 51 0 0 0
SMALL
GASTEIGER

@<TRIPOS>ATOM
      1 C           1.2674   -0.2179    0.8722 C.ar    1  LIG1        0.0267
      2 C           1.0082    0.8655    0.0644 C.ar    1  LIG1        0.0849
      3 C          -0.3447    0.7345   -0.3578 C.ar    1  LIG1        0.1643
      4 C          -0.8642   -0.4097    0.2029 C.ar    1  LIG1        0.1087
      5 N           0.1430   -0.9807    0.9469 N.ar    1  LIG1       -0.3549
      6 H           0.0218   -1.7985    1.5200 H       1  LIG1        0.1655
      7 H           2.1772   -0.4756    1.3850 H       1  LIG1        0.0827
      8 N           1.9366    1.8913   -0.2718 N.pl3   1  LIG1       -0.3540
      9 H           1.9923    1.9930   -1.2816 H       1  LIG1        0.1425
     10 H           1.6251    2.7838    0.1006 H       1  LIG1        0.1425
     11 O          -0.9721    1.6090   -1.1991 O.3     1  LIG1       -0.5031
     12 H          -1.7741    1.1904   -1.5369 H       1  LIG1        0.2923
     13 C          -2.2023   -0.9700    0.0511 C.ar    1  LIG1        0.0916
     14 C          -2.6325   -2.2619   -0.2117 C.ar    1  LIG1        0.0945
     15 C          -4.0372   -2.2058   -0.3581 C.ar    1  LIG1        0.1636
     16 C          -4.4480   -0.8960   -0.1900 C.ar    1  LIG1        0.0927
     17 N          -3.3021   -0.1706    0.0512 N.ar    1  LIG1       -0.3485
     18 H          -3.3597    0.8117    0.3130 H       1  LIG1        0.1661
     19 N          -1.9279   -3.4836   -0.4177 N.pl3   1  LIG1       -0.3534
     20 H          -1.1668   -3.3762   -1.0809 H       1  LIG1        0.1425
     21 H          -1.5626   -3.8777    0.4427 H       1  LIG1        0.1425
     22 O          -4.7928   -3.2997   -0.6442 O.3     1  LIG1       -0.5031
     23 H          -4.1536   -4.0127   -0.8044 H       1  LIG1        0.2923
     24 C          -6.0404    1.0678   -0.1241 C.ar    1  LIG1        0.0347
     25 C          -7.3462    1.5370   -0.0575 C.ar    1  LIG1       -0.0277
     26 C          -5.7942   -0.3135   -0.1789 C.ar    1  LIG1        0.0260
     27 C          -8.4526    0.6829   -0.0533 C.ar    1  LIG1        0.0434
     28 H          -7.5369    2.6038   -0.0081 H       1  LIG1        0.0644
     29 C          -6.8938   -1.1771   -0.1945 C.ar    1  LIG1       -0.0085
     30 C          -8.1905   -0.6928   -0.1341 C.ar    1  LIG1        0.1267
     31 H          -6.7165   -2.2461   -0.2404 H       1  LIG1        0.0661
     32 N          -4.9353    1.9950   -0.1267 N.pl3   1  LIG1       -0.3574
     33 H          -4.6598    2.2081   -1.0846 H       1  LIG1        0.1423
     34 H          -5.2113    2.8683    0.3115 H       1  LIG1        0.1423
     35 O          -9.2521   -1.5663   -0.1380 O.3     1  LIG1       -0.5061
     36 H          -8.9331   -2.4711   -0.2192 H       1  LIG1        0.2922
     37 C          -9.8128    1.2439    0.0372 C.ar    1  LIG1        0.0747
     38 C         -10.2430    2.5631   -0.0235 C.ar    1  LIG1        0.0923
     39 C         -11.6485    2.5461    0.1568 C.ar    1  LIG1        0.1553
     40 C         -12.0453    1.2408    0.3193 C.ar    1  LIG1        0.0460
     41 N         -10.9208    0.4722    0.2388 N.ar    1  LIG1       -0.3560
     42 H         -10.8721   -0.5341    0.2894 H       1  LIG1        0.1655
     43 H         -13.0201    0.8122    0.4725 H       1  LIG1        0.0845
     44 N          -9.4535    3.7341   -0.2250 N.pl3   1  LIG1       -0.3535
     45 H          -9.4463    3.9855   -1.2113 H       1  LIG1        0.1425
     46 H          -9.8838    4.5083    0.2742 H       1  LIG1        0.1425
     47 O         -12.3898    3.6992    0.1490 O.3     1  LIG1       -0.5035
     48 H         -13.2370    3.5470    0.5783 H       1  LIG1        0.2923
@<TRIPOS>BOND
     1    12    11    1
     2     9     8    1
     3    45    44    1
     4    11     3    1
     5    33    32    1
     6    20    19    1
     7    23    22    1
     8    22    15    1
     9    19    14    1
    10    19    21    1
    11    15    14   ar
    12    15    16   ar
    13     3     2   ar
    14     3     4   ar
    15     8     2    1
    16     8    10    1
    17    31    29    1
    18    44    38    1
    19    44    46    1
    20    36    35    1
    21    14    13   ar
    22    29    26   ar
    23    29    30   ar
    24    16    26    1
    25    16    17   ar
    26    26    24   ar
    27    35    30    1
    28    30    27   ar
    29    32    24    1
    30    32    34    1
    31    24    25   ar
    32    25    27   ar
    33    25    28    1
    34    27    37    1
    35    38    37   ar
    36    38    39   ar
    37    37    41   ar
    38    13    17   ar
    39    13     4    1
    40    17    18    1
    41     2     1   ar
    42    47    39    1
    43    47    48    1
    44    39    40   ar
    45     4     5   ar
    46    41    42    1
    47    41    40   ar
    48    40    43    1
    49     1     5   ar
    50     1     7    1
    51     5     6    1
