@<TRIPOS>MOLECULE
mol_data/opt/m06hf/geoms/mol2/13hf13hf13hf13hf.out
 46 49 0 0 0
SMALL
GASTEIGER

@<TRIPOS>ATOM
      1 C           1.4066    0.2241   -0.1646 C.ar    1  LIG1        0.0267
      2 C           0.8309    1.4412    0.1047 C.ar    1  LIG1        0.0849
      3 C          -0.5833    1.2438    0.1027 C.ar    1  LIG1        0.1643
      4 C          -0.8160   -0.0895   -0.1666 C.ar    1  LIG1        0.1087
      5 N           0.4139   -0.7023   -0.3091 N.ar    1  LIG1       -0.3549
      6 H           0.5408   -1.6291   -0.6781 H       1  LIG1        0.1655
      7 H           2.4477   -0.0269   -0.2684 H       1  LIG1        0.0827
      8 N           1.5183    2.6644    0.3460 N.pl3   1  LIG1       -0.3540
      9 H           0.9848    3.4239   -0.0691 H       1  LIG1        0.1425
     10 H           1.5594    2.8519    1.3445 H       1  LIG1        0.1425
     11 O          -1.4829    2.2224    0.3384 O.3     1  LIG1       -0.5031
     12 H          -2.3469    1.9622   -0.0872 H       1  LIG1        0.2923
     13 C          -2.0878   -0.7811   -0.2657 C.ar    1  LIG1        0.0916
     14 C          -3.3181   -0.2571   -0.5856 C.ar    1  LIG1        0.0945
     15 C          -4.2763   -1.3088   -0.4955 C.ar    1  LIG1        0.1650
     16 C          -3.5981   -2.4488   -0.1243 C.ar    1  LIG1        0.1092
     17 N          -2.2517   -2.1217   -0.0157 N.ar    1  LIG1       -0.3473
     18 H          -1.6143   -2.6326    0.5764 H       1  LIG1        0.1662
     19 N          -3.5698    1.0990   -0.9576 N.pl3   1  LIG1       -0.3534
     20 H          -3.4492    1.2326   -1.9599 H       1  LIG1        0.1425
     21 H          -4.5342    1.3301   -0.7289 H       1  LIG1        0.1425
     22 O          -5.5843   -1.1516   -0.7728 O.3     1  LIG1       -0.5030
     23 H          -6.0926   -1.8916   -0.3263 H       1  LIG1        0.2923
     24 C          -4.1230   -3.7868    0.0592 C.ar    1  LIG1        0.0916
     25 C          -5.4173   -4.1706    0.3253 C.ar    1  LIG1        0.0945
     26 C          -5.4536   -5.5949    0.3397 C.ar    1  LIG1        0.1650
     27 C          -4.1745   -6.0397    0.0915 C.ar    1  LIG1        0.1092
     28 N          -3.3617   -4.9225   -0.0525 N.ar    1  LIG1       -0.3473
     29 H          -2.4975   -4.9315   -0.5727 H       1  LIG1        0.1662
     30 N          -6.5156   -3.2844    0.5575 N.pl3   1  LIG1       -0.3534
     31 H          -7.3758   -3.7426    0.2628 H       1  LIG1        0.1425
     32 H          -6.6086   -3.0706    1.5491 H       1  LIG1        0.1425
     33 O          -6.5686   -6.3107    0.5819 O.3     1  LIG1       -0.5030
     34 H          -6.4474   -7.2187    0.1772 H       1  LIG1        0.2923
     35 C          -3.6972   -7.4098    0.0355 C.ar    1  LIG1        0.0912
     36 C          -4.4110   -8.5507   -0.2612 C.ar    1  LIG1        0.0938
     37 C          -3.5150   -9.6484   -0.1498 C.ar    1  LIG1        0.1554
     38 C          -2.2854   -9.1569    0.2039 C.ar    1  LIG1        0.0461
     39 N          -2.4138   -7.7881    0.3020 N.ar    1  LIG1       -0.3549
     40 H          -1.7139   -7.1704    0.6772 H       1  LIG1        0.1655
     41 H          -1.3509   -9.6566    0.3879 H       1  LIG1        0.0845
     42 N          -5.7974   -8.5913   -0.6112 N.pl3   1  LIG1       -0.3535
     43 H          -5.9253   -8.5424   -1.6203 H       1  LIG1        0.1425
     44 H          -6.2048   -9.4666   -0.2897 H       1  LIG1        0.1425
     45 O          -3.9221  -10.9293   -0.3927 O.3     1  LIG1       -0.5035
     46 H          -3.2460  -11.5551   -0.1147 H       1  LIG1        0.2923
@<TRIPOS>BOND
     1    20    19    1
     2    43    42    1
     3    19    21    1
     4    19    14    1
     5    22    15    1
     6    22    23    1
     7     6     5    1
     8    42    44    1
     9    42    36    1
    10    14    15   ar
    11    14    13   ar
    12    29    28    1
    13    15    16   ar
    14    45    37    1
    15    45    46    1
    16     5     4   ar
    17     5     1   ar
    18     7     1    1
    19    13     4    1
    20    13    17   ar
    21    36    37   ar
    22    36    35   ar
    23     4     3   ar
    24     1     2   ar
    25    37    38   ar
    26    16    17   ar
    27    16    24    1
    28    12    11    1
    29     9     8    1
    30    28    24   ar
    31    28    27   ar
    32    17    18    1
    33    35    27    1
    34    35    39   ar
    35    24    25   ar
    36    27    26   ar
    37     3     2   ar
    38     3    11    1
    39     2     8    1
    40    34    33    1
    41    38    39   ar
    42    38    41    1
    43    31    30    1
    44    39    40    1
    45    25    26   ar
    46    25    30    1
    47    26    33    1
    48     8    10    1
    49    30    32    1
