@<TRIPOS>MOLECULE
mol_data/opt/m06hf/geoms/mol2/13hf13hf13hf-13hf.out
 46 49 0 0 0
SMALL
GASTEIGER

@<TRIPOS>ATOM
      1 C           1.1997   -0.0753    0.7982 C.ar    1  LIG1        0.0267
      2 C           0.6192    1.1657    0.8851 C.ar    1  LIG1        0.0849
      3 C          -0.7357    1.0223    0.4568 C.ar    1  LIG1        0.1643
      4 C          -0.9307   -0.3032    0.1287 C.ar    1  LIG1        0.1087
      5 N           0.2602   -0.9637    0.3600 N.ar    1  LIG1       -0.3549
      6 H           0.4600   -1.8982    0.0466 H       1  LIG1        0.1655
      7 H           2.2120   -0.3706    1.0119 H       1  LIG1        0.0827
      8 N           1.2474    2.3634    1.3285 N.pl3   1  LIG1       -0.3540
      9 H           0.8807    3.1433    0.7890 H       1  LIG1        0.1425
     10 H           1.0090    2.5439    2.3002 H       1  LIG1        0.1425
     11 O          -1.6246    2.0379    0.4130 O.3     1  LIG1       -0.5031
     12 H          -2.3220    1.8090   -0.2593 H       1  LIG1        0.2923
     13 C          -2.1463   -0.9509   -0.3329 C.ar    1  LIG1        0.0916
     14 C          -3.2098   -0.3897   -1.0098 C.ar    1  LIG1        0.0945
     15 C          -4.1736   -1.4155   -1.1978 C.ar    1  LIG1        0.1650
     16 C          -3.6843   -2.5707   -0.6368 C.ar    1  LIG1        0.1092
     17 N          -2.4308   -2.2722   -0.1352 N.ar    1  LIG1       -0.3473
     18 H          -1.9502   -2.8607    0.5269 H       1  LIG1        0.1662
     19 N          -3.2854    0.9707   -1.4426 N.pl3   1  LIG1       -0.3534
     20 H          -2.9131    1.0793   -2.3837 H       1  LIG1        0.1425
     21 H          -4.2558    1.2750   -1.4549 H       1  LIG1        0.1425
     22 O          -5.3501   -1.2238   -1.8558 O.3     1  LIG1       -0.5030
     23 H          -5.8028   -2.0715   -1.9502 H       1  LIG1        0.2923
     24 C          -4.2930   -3.8955   -0.5791 C.ar    1  LIG1        0.0916
     25 C          -3.8157   -5.1268   -1.0076 C.ar    1  LIG1        0.0945
     26 C          -4.8451   -6.0679   -0.7777 C.ar    1  LIG1        0.1650
     27 C          -5.9183   -5.4068   -0.2292 C.ar    1  LIG1        0.1092
     28 N          -5.5649   -4.0880   -0.1206 N.ar    1  LIG1       -0.3473
     29 H          -6.1738   -3.4215    0.3491 H       1  LIG1        0.1662
     30 N          -2.6000   -5.5027   -1.6493 N.pl3   1  LIG1       -0.3534
     31 H          -2.3811   -4.8828   -2.4232 H       1  LIG1        0.1425
     32 H          -1.8128   -5.5111   -1.0093 H       1  LIG1        0.1425
     33 O          -4.7829   -7.3945   -1.0829 O.3     1  LIG1       -0.5030
     34 H          -3.9593   -7.5157   -1.5793 H       1  LIG1        0.2923
     35 C          -7.2114   -5.8968    0.2050 C.ar    1  LIG1        0.0912
     36 C          -8.2481   -5.2064    0.7951 C.ar    1  LIG1        0.0938
     37 C          -9.2830   -6.1538    1.0265 C.ar    1  LIG1        0.1554
     38 C          -8.8489   -7.3766    0.5755 C.ar    1  LIG1        0.0461
     39 N          -7.5800   -7.1967    0.0777 N.ar    1  LIG1       -0.3549
     40 H          -6.9836   -7.9006   -0.3329 H       1  LIG1        0.1655
     41 H          -9.3298   -8.3387    0.5719 H       1  LIG1        0.0845
     42 N          -8.2202   -3.8087    1.0985 N.pl3   1  LIG1       -0.3535
     43 H          -8.9878   -3.3329    0.6306 H       1  LIG1        0.1425
     44 H          -8.3498   -3.6652    2.0970 H       1  LIG1        0.1425
     45 O         -10.4685   -5.8008    1.6093 O.3     1  LIG1       -0.5035
     46 H         -11.0367   -6.5727    1.6960 H       1  LIG1        0.2923
@<TRIPOS>BOND
     1    31    30    1
     2    20    19    1
     3    23    22    1
     4    22    15    1
     5    30    32    1
     6    30    25    1
     7    34    33    1
     8    21    19    1
     9    19    14    1
    10    15    14   ar
    11    15    16   ar
    12    33    26    1
    13    14    13   ar
    14    25    26   ar
    15    25    24   ar
    16    26    27   ar
    17    16    24    1
    18    16    17   ar
    19    24    28   ar
    20    40    39    1
    21    13    17   ar
    22    13     4    1
    23    12    11    1
    24    27    28   ar
    25    27    35    1
    26    17    18    1
    27    28    29    1
    28     6     5    1
    29    39    35   ar
    30    39    38   ar
    31     4     5   ar
    32     4     3   ar
    33    35    36   ar
    34     5     1   ar
    35    11     3    1
    36     3     2   ar
    37    41    38    1
    38    38    37   ar
    39    43    42    1
    40     9     8    1
    41    36    37   ar
    42    36    42    1
    43     1     2   ar
    44     1     7    1
    45     2     8    1
    46    37    45    1
    47    42    44    1
    48     8    10    1
    49    45    46    1
