@<TRIPOS>MOLECULE
mol_data/opt/m06hf/geoms/mol2/13hg13hg13hg-13hg.out
 46 49 0 0 0
SMALL
GASTEIGER

@<TRIPOS>ATOM
      1 C           0.6408    0.6515   -2.0680 C.ar    1  LIG1        0.0241
      2 C           0.8471    1.2243   -0.8348 C.ar    1  LIG1        0.0561
      3 C          -0.1909    0.7506    0.0247 C.ar    1  LIG1        0.0522
      4 C          -0.9952   -0.0868   -0.7222 C.ar    1  LIG1        0.0799
      5 N          -0.4818   -0.1359   -1.9869 N.ar    1  LIG1       -0.3570
      6 H          -0.9454   -0.5684   -2.7688 H       1  LIG1        0.1655
      7 H           1.2053    0.7407   -2.9792 H       1  LIG1        0.0826
      8 N           1.9070    2.0560   -0.4318 N.pl3   1  LIG1       -0.3560
      9 H           2.1968    2.6998   -1.1575 H       1  LIG1        0.1424
     10 H           1.6643    2.5663    0.4107 H       1  LIG1        0.1424
     11 S          -0.3291    1.1236    1.7464 S.3     1  LIG1       -0.1388
     12 H          -1.6570    1.3780    1.7252 H       1  LIG1        0.1072
     13 C          -2.2164   -0.7747   -0.3164 C.ar    1  LIG1        0.0865
     14 C          -3.3258   -0.2518    0.3159 C.ar    1  LIG1        0.0657
     15 C          -4.2333   -1.3241    0.5433 C.ar    1  LIG1        0.0529
     16 C          -3.6512   -2.4672    0.0259 C.ar    1  LIG1        0.0804
     17 N          -2.4424   -2.1173   -0.5032 N.ar    1  LIG1       -0.3494
     18 H          -1.7949   -2.7490   -0.9461 H       1  LIG1        0.1661
     19 N          -3.4942    1.0941    0.6999 N.pl3   1  LIG1       -0.3554
     20 H          -3.2491    1.7325   -0.0512 H       1  LIG1        0.1424
     21 H          -4.4455    1.2659    1.0104 H       1  LIG1        0.1424
     22 S          -5.7778   -1.1972    1.3919 S.3     1  LIG1       -0.1388
     23 H          -6.4878   -1.8978    0.4764 H       1  LIG1        0.1072
     24 C          -4.2063   -3.8157   -0.0217 C.ar    1  LIG1        0.0865
     25 C          -5.4478   -4.2130   -0.4748 C.ar    1  LIG1        0.0657
     26 C          -5.5572   -5.6135   -0.2489 C.ar    1  LIG1        0.0529
     27 C          -4.3672   -6.0279    0.3195 C.ar    1  LIG1        0.0804
     28 N          -3.5560   -4.9361    0.4353 N.ar    1  LIG1       -0.3494
     29 H          -2.6275   -4.9420    0.8268 H       1  LIG1        0.1661
     30 N          -6.4340   -3.3626   -1.0179 N.pl3   1  LIG1       -0.3554
     31 H          -6.0537   -2.7652   -1.7461 H       1  LIG1        0.1424
     32 H          -7.2134   -3.9019   -1.3828 H       1  LIG1        0.1424
     33 S          -6.9891   -6.5945   -0.5797 S.3     1  LIG1       -0.1388
     34 H          -6.3129   -7.6017   -1.1829 H       1  LIG1        0.1072
     35 C          -3.9620   -7.3765    0.7035 C.ar    1  LIG1        0.0860
     36 C          -4.0278   -8.5415   -0.0271 C.ar    1  LIG1        0.0650
     37 C          -3.5249   -9.5880    0.8042 C.ar    1  LIG1        0.0434
     38 C          -3.1814   -9.0210    2.0111 C.ar    1  LIG1        0.0173
     39 N          -3.4314   -7.6915    1.9351 N.ar    1  LIG1       -0.3570
     40 H          -3.3707   -7.0406    2.7026 H       1  LIG1        0.1655
     41 H          -2.7884   -9.4839    2.8996 H       1  LIG1        0.0819
     42 N          -4.5247   -8.6619   -1.3429 N.pl3   1  LIG1       -0.3554
     43 H          -4.0106   -8.0861   -2.0023 H       1  LIG1        0.1424
     44 H          -4.5171   -9.6318   -1.6426 H       1  LIG1        0.1424
     45 S          -3.4252  -11.2991    0.3790 S.3     1  LIG1       -0.1394
     46 H          -2.2442  -11.2597   -0.2532 H       1  LIG1        0.1072
@<TRIPOS>BOND
     1     7     1    1
     2     6     5    1
     3     1     5   ar
     4     1     2   ar
     5    43    42    1
     6     5     4   ar
     7    31    30    1
     8    44    42    1
     9    32    30    1
    10    42    36    1
    11    34    33    1
    12     9     8    1
    13    30    25    1
    14    18    17    1
    15     2     8    1
    16     2     3   ar
    17     4    13    1
    18     4     3   ar
    19    33    26    1
    20    17    13   ar
    21    17    16   ar
    22    25    26   ar
    23    25    24   ar
    24     8    10    1
    25    13    14   ar
    26    46    45    1
    27    26    27   ar
    28    20    19    1
    29    36    35   ar
    30    36    37   ar
    31    24    16    1
    32    24    28   ar
    33     3    11    1
    34    16    15   ar
    35    14    15   ar
    36    14    19    1
    37    27    28   ar
    38    27    35    1
    39    45    37    1
    40    28    29    1
    41    23    22    1
    42    15    22    1
    43    19    21    1
    44    35    39   ar
    45    37    38   ar
    46    12    11    1
    47    39    38   ar
    48    39    40    1
    49    38    41    1
