@<TRIPOS>MOLECULE
mol_data/opt/m06hf/geoms/mol2/13hg13hg13hg13hg.out
 46 49 0 0 0
SMALL
GASTEIGER

@<TRIPOS>ATOM
      1 C           0.6334    0.6529   -2.0695 C.ar    1  LIG1        0.0241
      2 C           0.8366    1.2310   -0.8382 C.ar    1  LIG1        0.0561
      3 C          -0.2014    0.7580    0.0217 C.ar    1  LIG1        0.0522
      4 C          -1.0025   -0.0843   -0.7229 C.ar    1  LIG1        0.0799
      5 N          -0.4874   -0.1370   -1.9867 N.ar    1  LIG1       -0.3570
      6 H          -0.9488   -0.5738   -2.7676 H       1  LIG1        0.1655
      7 H           1.1989    0.7400   -2.9802 H       1  LIG1        0.0826
      8 N           1.8939    2.0670   -0.4371 N.pl3   1  LIG1       -0.3560
      9 H           2.1829    2.7088   -1.1649 H       1  LIG1        0.1424
     10 H           1.6488    2.5799    0.4031 H       1  LIG1        0.1424
     11 S          -0.3427    1.1373    1.7418 S.3     1  LIG1       -0.1388
     12 H          -1.6712    1.3883    1.7179 H       1  LIG1        0.1072
     13 C          -2.2225   -0.7737   -0.3160 C.ar    1  LIG1        0.0865
     14 C          -3.3341   -0.2512    0.3127 C.ar    1  LIG1        0.0657
     15 C          -4.2391   -1.3249    0.5430 C.ar    1  LIG1        0.0529
     16 C          -3.6535   -2.4685    0.0309 C.ar    1  LIG1        0.0804
     17 N          -2.4448   -2.1176   -0.4980 N.ar    1  LIG1       -0.3494
     18 H          -1.7951   -2.7494   -0.9376 H       1  LIG1        0.1661
     19 N          -3.5064    1.0958    0.6913 N.pl3   1  LIG1       -0.3554
     20 H          -3.2618    1.7318   -0.0620 H       1  LIG1        0.1424
     21 H          -4.4586    1.2664    0.9998 H       1  LIG1        0.1424
     22 S          -5.7851   -1.1986    1.3891 S.3     1  LIG1       -0.1388
     23 H          -6.4922   -1.9046    0.4754 H       1  LIG1        0.1072
     24 C          -4.2051   -3.8186   -0.0123 C.ar    1  LIG1        0.0865
     25 C          -5.4450   -4.2208   -0.4655 C.ar    1  LIG1        0.0657
     26 C          -5.5511   -5.6207   -0.2342 C.ar    1  LIG1        0.0529
     27 C          -4.3608   -6.0299    0.3373 C.ar    1  LIG1        0.0804
     28 N          -3.5526   -4.9356    0.4499 N.ar    1  LIG1       -0.3494
     29 H          -2.6246   -4.9376    0.8426 H       1  LIG1        0.1661
     30 N          -6.4326   -3.3750   -1.0131 N.pl3   1  LIG1       -0.3554
     31 H          -6.0528   -2.7794   -1.7431 H       1  LIG1        0.1424
     32 H          -7.2101   -3.9177   -1.3771 H       1  LIG1        0.1424
     33 S          -6.9801   -6.6066   -0.5631 S.3     1  LIG1       -0.1388
     34 H          -6.3006   -7.6143   -1.1615 H       1  LIG1        0.1072
     35 C          -3.9527   -7.3759    0.7270 C.ar    1  LIG1        0.0860
     36 C          -4.0147   -8.5439    0.0009 C.ar    1  LIG1        0.0650
     37 C          -3.5102   -9.5859    0.8368 C.ar    1  LIG1        0.0434
     38 C          -3.1698   -9.0134    2.0420 C.ar    1  LIG1        0.0173
     39 N          -3.4229   -7.6848    1.9605 N.ar    1  LIG1       -0.3570
     40 H          -3.3648   -7.0308    2.7255 H       1  LIG1        0.1655
     41 H          -2.7767   -9.4718    2.9328 H       1  LIG1        0.0819
     42 N          -4.5096   -8.6706   -1.3151 N.pl3   1  LIG1       -0.3554
     43 H          -3.9960   -8.0962   -1.9760 H       1  LIG1        0.1424
     44 H          -4.4991   -9.6417   -1.6110 H       1  LIG1        0.1424
     45 S          -3.4058  -11.2985    0.4184 S.3     1  LIG1       -0.1394
     46 H          -2.2240  -11.2586   -0.2124 H       1  LIG1        0.1072
@<TRIPOS>BOND
     1     7     1    1
     2     6     5    1
     3     1     5   ar
     4     1     2   ar
     5     5     4   ar
     6    43    42    1
     7    31    30    1
     8    44    42    1
     9    32    30    1
    10    42    36    1
    11     9     8    1
    12    34    33    1
    13    30    25    1
    14    18    17    1
    15     2     8    1
    16     2     3   ar
    17     4    13    1
    18     4     3   ar
    19    33    26    1
    20    17    13   ar
    21    17    16   ar
    22    25    26   ar
    23    25    24   ar
    24     8    10    1
    25    13    14   ar
    26    26    27   ar
    27    46    45    1
    28    20    19    1
    29    24    16    1
    30    24    28   ar
    31    36    35   ar
    32    36    37   ar
    33     3    11    1
    34    16    15   ar
    35    14    15   ar
    36    14    19    1
    37    27    28   ar
    38    27    35    1
    39    45    37    1
    40    28    29    1
    41    23    22    1
    42    15    22    1
    43    19    21    1
    44    35    39   ar
    45    37    38   ar
    46    12    11    1
    47    39    38   ar
    48    39    40    1
    49    38    41    1
