@<TRIPOS>MOLECULE
mol_data/opt/m06hf/geoms/mol2/13hg13hg13hg-.out
 35 37 0 0 0
SMALL
GASTEIGER

@<TRIPOS>ATOM
      1 C           1.0667    0.0146   -1.2648 C.ar    1  LIG1        0.0241
      2 C           0.9217    0.9548   -0.2721 C.ar    1  LIG1        0.0561
      3 C          -0.3526    0.7317    0.3327 C.ar    1  LIG1        0.0522
      4 C          -0.9399   -0.3319   -0.3231 C.ar    1  LIG1        0.0799
      5 N          -0.0705   -0.7560   -1.2875 N.ar    1  LIG1       -0.3570
      6 H          -0.2991   -1.4330   -1.9966 H       1  LIG1        0.1655
      7 H           1.8857   -0.1652   -1.9385 H       1  LIG1        0.0826
      8 N           1.8521    1.9163    0.1583 N.pl3   1  LIG1       -0.3560
      9 H           2.4232    2.2767   -0.5956 H       1  LIG1        0.1424
     10 H           1.3886    2.6771    0.6435 H       1  LIG1        0.1424
     11 S          -0.9800    1.6236    1.7245 S.3     1  LIG1       -0.1388
     12 H          -2.2284    1.7768    1.2292 H       1  LIG1        0.1072
     13 C          -2.2632   -0.9106   -0.1191 C.ar    1  LIG1        0.0865
     14 C          -3.4804   -0.2665   -0.0324 C.ar    1  LIG1        0.0657
     15 C          -4.4724   -1.2571    0.2136 C.ar    1  LIG1        0.0529
     16 C          -3.8278   -2.4793    0.2478 C.ar    1  LIG1        0.0804
     17 N          -2.4980   -2.2561    0.0311 N.ar    1  LIG1       -0.3494
     18 H          -1.7841   -2.9672    0.0117 H       1  LIG1        0.1661
     19 N          -3.6816    1.1260   -0.1313 N.pl3   1  LIG1       -0.3554
     20 H          -3.2030    1.5165   -0.9378 H       1  LIG1        0.1424
     21 H          -4.6716    1.3477   -0.1719 H       1  LIG1        0.1424
     22 S          -6.1901   -0.9397    0.4808 S.3     1  LIG1       -0.1388
     23 H          -6.6260   -1.9158   -0.3494 H       1  LIG1        0.1072
     24 C          -4.4029   -3.8091    0.4261 C.ar    1  LIG1        0.0860
     25 C          -5.4758   -4.3840   -0.2179 C.ar    1  LIG1        0.0650
     26 C          -5.6509   -5.6873    0.3384 C.ar    1  LIG1        0.0434
     27 C          -4.6835   -5.8527    1.3045 C.ar    1  LIG1        0.0173
     28 N          -3.9288   -4.7276    1.3364 N.ar    1  LIG1       -0.3570
     29 H          -3.2128   -4.5220    2.0154 H       1  LIG1        0.1655
     30 H          -4.5016   -6.6886    1.9576 H       1  LIG1        0.0819
     31 N          -6.2587   -3.7717   -1.2208 N.pl3   1  LIG1       -0.3554
     32 H          -5.7097   -3.5183   -2.0362 H       1  LIG1        0.1424
     33 H          -7.0304   -4.3734   -1.4916 H       1  LIG1        0.1424
     34 S          -6.9190   -6.8406   -0.0900 S.3     1  LIG1       -0.1394
     35 H          -6.2908   -7.4336   -1.1146 H       1  LIG1        0.1072
@<TRIPOS>BOND
     1    32    31    1
     2     6     5    1
     3     7     1    1
     4    33    31    1
     5     5     1   ar
     6     5     4   ar
     7     1     2   ar
     8    31    25    1
     9    35    34    1
    10    20    19    1
    11     9     8    1
    12    23    22    1
    13     4    13    1
    14     4     3   ar
    15     2     8    1
    16     2     3   ar
    17    25    26   ar
    18    25    24   ar
    19    21    19    1
    20    19    14    1
    21    13    14   ar
    22    13    17   ar
    23    34    26    1
    24    14    15   ar
    25    18    17    1
    26    17    16   ar
    27     8    10    1
    28    15    16   ar
    29    15    22    1
    30    16    24    1
    31     3    11    1
    32    26    27   ar
    33    24    28   ar
    34    12    11    1
    35    27    28   ar
    36    27    30    1
    37    28    29    1
