@<TRIPOS>MOLECULE
mol_data/opt/m06hf/geoms/mol2/13hg13hg.out
 24 25 0 0 0
SMALL
GASTEIGER

@<TRIPOS>ATOM
      1 C           1.1681   -0.3808   -0.6865 C.ar    1  LIG1        0.0241
      2 C           0.8650    0.8781   -0.2300 C.ar    1  LIG1        0.0561
      3 C          -0.5064    0.8591    0.1771 C.ar    1  LIG1        0.0522
      4 C          -0.9835   -0.4136   -0.0519 C.ar    1  LIG1        0.0799
      5 N           0.0498   -1.1551   -0.5728 N.ar    1  LIG1       -0.3570
      6 H          -0.0527   -2.0895   -0.9334 H       1  LIG1        0.1655
      7 H           2.0948   -0.7563   -1.0838 H       1  LIG1        0.0826
      8 N           1.7771    1.9694   -0.1820 N.pl3   1  LIG1       -0.3560
      9 H           1.3179    2.8136   -0.5148 H       1  LIG1        0.1424
     10 H           2.0765    2.1465    0.7730 H       1  LIG1        0.1424
     11 S          -1.3548    2.2291    0.9006 S.3     1  LIG1       -0.1388
     12 H          -2.5401    1.9798    0.2923 H       1  LIG1        0.1072
     13 C          -2.3182   -0.9622    0.1686 C.ar    1  LIG1        0.0860
     14 C          -3.5476   -0.4405   -0.1660 C.ar    1  LIG1        0.0650
     15 C          -4.5373   -1.3595    0.2975 C.ar    1  LIG1        0.0434
     16 C          -3.8744   -2.4040    0.9018 C.ar    1  LIG1        0.0173
     17 N          -2.5436   -2.1648    0.8035 N.ar    1  LIG1       -0.3570
     18 H          -1.8179   -2.7080    1.2437 H       1  LIG1        0.1655
     19 H          -4.2703   -3.2787    1.3880 H       1  LIG1        0.0819
     20 N          -3.7695    0.7913   -0.8173 N.pl3   1  LIG1       -0.3554
     21 H          -3.2995    0.8430   -1.7159 H       1  LIG1        0.1424
     22 H          -4.7629    0.9710   -0.9250 H       1  LIG1        0.1424
     23 S          -6.2866   -1.1515    0.1751 S.3     1  LIG1       -0.1394
     24 H          -6.4530   -1.7131   -1.0295 H       1  LIG1        0.1072
@<TRIPOS>BOND
     1    21    20    1
     2     7     1    1
     3    24    23    1
     4     6     5    1
     5    22    20    1
     6    20    14    1
     7     1     5   ar
     8     1     2   ar
     9     5     4   ar
    10     9     8    1
    11     2     8    1
    12     2     3   ar
    13     8    10    1
    14    14    13   ar
    15    14    15   ar
    16     4    13    1
    17     4     3   ar
    18    13    17   ar
    19    23    15    1
    20     3    11    1
    21    12    11    1
    22    15    16   ar
    23    17    16   ar
    24    17    18    1
    25    16    19    1
