@<TRIPOS>MOLECULE
mol_data/opt/m06hf/geoms/mol2/13hg13hg-13hg13hg.out
 46 49 0 0 0
SMALL
GASTEIGER

@<TRIPOS>ATOM
      1 C           0.6240    0.6431   -2.0787 C.ar    1  LIG1        0.0241
      2 C           0.8260    1.2326   -0.8527 C.ar    1  LIG1        0.0561
      3 C          -0.2108    0.7650    0.0116 C.ar    1  LIG1        0.0522
      4 C          -1.0101   -0.0858   -0.7254 C.ar    1  LIG1        0.0799
      5 N          -0.4950   -0.1486   -1.9888 N.ar    1  LIG1       -0.3570
      6 H          -0.9555   -0.5933   -2.7656 H       1  LIG1        0.1655
      7 H           1.1892    0.7232   -2.9903 H       1  LIG1        0.0826
      8 N           1.8814    2.0745   -0.4592 N.pl3   1  LIG1       -0.3560
      9 H           2.1689    2.7104   -1.1927 H       1  LIG1        0.1424
     10 H           1.6353    2.5944    0.3764 H       1  LIG1        0.1424
     11 S          -0.3528    1.1593    1.7282 S.3     1  LIG1       -0.1388
     12 H          -1.6819    1.4071    1.7023 H       1  LIG1        0.1072
     13 C          -2.2285   -0.7743   -0.3122 C.ar    1  LIG1        0.0865
     14 C          -3.3412   -0.2488    0.3119 C.ar    1  LIG1        0.0657
     15 C          -4.2438   -1.3225    0.5520 C.ar    1  LIG1        0.0529
     16 C          -3.6555   -2.4693    0.0501 C.ar    1  LIG1        0.0804
     17 N          -2.4477   -2.1203   -0.4821 N.ar    1  LIG1       -0.3494
     18 H          -1.7966   -2.7546   -0.9160 H       1  LIG1        0.1661
     19 N          -3.5166    1.1012    0.6784 N.pl3   1  LIG1       -0.3554
     20 H          -3.2736    1.7310   -0.0806 H       1  LIG1        0.1424
     21 H          -4.4692    1.2723    0.9855 H       1  LIG1        0.1424
     22 S          -5.7900   -1.1922    1.3970 S.3     1  LIG1       -0.1388
     23 H          -6.4954   -1.9079    0.4897 H       1  LIG1        0.1072
     24 C          -4.2040   -3.8209    0.0191 C.ar    1  LIG1        0.0865
     25 C          -5.4430   -4.2301   -0.4304 C.ar    1  LIG1        0.0657
     26 C          -5.5459   -5.6281   -0.1865 C.ar    1  LIG1        0.0529
     27 C          -4.3546   -6.0294    0.3886 C.ar    1  LIG1        0.0804
     28 N          -3.5488   -4.9323    0.4913 N.ar    1  LIG1       -0.3494
     29 H          -2.6209   -4.9286    0.8839 H       1  LIG1        0.1661
     30 N          -6.4326   -3.3916   -0.9855 N.pl3   1  LIG1       -0.3554
     31 H          -6.0542   -2.8017   -1.7208 H       1  LIG1        0.1424
     32 H          -7.2088   -3.9393   -1.3445 H       1  LIG1        0.1424
     33 S          -6.9726   -6.6202   -0.5063 S.3     1  LIG1       -0.1388
     34 H          -6.2908   -7.6318   -1.0956 H       1  LIG1        0.1072
     35 C          -3.9433   -7.3709    0.7903 C.ar    1  LIG1        0.0860
     36 C          -4.0026   -8.5455    0.0748 C.ar    1  LIG1        0.0650
     37 C          -3.4956   -9.5787    0.9200 C.ar    1  LIG1        0.0434
     38 C          -3.1564   -8.9945    2.1199 C.ar    1  LIG1        0.0173
     39 N          -3.4126   -7.6674    2.0265 N.ar    1  LIG1       -0.3570
     40 H          -3.3560   -7.0064    2.7856 H       1  LIG1        0.1655
     41 H          -2.7621   -9.4440    3.0147 H       1  LIG1        0.0819
     42 N          -4.4974   -8.6852   -1.2400 N.pl3   1  LIG1       -0.3554
     43 H          -3.9853   -8.1155   -1.9061 H       1  LIG1        0.1424
     44 H          -4.4846   -9.6589   -1.5271 H       1  LIG1        0.1424
     45 S          -3.3871  -11.2947    0.5170 S.3     1  LIG1       -0.1394
     46 H          -2.2055  -11.2577   -0.1141 H       1  LIG1        0.1072
@<TRIPOS>BOND
     1     7     1    1
     2     6     5    1
     3     1     5   ar
     4     1     2   ar
     5     5     4   ar
     6    43    42    1
     7    31    30    1
     8    44    42    1
     9    32    30    1
    10    42    36    1
    11     9     8    1
    12    34    33    1
    13    30    25    1
    14    18    17    1
    15     2     8    1
    16     2     3   ar
    17     4    13    1
    18     4     3   ar
    19    33    26    1
    20    17    13   ar
    21    17    16   ar
    22     8    10    1
    23    25    26   ar
    24    25    24   ar
    25    13    14   ar
    26    26    27   ar
    27    46    45    1
    28    20    19    1
    29     3    11    1
    30    24    16    1
    31    24    28   ar
    32    16    15   ar
    33    36    35   ar
    34    36    37   ar
    35    14    15   ar
    36    14    19    1
    37    27    28   ar
    38    27    35    1
    39    23    22    1
    40    28    29    1
    41    45    37    1
    42    15    22    1
    43    19    21    1
    44    35    39   ar
    45    37    38   ar
    46    12    11    1
    47    39    38   ar
    48    39    40    1
    49    38    41    1
