@<TRIPOS>MOLECULE
mol_data/opt/m06hf/geoms/mol2/13hg13hg13hg.out
 35 37 0 0 0
SMALL
GASTEIGER

@<TRIPOS>ATOM
      1 C           1.0729    0.0096   -1.2547 C.ar    1  LIG1        0.0241
      2 C           0.9236    0.9529   -0.2656 C.ar    1  LIG1        0.0561
      3 C          -0.3535    0.7321    0.3340 C.ar    1  LIG1        0.0522
      4 C          -0.9381   -0.3334   -0.3211 C.ar    1  LIG1        0.0799
      5 N          -0.0644   -0.7608   -1.2801 N.ar    1  LIG1       -0.3570
      6 H          -0.2900   -1.4400   -1.9881 H       1  LIG1        0.1655
      7 H           1.8950   -0.1726   -1.9240 H       1  LIG1        0.0826
      8 N           1.8523    1.9156    0.1660 N.pl3   1  LIG1       -0.3560
      9 H           2.4269    2.2735   -0.5865 H       1  LIG1        0.1424
     10 H           1.3868    2.6780    0.6466 H       1  LIG1        0.1424
     11 S          -0.9871    1.6287    1.7200 S.3     1  LIG1       -0.1388
     12 H          -2.2331    1.7807    1.2185 H       1  LIG1        0.1072
     13 C          -2.2625   -0.9111   -0.1214 C.ar    1  LIG1        0.0865
     14 C          -3.4800   -0.2663   -0.0423 C.ar    1  LIG1        0.0657
     15 C          -4.4733   -1.2559    0.2023 C.ar    1  LIG1        0.0529
     16 C          -3.8292   -2.4782    0.2434 C.ar    1  LIG1        0.0804
     17 N          -2.4983   -2.2561    0.0321 N.ar    1  LIG1       -0.3494
     18 H          -1.7846   -2.9673    0.0183 H       1  LIG1        0.1661
     19 N          -3.6802    1.1259   -0.1466 N.pl3   1  LIG1       -0.3554
     20 H          -3.1978    1.5137   -0.9521 H       1  LIG1        0.1424
     21 H          -4.6700    1.3477   -0.1925 H       1  LIG1        0.1424
     22 S          -6.1922   -0.9372    0.4606 S.3     1  LIG1       -0.1388
     23 H          -6.6245   -1.9158   -0.3685 H       1  LIG1        0.1072
     24 C          -4.4056   -3.8073    0.4233 C.ar    1  LIG1        0.0860
     25 C          -5.4756   -4.3839   -0.2238 C.ar    1  LIG1        0.0650
     26 C          -5.6536   -5.6854    0.3359 C.ar    1  LIG1        0.0434
     27 C          -4.6908   -5.8480    1.3069 C.ar    1  LIG1        0.0173
     28 N          -3.9359   -4.7230    1.3387 N.ar    1  LIG1       -0.3570
     29 H          -3.2230   -4.5154    2.0204 H       1  LIG1        0.1655
     30 H          -4.5121   -6.6818    1.9636 H       1  LIG1        0.0819
     31 N          -6.2536   -3.7746   -1.2323 N.pl3   1  LIG1       -0.3554
     32 H          -5.7008   -3.5240   -2.0459 H       1  LIG1        0.1424
     33 H          -7.0242   -4.3770   -1.5047 H       1  LIG1        0.1424
     34 S          -6.9200   -6.8398   -0.0947 S.3     1  LIG1       -0.1394
     35 H          -6.2873   -7.4362   -1.1145 H       1  LIG1        0.1072
@<TRIPOS>BOND
     1    32    31    1
     2     6     5    1
     3     7     1    1
     4    33    31    1
     5     5     1   ar
     6     5     4   ar
     7     1     2   ar
     8    31    25    1
     9    35    34    1
    10    20    19    1
    11     9     8    1
    12    23    22    1
    13     4    13    1
    14     4     3   ar
    15     2     8    1
    16     2     3   ar
    17    25    26   ar
    18    25    24   ar
    19    21    19    1
    20    19    14    1
    21    13    14   ar
    22    13    17   ar
    23    34    26    1
    24    14    15   ar
    25    18    17    1
    26    17    16   ar
    27     8    10    1
    28    15    16   ar
    29    15    22    1
    30    16    24    1
    31     3    11    1
    32    26    27   ar
    33    24    28   ar
    34    12    11    1
    35    27    28   ar
    36    27    30    1
    37    28    29    1
