@<TRIPOS>MOLECULE
mol_data/opt/m06hf/geoms/mol2/13hg13hg13hg13hg-.out
 46 49 0 0 0
SMALL
GASTEIGER

@<TRIPOS>ATOM
      1 C           0.6495    0.6435   -2.0615 C.ar    1  LIG1        0.0241
      2 C           0.8495    1.2222   -0.8300 C.ar    1  LIG1        0.0561
      3 C          -0.1927    0.7522    0.0266 C.ar    1  LIG1        0.0522
      4 C          -0.9929   -0.0890   -0.7203 C.ar    1  LIG1        0.0799
      5 N          -0.4732   -0.1439   -1.9822 N.ar    1  LIG1       -0.3570
      6 H          -0.9327   -0.5804   -2.7644 H       1  LIG1        0.1655
      7 H           1.2185    0.7286   -2.9702 H       1  LIG1        0.0826
      8 N           1.9071    2.0563   -0.4256 N.pl3   1  LIG1       -0.3560
      9 H           2.2003    2.6967   -1.1530 H       1  LIG1        0.1424
     10 H           1.6599    2.5705    0.4132 H       1  LIG1        0.1424
     11 S          -0.3395    1.1332    1.7458 S.3     1  LIG1       -0.1388
     12 H          -1.6674    1.3870    1.7169 H       1  LIG1        0.1072
     13 C          -2.2159   -0.7755   -0.3173 C.ar    1  LIG1        0.0865
     14 C          -3.3286   -0.2501    0.3069 C.ar    1  LIG1        0.0657
     15 C          -4.2367   -1.3217    0.5349 C.ar    1  LIG1        0.0529
     16 C          -3.6516   -2.4670    0.0259 C.ar    1  LIG1        0.0804
     17 N          -2.4403   -2.1191   -0.4989 N.ar    1  LIG1       -0.3494
     18 H          -1.7904   -2.7527   -0.9356 H       1  LIG1        0.1661
     19 N          -3.4994    1.0976    0.6837 N.pl3   1  LIG1       -0.3554
     20 H          -3.2508    1.7325   -0.0692 H       1  LIG1        0.1424
     21 H          -4.4524    1.2704    0.9887 H       1  LIG1        0.1424
     22 S          -5.7855   -1.1914    1.3752 S.3     1  LIG1       -0.1388
     23 H          -6.4907   -1.8966    0.4595 H       1  LIG1        0.1072
     24 C          -4.2060   -3.8159   -0.0182 C.ar    1  LIG1        0.0865
     25 C          -5.4450   -4.2159   -0.4755 C.ar    1  LIG1        0.0657
     26 C          -5.5550   -5.6153   -0.2435 C.ar    1  LIG1        0.0529
     27 C          -4.3677   -6.0266    0.3327 C.ar    1  LIG1        0.0804
     28 N          -3.5575   -4.9339    0.4473 N.ar    1  LIG1       -0.3494
     29 H          -2.6310   -4.9376    0.8434 H       1  LIG1        0.1661
     30 N          -6.4288   -3.3685   -1.0275 N.pl3   1  LIG1       -0.3554
     31 H          -6.0452   -2.7743   -1.7566 H       1  LIG1        0.1424
     32 H          -7.2062   -3.9098   -1.3938 H       1  LIG1        0.1424
     33 S          -6.9849   -6.5985   -0.5767 S.3     1  LIG1       -0.1388
     34 H          -6.3053   -7.6082   -1.1718 H       1  LIG1        0.1072
     35 C          -3.9638   -7.3732    0.7249 C.ar    1  LIG1        0.0860
     36 C          -4.0257   -8.5416   -0.0005 C.ar    1  LIG1        0.0650
     37 C          -3.5265   -9.5840    0.8381 C.ar    1  LIG1        0.0434
     38 C          -3.1891   -9.0112    2.0441 C.ar    1  LIG1        0.0173
     39 N          -3.4391   -7.6822    1.9606 N.ar    1  LIG1       -0.3570
     40 H          -3.3825   -7.0277    2.7253 H       1  LIG1        0.1655
     41 H          -2.8003   -9.4698    2.9366 H       1  LIG1        0.0819
     42 N          -4.5161   -8.6683   -1.3182 N.pl3   1  LIG1       -0.3554
     43 H          -3.9990   -8.0955   -1.9777 H       1  LIG1        0.1424
     44 H          -4.5066   -9.6397   -1.6132 H       1  LIG1        0.1424
     45 S          -3.4241  -11.2971    0.4215 S.3     1  LIG1       -0.1394
     46 H          -2.2400  -11.2602   -0.2050 H       1  LIG1        0.1072
@<TRIPOS>BOND
     1     7     1    1
     2     6     5    1
     3     1     5   ar
     4     1     2   ar
     5     5     4   ar
     6    43    42    1
     7    31    30    1
     8    44    42    1
     9    32    30    1
    10    42    36    1
    11    34    33    1
    12     9     8    1
    13    30    25    1
    14    18    17    1
    15     2     8    1
    16     2     3   ar
    17     4    13    1
    18     4     3   ar
    19    33    26    1
    20    17    13   ar
    21    17    16   ar
    22    25    26   ar
    23    25    24   ar
    24     8    10    1
    25    13    14   ar
    26    26    27   ar
    27    46    45    1
    28    20    19    1
    29    24    16    1
    30    24    28   ar
    31    36    35   ar
    32    36    37   ar
    33    16    15   ar
    34     3    11    1
    35    14    15   ar
    36    14    19    1
    37    27    28   ar
    38    27    35    1
    39    45    37    1
    40    28    29    1
    41    23    22    1
    42    15    22    1
    43    19    21    1
    44    35    39   ar
    45    37    38   ar
    46    12    11    1
    47    39    38   ar
    48    39    40    1
    49    38    41    1
