@<TRIPOS>MOLECULE
mol_data/opt/m06hf/geoms/mol2/13hg13hg-13hg-13hg.out
 46 49 0 0 0
SMALL
GASTEIGER

@<TRIPOS>ATOM
      1 C           0.6276    0.6365   -2.0947 C.ar    1  LIG1        0.0241
      2 C           0.8357    1.2235   -0.8685 C.ar    1  LIG1        0.0561
      3 C          -0.1992    0.7572   -0.0011 C.ar    1  LIG1        0.0522
      4 C          -1.0037   -0.0900   -0.7367 C.ar    1  LIG1        0.0799
      5 N          -0.4933   -0.1521   -2.0020 N.ar    1  LIG1       -0.3570
      6 H          -0.9582   -0.5939   -2.7780 H       1  LIG1        0.1655
      7 H           1.1897    0.7164   -3.0081 H       1  LIG1        0.0826
      8 N           1.8948    2.0619   -0.4774 N.pl3   1  LIG1       -0.3560
      9 H           2.1815    2.6982   -1.2110 H       1  LIG1        0.1424
     10 H           1.6531    2.5811    0.3599 H       1  LIG1        0.1424
     11 S          -0.3335    1.1486    1.7167 S.3     1  LIG1       -0.1388
     12 H          -1.6620    1.4001    1.6963 H       1  LIG1        0.1072
     13 C          -2.2223   -0.7760   -0.3201 C.ar    1  LIG1        0.0865
     14 C          -3.3312   -0.2484    0.3093 C.ar    1  LIG1        0.0657
     15 C          -4.2358   -1.3201    0.5509 C.ar    1  LIG1        0.0529
     16 C          -3.6525   -2.4677    0.0449 C.ar    1  LIG1        0.0804
     17 N          -2.4458   -2.1211   -0.4912 N.ar    1  LIG1       -0.3494
     18 H          -1.7981   -2.7564   -0.9287 H       1  LIG1        0.1661
     19 N          -3.5015    1.1012    0.6789 N.pl3   1  LIG1       -0.3554
     20 H          -3.2590    1.7319   -0.0796 H       1  LIG1        0.1424
     21 H          -4.4526    1.2745    0.9894 H       1  LIG1        0.1424
     22 S          -5.7786   -1.1870    1.4017 S.3     1  LIG1       -0.1388
     23 H          -6.4894   -1.8988    0.4955 H       1  LIG1        0.1072
     24 C          -4.2050   -3.8177    0.0136 C.ar    1  LIG1        0.0865
     25 C          -5.4468   -4.2225   -0.4321 C.ar    1  LIG1        0.0657
     26 C          -5.5528   -5.6206   -0.1904 C.ar    1  LIG1        0.0529
     27 C          -4.3607   -6.0263    0.3798 C.ar    1  LIG1        0.0804
     28 N          -3.5515   -4.9317    0.4816 N.ar    1  LIG1       -0.3494
     29 H          -2.6221   -4.9313    0.8710 H       1  LIG1        0.1661
     30 N          -6.4360   -3.3802   -0.9822 N.pl3   1  LIG1       -0.3554
     31 H          -6.0587   -2.7900   -1.7178 H       1  LIG1        0.1424
     32 H          -7.2151   -3.9251   -1.3394 H       1  LIG1        0.1424
     33 S          -6.9834   -6.6082   -0.5070 S.3     1  LIG1       -0.1388
     34 H          -6.3065   -7.6206   -1.1007 H       1  LIG1        0.1072
     35 C          -3.9518   -7.3697    0.7776 C.ar    1  LIG1        0.0860
     36 C          -4.0168   -8.5428    0.0599 C.ar    1  LIG1        0.0650
     37 C          -3.5095   -9.5791    0.9013 C.ar    1  LIG1        0.0434
     38 C          -3.1643   -8.9981    2.1011 C.ar    1  LIG1        0.0173
     39 N          -3.4173   -7.6701    2.0112 N.ar    1  LIG1       -0.3570
     40 H          -3.3564   -7.0108    2.7714 H       1  LIG1        0.1655
     41 H          -2.7680   -9.4503    2.9936 H       1  LIG1        0.0819
     42 N          -4.5165   -8.6786   -1.2533 N.pl3   1  LIG1       -0.3554
     43 H          -4.0052   -8.1091   -1.9202 H       1  LIG1        0.1424
     44 H          -4.5076   -9.6518   -1.5423 H       1  LIG1        0.1424
     45 S          -3.4072  -11.2945    0.4945 S.3     1  LIG1       -0.1394
     46 H          -2.2279  -11.2594   -0.1412 H       1  LIG1        0.1072
@<TRIPOS>BOND
     1     7     1    1
     2     6     5    1
     3     1     5   ar
     4     1     2   ar
     5     5     4   ar
     6    43    42    1
     7    31    30    1
     8    44    42    1
     9    32    30    1
    10    42    36    1
    11     9     8    1
    12    34    33    1
    13    30    25    1
    14    18    17    1
    15     2     8    1
    16     2     3   ar
    17     4    13    1
    18     4     3   ar
    19    33    26    1
    20    17    13   ar
    21    17    16   ar
    22     8    10    1
    23    25    26   ar
    24    25    24   ar
    25    13    14   ar
    26    26    27   ar
    27    46    45    1
    28    20    19    1
    29     3    11    1
    30    24    16    1
    31    24    28   ar
    32    16    15   ar
    33    36    35   ar
    34    36    37   ar
    35    14    15   ar
    36    14    19    1
    37    27    28   ar
    38    27    35    1
    39    28    29    1
    40    45    37    1
    41    23    22    1
    42    15    22    1
    43    19    21    1
    44    35    39   ar
    45    37    38   ar
    46    12    11    1
    47    39    38   ar
    48    39    40    1
    49    38    41    1
