@<TRIPOS>MOLECULE
mol_data/opt/m06hf/geoms/mol2/13hg13hg13hg-13hg-.out
 46 49 0 0 0
SMALL
GASTEIGER

@<TRIPOS>ATOM
      1 C           0.6453    0.6490   -2.0672 C.ar    1  LIG1        0.0241
      2 C           0.8523    1.2207   -0.8336 C.ar    1  LIG1        0.0561
      3 C          -0.1862    0.7476    0.0256 C.ar    1  LIG1        0.0522
      4 C          -0.9914   -0.0884   -0.7218 C.ar    1  LIG1        0.0799
      5 N          -0.4782   -0.1373   -1.9865 N.ar    1  LIG1       -0.3570
      6 H          -0.9423   -0.5687   -2.7687 H       1  LIG1        0.1655
      7 H           1.2099    0.7381   -2.9783 H       1  LIG1        0.0826
      8 N           1.9132    2.0510   -0.4301 N.pl3   1  LIG1       -0.3560
      9 H           2.2037    2.6949   -1.1555 H       1  LIG1        0.1424
     10 H           1.6710    2.5611    0.4126 H       1  LIG1        0.1424
     11 S          -0.3237    1.1195    1.7476 S.3     1  LIG1       -0.1388
     12 H          -1.6514    1.3753    1.7268 H       1  LIG1        0.1072
     13 C          -2.2133   -0.7753   -0.3163 C.ar    1  LIG1        0.0865
     14 C          -3.3221   -0.2517    0.3163 C.ar    1  LIG1        0.0657
     15 C          -4.2307   -1.3232    0.5431 C.ar    1  LIG1        0.0529
     16 C          -3.6499   -2.4665    0.0248 C.ar    1  LIG1        0.0804
     17 N          -2.4407   -2.1175   -0.5041 N.ar    1  LIG1       -0.3494
     18 H          -1.7939   -2.7497   -0.9475 H       1  LIG1        0.1661
     19 N          -3.4891    1.0942    0.7013 N.pl3   1  LIG1       -0.3554
     20 H          -3.2433    1.7328   -0.0494 H       1  LIG1        0.1424
     21 H          -4.4402    1.2668    1.0120 H       1  LIG1        0.1424
     22 S          -5.7750   -1.1952    1.3918 S.3     1  LIG1       -0.1388
     23 H          -6.4859   -1.8944    0.4760 H       1  LIG1        0.1072
     24 C          -4.2064   -3.8143   -0.0237 C.ar    1  LIG1        0.0865
     25 C          -5.4484   -4.2100   -0.4770 C.ar    1  LIG1        0.0657
     26 C          -5.5593   -5.6106   -0.2520 C.ar    1  LIG1        0.0529
     27 C          -4.3696   -6.0267    0.3158 C.ar    1  LIG1        0.0804
     28 N          -3.5573   -4.9359    0.4324 N.ar    1  LIG1       -0.3494
     29 H          -2.6287   -4.9431    0.8237 H       1  LIG1        0.1661
     30 N          -6.4337   -3.3582   -1.0193 N.pl3   1  LIG1       -0.3554
     31 H          -6.0528   -2.7606   -1.7471 H       1  LIG1        0.1424
     32 H          -7.2137   -3.8964   -1.3847 H       1  LIG1        0.1424
     33 S          -6.9922   -6.5898   -0.5834 S.3     1  LIG1       -0.1388
     34 H          -6.3172   -7.5972   -1.1874 H       1  LIG1        0.1072
     35 C          -3.9658   -7.3760    0.6987 C.ar    1  LIG1        0.0860
     36 C          -4.0330   -8.5403   -0.0328 C.ar    1  LIG1        0.0650
     37 C          -3.5311   -9.5881    0.7975 C.ar    1  LIG1        0.0434
     38 C          -3.1868   -9.0224    2.0048 C.ar    1  LIG1        0.0173
     39 N          -3.4353   -7.6926    1.9299 N.ar    1  LIG1       -0.3570
     40 H          -3.3737   -7.0424    2.6979 H       1  LIG1        0.1655
     41 H          -2.7941   -9.4864    2.8928 H       1  LIG1        0.0819
     42 N          -4.5304   -8.6591   -1.3487 N.pl3   1  LIG1       -0.3554
     43 H          -4.0157   -8.0835   -2.0077 H       1  LIG1        0.1424
     44 H          -4.5239   -9.6289   -1.6491 H       1  LIG1        0.1424
     45 S          -3.4335  -11.2990    0.3709 S.3     1  LIG1       -0.1394
     46 H          -2.2525  -11.2604   -0.2614 H       1  LIG1        0.1072
@<TRIPOS>BOND
     1     7     1    1
     2     6     5    1
     3     1     5   ar
     4     1     2   ar
     5    43    42    1
     6     5     4   ar
     7    31    30    1
     8    44    42    1
     9    32    30    1
    10    42    36    1
    11    34    33    1
    12     9     8    1
    13    30    25    1
    14    18    17    1
    15     2     8    1
    16     2     3   ar
    17     4    13    1
    18     4     3   ar
    19    33    26    1
    20    17    13   ar
    21    17    16   ar
    22    25    26   ar
    23    25    24   ar
    24     8    10    1
    25    13    14   ar
    26    46    45    1
    27    26    27   ar
    28    20    19    1
    29    36    35   ar
    30    36    37   ar
    31    24    16    1
    32    24    28   ar
    33    16    15   ar
    34     3    11    1
    35    27    28   ar
    36    27    35    1
    37    14    15   ar
    38    14    19    1
    39    45    37    1
    40    28    29    1
    41    23    22    1
    42    15    22    1
    43    35    39   ar
    44    19    21    1
    45    37    38   ar
    46    12    11    1
    47    39    38   ar
    48    39    40    1
    49    38    41    1
