@<TRIPOS>MOLECULE
mol_data/opt/m06hf/geoms/mol2/13hg.out
 13 13 0 0 0
SMALL
GASTEIGER

@<TRIPOS>ATOM
      1 C           1.1358   -0.4771   -0.0459 C.ar    1  LIG1        0.0237
      2 C           0.6909    0.8196   -0.0384 C.ar    1  LIG1        0.0554
      3 C          -0.7335    0.7648    0.1141 C.ar    1  LIG1        0.0428
      4 C          -1.0883   -0.5597    0.2001 C.ar    1  LIG1        0.0168
      5 N           0.0489   -1.2986    0.0909 N.ar    1  LIG1       -0.3645
      6 H           0.0874   -2.3040    0.1231 H       1  LIG1        0.1649
      7 H          -2.0574   -1.0094    0.3329 H       1  LIG1        0.0818
      8 H           2.1380   -0.8585   -0.1301 H       1  LIG1        0.0826
      9 N           1.5179    1.9697   -0.1522 N.pl3   1  LIG1       -0.3560
     10 H           1.5372    2.3105   -1.1089 H       1  LIG1        0.1424
     11 H           1.1532    2.7170    0.4320 H       1  LIG1        0.1424
     12 S          -1.8212    2.1483    0.2732 S.3     1  LIG1       -0.1394
     13 H          -1.9662    2.4179   -1.0319 H       1  LIG1        0.1072
@<TRIPOS>BOND
     1    10     9    1
     2    13    12    1
     3     9     2    1
     4     9    11    1
     5     8     1    1
     6     1     2   ar
     7     1     5   ar
     8     2     3   ar
     9     5     6    1
    10     5     4   ar
    11     3     4   ar
    12     3    12    1
    13     4     7    1
