@<TRIPOS>MOLECULE
mol_data/opt/m06hf/geoms/mol2/13hg13hg-13hg-.out
 35 37 0 0 0
SMALL
GASTEIGER

@<TRIPOS>ATOM
      1 C           1.0676    0.0069   -1.2607 C.ar    1  LIG1        0.0241
      2 C           0.9190    0.9569   -0.2779 C.ar    1  LIG1        0.0561
      3 C          -0.3564    0.7384    0.3261 C.ar    1  LIG1        0.0522
      4 C          -0.9409   -0.3324   -0.3203 C.ar    1  LIG1        0.0799
      5 N          -0.0686   -0.7653   -1.2782 N.ar    1  LIG1       -0.3570
      6 H          -0.2947   -1.4497   -1.9810 H       1  LIG1        0.1655
      7 H           1.8885   -0.1787   -1.9305 H       1  LIG1        0.0826
      8 N           1.8473    1.9239    0.1450 N.pl3   1  LIG1       -0.3560
      9 H           2.4197    2.2774   -0.6112 H       1  LIG1        0.1424
     10 H           1.3817    2.6890    0.6213 H       1  LIG1        0.1424
     11 S          -0.9883    1.6437    1.7072 S.3     1  LIG1       -0.1388
     12 H          -2.2356    1.7903    1.2074 H       1  LIG1        0.1072
     13 C          -2.2639   -0.9107   -0.1136 C.ar    1  LIG1        0.0865
     14 C          -3.4822   -0.2672   -0.0364 C.ar    1  LIG1        0.0657
     15 C          -4.4735   -1.2565    0.2173 C.ar    1  LIG1        0.0529
     16 C          -3.8275   -2.4775    0.2655 C.ar    1  LIG1        0.0804
     17 N          -2.4975   -2.2549    0.0497 N.ar    1  LIG1       -0.3494
     18 H          -1.7827   -2.9652    0.0392 H       1  LIG1        0.1661
     19 N          -3.6847    1.1240   -0.1499 N.pl3   1  LIG1       -0.3554
     20 H          -3.2047    1.5069   -0.9591 H       1  LIG1        0.1424
     21 H          -4.6750    1.3440   -0.1951 H       1  LIG1        0.1424
     22 S          -6.1923   -0.9385    0.4772 S.3     1  LIG1       -0.1388
     23 H          -6.6250   -1.9235   -0.3441 H       1  LIG1        0.1072
     24 C          -4.4015   -3.8061    0.4558 C.ar    1  LIG1        0.0860
     25 C          -5.4722   -4.3888   -0.1849 C.ar    1  LIG1        0.0650
     26 C          -5.6471   -5.6866    0.3843 C.ar    1  LIG1        0.0434
     27 C          -4.6819   -5.8411    1.3543 C.ar    1  LIG1        0.0173
     28 N          -3.9285   -4.7148    1.3766 N.ar    1  LIG1       -0.3570
     29 H          -3.2144   -4.5014    2.0552 H       1  LIG1        0.1655
     30 H          -4.5005   -6.6700    2.0163 H       1  LIG1        0.0819
     31 N          -6.2533   -3.7876   -1.1958 N.pl3   1  LIG1       -0.3554
     32 H          -5.7026   -3.5418   -2.0123 H       1  LIG1        0.1424
     33 H          -7.0236   -4.3930   -1.4624 H       1  LIG1        0.1424
     34 S          -6.9127   -6.8457   -0.0355 S.3     1  LIG1       -0.1394
     35 H          -6.2814   -7.4484   -1.0525 H       1  LIG1        0.1072
@<TRIPOS>BOND
     1    32    31    1
     2     6     5    1
     3     7     1    1
     4    33    31    1
     5     5     1   ar
     6     5     4   ar
     7     1     2   ar
     8    31    25    1
     9    35    34    1
    10    20    19    1
    11     9     8    1
    12    23    22    1
    13     4    13    1
    14     4     3   ar
    15     2     8    1
    16     2     3   ar
    17    21    19    1
    18    25    26   ar
    19    25    24   ar
    20    19    14    1
    21    13    14   ar
    22    13    17   ar
    23    14    15   ar
    24    34    26    1
    25    18    17    1
    26    17    16   ar
    27     8    10    1
    28    15    16   ar
    29    15    22    1
    30    16    24    1
    31     3    11    1
    32    26    27   ar
    33    24    28   ar
    34    12    11    1
    35    27    28   ar
    36    27    30    1
    37    28    29    1
