@<TRIPOS>MOLECULE
mol_data/opt/m06hf/geoms/mol2/13hg13hg-13hg.out
 35 37 0 0 0
SMALL
GASTEIGER

@<TRIPOS>ATOM
      1 C           1.0716    0.0038   -1.2553 C.ar    1  LIG1        0.0241
      2 C           0.9207    0.9552   -0.2743 C.ar    1  LIG1        0.0561
      3 C          -0.3564    0.7380    0.3266 C.ar    1  LIG1        0.0522
      4 C          -0.9395   -0.3336   -0.3197 C.ar    1  LIG1        0.0799
      5 N          -0.0648   -0.7682   -1.2747 N.ar    1  LIG1       -0.3570
      6 H          -0.2893   -1.4535   -1.9770 H       1  LIG1        0.1655
      7 H           1.8941   -0.1831   -1.9227 H       1  LIG1        0.0826
      8 N           1.8481    1.9226    0.1496 N.pl3   1  LIG1       -0.3560
      9 H           2.4227    2.2747   -0.6056 H       1  LIG1        0.1424
     10 H           1.3815    2.6886    0.6235 H       1  LIG1        0.1424
     11 S          -0.9916    1.6456    1.7047 S.3     1  LIG1       -0.1388
     12 H          -2.2376    1.7918    1.2014 H       1  LIG1        0.1072
     13 C          -2.2633   -0.9112   -0.1157 C.ar    1  LIG1        0.0865
     14 C          -3.4815   -0.2672   -0.0426 C.ar    1  LIG1        0.0657
     15 C          -4.4738   -1.2558    0.2099 C.ar    1  LIG1        0.0529
     16 C          -3.8283   -2.4769    0.2616 C.ar    1  LIG1        0.0804
     17 N          -2.4976   -2.2551    0.0490 N.ar    1  LIG1       -0.3494
     18 H          -1.7831   -2.9656    0.0414 H       1  LIG1        0.1661
     19 N          -3.6833    1.1239   -0.1587 N.pl3   1  LIG1       -0.3554
     20 H          -3.2010    1.5054   -0.9673 H       1  LIG1        0.1424
     21 H          -4.6734    1.3441   -0.2069 H       1  LIG1        0.1424
     22 S          -6.1932   -0.9369    0.4648 S.3     1  LIG1       -0.1388
     23 H          -6.6240   -1.9230   -0.3562 H       1  LIG1        0.1072
     24 C          -4.4033   -3.8051    0.4524 C.ar    1  LIG1        0.0860
     25 C          -5.4724   -4.3884   -0.1903 C.ar    1  LIG1        0.0650
     26 C          -5.6491   -5.6853    0.3803 C.ar    1  LIG1        0.0434
     27 C          -4.6865   -5.8386    1.3531 C.ar    1  LIG1        0.0173
     28 N          -3.9329   -4.7125    1.3757 N.ar    1  LIG1       -0.3570
     29 H          -3.2205   -4.4984    2.0559 H       1  LIG1        0.1655
     30 H          -4.5071   -6.6667    2.0168 H       1  LIG1        0.0819
     31 N          -6.2507   -3.7885   -1.2042 N.pl3   1  LIG1       -0.3554
     32 H          -5.6978   -3.5442   -2.0196 H       1  LIG1        0.1424
     33 H          -7.0205   -4.3940   -1.4717 H       1  LIG1        0.1424
     34 S          -6.9140   -6.8447   -0.0410 S.3     1  LIG1       -0.1394
     35 H          -6.2802   -7.4490   -1.0555 H       1  LIG1        0.1072
@<TRIPOS>BOND
     1    32    31    1
     2     6     5    1
     3     7     1    1
     4    33    31    1
     5     5     1   ar
     6     5     4   ar
     7     1     2   ar
     8    31    25    1
     9    35    34    1
    10    20    19    1
    11     9     8    1
    12    23    22    1
    13     4    13    1
    14     4     3   ar
    15     2     8    1
    16     2     3   ar
    17    21    19    1
    18    25    26   ar
    19    25    24   ar
    20    19    14    1
    21    13    14   ar
    22    13    17   ar
    23    14    15   ar
    24    34    26    1
    25    18    17    1
    26    17    16   ar
    27     8    10    1
    28    15    16   ar
    29    15    22    1
    30    16    24    1
    31     3    11    1
    32    26    27   ar
    33    24    28   ar
    34    12    11    1
    35    27    28   ar
    36    27    30    1
    37    28    29    1
