@<TRIPOS>MOLECULE
mol_data/opt/m06hf/geoms/mol2/13hg13hg-13hg-13hg-.out
 46 49 0 0 0
SMALL
GASTEIGER

@<TRIPOS>ATOM
      1 C           0.6390    0.6402   -2.0692 C.ar    1  LIG1        0.0241
      2 C           0.8430    1.2228   -0.8402 C.ar    1  LIG1        0.0561
      3 C          -0.1955    0.7544    0.0216 C.ar    1  LIG1        0.0522
      4 C          -0.9980   -0.0896   -0.7198 C.ar    1  LIG1        0.0799
      5 N          -0.4829   -0.1478   -1.9834 N.ar    1  LIG1       -0.3570
      6 H          -0.9452   -0.5865   -2.7627 H       1  LIG1        0.1655
      7 H           1.2047    0.7227   -2.9802 H       1  LIG1        0.0826
      8 N           1.9014    2.0589   -0.4422 N.pl3   1  LIG1       -0.3560
      9 H           2.1915    2.6974   -1.1725 H       1  LIG1        0.1424
     10 H           1.6570    2.5754    0.3959 H       1  LIG1        0.1424
     11 S          -0.3360    1.1401    1.7403 S.3     1  LIG1       -0.1388
     12 H          -1.6643    1.3927    1.7158 H       1  LIG1        0.1072
     13 C          -2.2188   -0.7758   -0.3102 C.ar    1  LIG1        0.0865
     14 C          -3.3296   -0.2494    0.3167 C.ar    1  LIG1        0.0657
     15 C          -4.2361   -1.3211    0.5512 C.ar    1  LIG1        0.0529
     16 C          -3.6519   -2.4675    0.0436 C.ar    1  LIG1        0.0804
     17 N          -2.4428   -2.1201   -0.4867 N.ar    1  LIG1       -0.3494
     18 H          -1.7940   -2.7545   -0.9239 H       1  LIG1        0.1661
     19 N          -3.5002    1.0991    0.6903 N.pl3   1  LIG1       -0.3554
     20 H          -3.2541    1.7321   -0.0651 H       1  LIG1        0.1424
     21 H          -4.4523    1.2722    0.9976 H       1  LIG1        0.1424
     22 S          -5.7819   -1.1895    1.3967 S.3     1  LIG1       -0.1388
     23 H          -6.4899   -1.8978    0.4855 H       1  LIG1        0.1072
     24 C          -4.2054   -3.8169    0.0056 C.ar    1  LIG1        0.0865
     25 C          -5.4458   -4.2191   -0.4462 C.ar    1  LIG1        0.0657
     26 C          -5.5540   -5.6179   -0.2095 C.ar    1  LIG1        0.0529
     27 C          -4.3644   -6.0266    0.3640 C.ar    1  LIG1        0.0804
     28 N          -3.5547   -4.9330    0.4725 N.ar    1  LIG1       -0.3494
     29 H          -2.6268   -4.9348    0.8655 H       1  LIG1        0.1661
     30 N          -6.4321   -3.3742   -0.9974 N.pl3   1  LIG1       -0.3554
     31 H          -6.0513   -2.7818   -1.7294 H       1  LIG1        0.1424
     32 H          -7.2102   -3.9172   -1.3595 H       1  LIG1        0.1424
     33 S          -6.9842   -6.6032   -0.5349 S.3     1  LIG1       -0.1388
     34 H          -6.3059   -7.6143   -1.1291 H       1  LIG1        0.1072
     35 C          -3.9583   -7.3717    0.7590 C.ar    1  LIG1        0.0860
     36 C          -4.0216   -8.5423    0.0373 C.ar    1  LIG1        0.0650
     37 C          -3.5185   -9.5818    0.8773 C.ar    1  LIG1        0.0434
     38 C          -3.1774   -9.0050    2.0803 C.ar    1  LIG1        0.0173
     39 N          -3.4289   -7.6764    1.9937 N.ar    1  LIG1       -0.3570
     40 H          -3.3704   -7.0197    2.7562 H       1  LIG1        0.1655
     41 H          -2.7850   -9.4605    2.9728 H       1  LIG1        0.0819
     42 N          -4.5164   -8.6735   -1.2783 N.pl3   1  LIG1       -0.3554
     43 H          -4.0019   -8.1023   -1.9414 H       1  LIG1        0.1424
     44 H          -4.5072   -9.6457   -1.5704 H       1  LIG1        0.1424
     45 S          -3.4162  -11.2960    0.4653 S.3     1  LIG1       -0.1394
     46 H          -2.2344  -11.2600   -0.1656 H       1  LIG1        0.1072
@<TRIPOS>BOND
     1     7     1    1
     2     6     5    1
     3     1     5   ar
     4     1     2   ar
     5     5     4   ar
     6    43    42    1
     7    31    30    1
     8    44    42    1
     9    32    30    1
    10    42    36    1
    11     9     8    1
    12    34    33    1
    13    30    25    1
    14    18    17    1
    15     2     8    1
    16     2     3   ar
    17     4    13    1
    18     4     3   ar
    19    33    26    1
    20    17    13   ar
    21    17    16   ar
    22    25    26   ar
    23    25    24   ar
    24     8    10    1
    25    13    14   ar
    26    26    27   ar
    27    46    45    1
    28    20    19    1
    29    24    16    1
    30    24    28   ar
    31     3    11    1
    32    36    35   ar
    33    36    37   ar
    34    16    15   ar
    35    14    15   ar
    36    14    19    1
    37    27    28   ar
    38    27    35    1
    39    45    37    1
    40    28    29    1
    41    23    22    1
    42    15    22    1
    43    19    21    1
    44    35    39   ar
    45    37    38   ar
    46    12    11    1
    47    39    38   ar
    48    39    40    1
    49    38    41    1
