@<TRIPOS>MOLECULE
mol_data/opt/m06hf/geoms/mol2/13hg13hg-13hg13hg-.out
 46 49 0 0 0
SMALL
GASTEIGER

@<TRIPOS>ATOM
      1 C           0.6390    0.5607   -2.1835 C.ar    1  LIG1        0.0241
      2 C           0.8506    1.1489   -0.9587 C.ar    1  LIG1        0.0561
      3 C          -0.1879    0.6922   -0.0909 C.ar    1  LIG1        0.0522
      4 C          -0.9987   -0.1501   -0.8253 C.ar    1  LIG1        0.0799
      5 N          -0.4875   -0.2203   -2.0896 N.ar    1  LIG1       -0.3570
      6 H          -0.9583   -0.6545   -2.8660 H       1  LIG1        0.1655
      7 H           1.2027    0.6336   -3.0966 H       1  LIG1        0.0826
      8 N           1.9152    1.9785   -0.5659 N.pl3   1  LIG1       -0.3560
      9 H           2.2291    2.5917   -1.3078 H       1  LIG1        0.1424
     10 H           1.6669    2.5203    0.2551 H       1  LIG1        0.1424
     11 S          -0.3118    1.0830    1.6293 S.3     1  LIG1       -0.1388
     12 H          -1.6389    1.3403    1.6198 H       1  LIG1        0.1072
     13 C          -2.2237   -0.8237   -0.4080 C.ar    1  LIG1        0.0865
     14 C          -3.3236   -0.2858    0.2291 C.ar    1  LIG1        0.0657
     15 C          -4.2400   -1.3476    0.4674 C.ar    1  LIG1        0.0529
     16 C          -3.6750   -2.4985   -0.0499 C.ar    1  LIG1        0.0804
     17 N          -2.4655   -2.1644   -0.5881 N.ar    1  LIG1       -0.3494
     18 H          -1.8253   -2.8062   -1.0277 H       1  LIG1        0.1661
     19 N          -3.4770    1.0630    0.6080 N.pl3   1  LIG1       -0.3554
     20 H          -3.2196    1.6957   -0.1438 H       1  LIG1        0.1424
     21 H          -4.4276    1.2476    0.9129 H       1  LIG1        0.1424
     22 S          -5.7794   -1.2020    1.3223 S.3     1  LIG1       -0.1388
     23 H          -6.4970   -1.8922    0.4039 H       1  LIG1        0.1072
     24 C          -4.2428   -3.8421   -0.0884 C.ar    1  LIG1        0.0865
     25 C          -5.4833   -4.2400   -0.5365 C.ar    1  LIG1        0.0657
     26 C          -5.5878   -5.6436   -0.3115 C.ar    1  LIG1        0.0529
     27 C          -4.3958   -6.0636    0.2608 C.ar    1  LIG1        0.0804
     28 N          -3.6000   -4.9644    0.3795 N.ar    1  LIG1       -0.3494
     29 H          -2.6691   -4.9742    0.7668 H       1  LIG1        0.1661
     30 N          -6.4767   -3.3920   -1.0663 N.pl3   1  LIG1       -0.3554
     31 H          -6.1392   -2.8512   -1.8564 H       1  LIG1        0.1424
     32 H          -7.3001   -3.9249   -1.3297 H       1  LIG1        0.1424
     33 S          -6.9929   -6.6240   -0.7369 S.3     1  LIG1       -0.1388
     34 H          -7.4613   -6.8261    0.5005 H       1  LIG1        0.1072
     35 C          -3.9521   -7.3634    0.7581 C.ar    1  LIG1        0.0860
     36 C          -3.9541   -8.6188    0.1839 C.ar    1  LIG1        0.0650
     37 C          -3.2962   -9.4939    1.1058 C.ar    1  LIG1        0.0434
     38 C          -2.9395   -8.7477    2.2063 C.ar    1  LIG1        0.0173
     39 N          -3.3225   -7.4698    1.9900 N.ar    1  LIG1       -0.3570
     40 H          -3.3145   -6.7343    2.6790 H       1  LIG1        0.1655
     41 H          -2.4571   -9.0598    3.1169 H       1  LIG1        0.0819
     42 N          -4.5099   -9.0087   -1.0239 N.pl3   1  LIG1       -0.3554
     43 H          -4.7399   -8.2542   -1.6541 H       1  LIG1        0.1424
     44 H          -4.0457   -9.7914   -1.4629 H       1  LIG1        0.1424
     45 S          -3.0421  -11.2270    0.8883 S.3     1  LIG1       -0.1394
     46 H          -1.8342  -11.1695    0.3082 H       1  LIG1        0.1072
@<TRIPOS>BOND
     1     7     1    1
     2     6     5    1
     3     1     5   ar
     4     1     2   ar
     5     5     4   ar
     6    31    30    1
     7    43    42    1
     8    44    42    1
     9    32    30    1
    10     9     8    1
    11    30    25    1
    12    18    17    1
    13    42    36    1
    14     2     8    1
    15     2     3   ar
    16     4    13    1
    17     4     3   ar
    18    33    26    1
    19    33    34    1
    20    17    13   ar
    21    17    16   ar
    22     8    10    1
    23    25    26   ar
    24    25    24   ar
    25    13    14   ar
    26    26    27   ar
    27    20    19    1
    28     3    11    1
    29    24    16    1
    30    24    28   ar
    31    16    15   ar
    32    36    35   ar
    33    36    37   ar
    34    14    15   ar
    35    14    19    1
    36    27    28   ar
    37    27    35    1
    38    46    45    1
    39    28    29    1
    40    23    22    1
    41    15    22    1
    42    19    21    1
    43    35    39   ar
    44    45    37    1
    45    37    38   ar
    46    12    11    1
    47    39    38   ar
    48    39    40    1
    49    38    41    1
