@<TRIPOS>MOLECULE
mol_data/opt/m06hf/geoms/mol2/13hh13hh13hh13hh-.out
 50 53 0 0 0
SMALL
GASTEIGER

@<TRIPOS>ATOM
      1 C           0.8107    0.2973    1.4982 C.ar    1  LIG1        0.0249
      2 C           0.7114    1.2091    0.4711 C.ar    1  LIG1        0.0637
      3 C          -0.5104    0.9414   -0.2107 C.ar    1  LIG1        0.0726
      4 C          -1.1200   -0.1193    0.4196 C.ar    1  LIG1        0.0875
      5 N          -0.2904   -0.5040    1.4508 N.ar    1  LIG1       -0.3564
      6 H          -0.5446   -1.1831    2.1496 H       1  LIG1        0.1655
      7 H           1.5776    0.1636    2.2421 H       1  LIG1        0.0826
      8 N           1.5986    2.2467    0.0533 N.pl3   1  LIG1       -0.3554
      9 H           1.6356    3.0053    0.7262 H       1  LIG1        0.1424
     10 H           2.5400    1.9010   -0.0984 H       1  LIG1        0.1424
     11 N          -1.0010    1.6823   -1.3100 N.pl3   1  LIG1       -0.3549
     12 H          -0.2808    2.3424   -1.5946 H       1  LIG1        0.1424
     13 H          -1.2390    1.0736   -2.0884 H       1  LIG1        0.1424
     14 C          -2.4031   -0.7496    0.1407 C.ar    1  LIG1        0.0880
     15 C          -3.6018   -0.1644   -0.2092 C.ar    1  LIG1        0.0733
     16 C          -4.5658   -1.2107   -0.3141 C.ar    1  LIG1        0.0733
     17 C          -3.9293   -2.4036   -0.0289 C.ar    1  LIG1        0.0880
     18 N          -2.6228   -2.1088    0.2390 N.ar    1  LIG1       -0.3488
     19 H          -1.9233   -2.7902    0.4832 H       1  LIG1        0.1661
     20 N          -3.8859    1.2051   -0.3652 N.pl3   1  LIG1       -0.3548
     21 H          -3.0314    1.7531   -0.4670 H       1  LIG1        0.1424
     22 H          -4.4699    1.3612   -1.1810 H       1  LIG1        0.1424
     23 N          -5.9507   -1.0519   -0.6184 N.pl3   1  LIG1       -0.3548
     24 H          -6.2804   -0.1603   -0.2578 H       1  LIG1        0.1424
     25 H          -6.1313   -1.0893   -1.6181 H       1  LIG1        0.1424
     26 C          -4.4278   -3.7725    0.0034 C.ar    1  LIG1        0.0880
     27 C          -5.6620   -4.2687    0.3863 C.ar    1  LIG1        0.0733
     28 C          -5.5780   -5.6896    0.3062 C.ar    1  LIG1        0.0733
     29 C          -4.3033   -6.0035   -0.1186 C.ar    1  LIG1        0.0880
     30 N          -3.6185   -4.8498   -0.2978 N.ar    1  LIG1       -0.3488
     31 H          -2.6781   -4.8546   -0.6772 H       1  LIG1        0.1661
     32 N          -6.7653   -3.5438    0.8580 N.pl3   1  LIG1       -0.3548
     33 H          -6.7540   -2.5912    0.4872 H       1  LIG1        0.1424
     34 H          -7.6372   -4.0050    0.6244 H       1  LIG1        0.1424
     35 N          -6.5760   -6.6635    0.6335 N.pl3   1  LIG1       -0.3548
     36 H          -6.9441   -6.4917    1.5662 H       1  LIG1        0.1424
     37 H          -7.3546   -6.6312   -0.0204 H       1  LIG1        0.1424
     38 C          -3.6895   -7.2975   -0.3552 C.ar    1  LIG1        0.0875
     39 C          -2.4366   -7.6048   -0.8368 C.ar    1  LIG1        0.0726
     40 C          -2.3175   -9.0246   -0.8200 C.ar    1  LIG1        0.0637
     41 C          -3.5082   -9.5220   -0.3330 C.ar    1  LIG1        0.0249
     42 N          -4.3243   -8.4637   -0.0570 N.ar    1  LIG1       -0.3564
     43 H          -5.2642   -8.4596    0.3235 H       1  LIG1        0.1655
     44 H          -3.8196  -10.5383   -0.1614 H       1  LIG1        0.0826
     45 N          -1.4601   -6.6387   -1.2409 N.pl3   1  LIG1       -0.3549
     46 H          -0.5496   -6.9399   -0.8992 H       1  LIG1        0.1424
     47 H          -1.3917   -6.6160   -2.2565 H       1  LIG1        0.1424
     48 N          -1.1272   -9.7094   -1.2061 N.pl3   1  LIG1       -0.3554
     49 H          -0.9950  -10.5549   -0.6623 H       1  LIG1        0.1424
     50 H          -1.1463   -9.9646   -2.1890 H       1  LIG1        0.1424
@<TRIPOS>BOND
     1    47    45    1
     2    50    48    1
     3    13    11    1
     4    25    23    1
     5    12    11    1
     6    11     3    1
     7    45    46    1
     8    45    39    1
     9    48    40    1
    10    48    49    1
    11    22    20    1
    12    39    40   ar
    13    39    38   ar
    14    40    41   ar
    15    31    30    1
    16    23    16    1
    17    23    24    1
    18    21    20    1
    19    20    15    1
    20    38    29    1
    21    38    42   ar
    22    41    44    1
    23    41    42   ar
    24    16    15   ar
    25    16    17   ar
    26    30    29   ar
    27    30    26   ar
    28     3     4   ar
    29     3     2   ar
    30    15    14   ar
    31    29    28   ar
    32    10     8    1
    33    42    43    1
    34    17    26    1
    35    17    18   ar
    36    37    35    1
    37    26    27   ar
    38     8     2    1
    39     8     9    1
    40    14    18   ar
    41    14     4    1
    42    18    19    1
    43    28    27   ar
    44    28    35    1
    45    27    32    1
    46     4     5   ar
    47     2     1   ar
    48    33    32    1
    49    34    32    1
    50    35    36    1
    51     5     1   ar
    52     5     6    1
    53     1     7    1
