@<TRIPOS>MOLECULE
mol_data/opt/m06hf/geoms/mol2/13hh13hh-13hh13hh-.out
 50 53 0 0 0
SMALL
GASTEIGER

@<TRIPOS>ATOM
      1 C           1.3062   -0.2725   -0.0282 C.ar    1  LIG1        0.0249
      2 C           0.9047    1.0433   -0.1123 C.ar    1  LIG1        0.0637
      3 C          -0.5182    1.0424   -0.1911 C.ar    1  LIG1        0.0726
      4 C          -0.9243   -0.2733   -0.1487 C.ar    1  LIG1        0.0875
      5 N           0.1869   -1.0542   -0.0503 N.ar    1  LIG1       -0.3564
      6 H           0.1073   -2.0635    0.0033 H       1  LIG1        0.1655
      7 H           2.2932   -0.6949    0.0519 H       1  LIG1        0.0826
      8 N           1.6799    2.2392   -0.0773 N.pl3   1  LIG1       -0.3554
      9 H           2.5618    2.0937    0.4010 H       1  LIG1        0.1424
     10 H           1.8785    2.5788   -1.0139 H       1  LIG1        0.1424
     11 N          -1.3963    2.1657   -0.2647 N.pl3   1  LIG1       -0.3549
     12 H          -1.0220    2.9117    0.3171 H       1  LIG1        0.1424
     13 H          -1.4442    2.5232   -1.2157 H       1  LIG1        0.1424
     14 C          -2.2619   -0.8415   -0.1532 C.ar    1  LIG1        0.0880
     15 C          -2.6586   -2.1643   -0.1349 C.ar    1  LIG1        0.0733
     16 C          -4.0840   -2.1705   -0.1228 C.ar    1  LIG1        0.0733
     17 C          -4.4898   -0.8493   -0.1356 C.ar    1  LIG1        0.0880
     18 N          -3.3777   -0.0651   -0.1535 N.ar    1  LIG1       -0.3488
     19 H          -3.3804    0.9543   -0.1438 H       1  LIG1        0.1661
     20 N          -1.7472   -3.2724   -0.1254 N.pl3   1  LIG1       -0.3548
     21 H          -1.9587   -3.9041    0.6425 H       1  LIG1        0.1424
     22 H          -1.8127   -3.8048   -0.9894 H       1  LIG1        0.1424
     23 N          -4.9871   -3.2791   -0.0941 N.pl3   1  LIG1       -0.3548
     24 H          -4.7758   -3.9526   -0.8244 H       1  LIG1        0.1424
     25 H          -4.9638   -3.7596    0.8008 H       1  LIG1        0.1424
     26 C          -5.8323   -0.2921   -0.1349 C.ar    1  LIG1        0.0880
     27 C          -6.2381    1.0291   -0.1214 C.ar    1  LIG1        0.0733
     28 C          -7.6636    1.0229   -0.1320 C.ar    1  LIG1        0.0733
     29 C          -8.0603   -0.2999   -0.1500 C.ar    1  LIG1        0.0880
     30 N          -6.9445   -1.0763   -0.1515 N.ar    1  LIG1       -0.3488
     31 H          -6.9418   -2.0957   -0.1418 H       1  LIG1        0.1661
     32 N          -5.3350    2.1377   -0.0936 N.pl3   1  LIG1       -0.3548
     33 H          -5.5471    2.8112   -0.8237 H       1  LIG1        0.1424
     34 H          -5.3574    2.6182    0.8013 H       1  LIG1        0.1424
     35 N          -8.5749    2.1310   -0.1214 N.pl3   1  LIG1       -0.3548
     36 H          -8.3626    2.7626    0.6463 H       1  LIG1        0.1424
     37 H          -8.5103    2.6635   -0.9854 H       1  LIG1        0.1424
     38 C          -9.3979   -0.8680   -0.1439 C.ar    1  LIG1        0.0875
     39 C          -9.8041   -2.1838   -0.1860 C.ar    1  LIG1        0.0726
     40 C         -11.2269   -2.1847   -0.1055 C.ar    1  LIG1        0.0637
     41 C         -11.6282   -0.8688   -0.0207 C.ar    1  LIG1        0.0249
     42 N         -10.5089   -0.0871   -0.0442 N.ar    1  LIG1       -0.3564
     43 H         -10.4293    0.9222    0.0094 H       1  LIG1        0.1655
     44 H         -12.6151   -0.4463    0.0606 H       1  LIG1        0.0826
     45 N          -8.9261   -3.3071   -0.2608 N.pl3   1  LIG1       -0.3549
     46 H          -9.3000   -4.0532    0.3211 H       1  LIG1        0.1424
     47 H          -8.8792   -3.6643   -1.2121 H       1  LIG1        0.1424
     48 N         -12.0021   -3.3805   -0.0699 N.pl3   1  LIG1       -0.3554
     49 H         -12.8830   -3.2353    0.4103 H       1  LIG1        0.1424
     50 H         -12.2026   -3.7194   -1.0063 H       1  LIG1        0.1424
@<TRIPOS>BOND
     1    13    11    1
     2    47    45    1
     3    10     8    1
     4    50    48    1
     5    22    20    1
     6    37    35    1
     7    24    23    1
     8    33    32    1
     9    11     3    1
    10    11    12    1
    11    45    39    1
    12    45    46    1
    13     3     4   ar
    14     3     2   ar
    15    39    38   ar
    16    39    40   ar
    17    18    14   ar
    18    18    19    1
    19    18    17   ar
    20    14     4    1
    21    14    15   ar
    22    30    29   ar
    23    30    31    1
    24    30    26   ar
    25    29    38    1
    26    29    28   ar
    27     4     5   ar
    28    38    42   ar
    29    17    26    1
    30    17    16   ar
    31    15    20    1
    32    15    16   ar
    33    26    27   ar
    34    28    35    1
    35    28    27   ar
    36    20    21    1
    37    16    23    1
    38    35    36    1
    39    27    32    1
    40     2     8    1
    41     2     1   ar
    42    40    48    1
    43    40    41   ar
    44    23    25    1
    45    32    34    1
    46     8     9    1
    47    48    49    1
    48     5     1   ar
    49     5     6    1
    50    42    41   ar
    51    42    43    1
    52     1     7    1
    53    41    44    1
