@<TRIPOS>MOLECULE
mol_data/opt/m06hf/geoms/mol2/13hh13hh13hh-13hh-.out
 50 53 0 0 0
SMALL
GASTEIGER

@<TRIPOS>ATOM
      1 C           1.1098    0.1631    0.8225 C.ar    1  LIG1        0.0249
      2 C           0.8201    1.2026   -0.0330 C.ar    1  LIG1        0.0637
      3 C          -0.5118    1.0054   -0.4968 C.ar    1  LIG1        0.0726
      4 C          -0.9983   -0.1379    0.0953 C.ar    1  LIG1        0.0875
      5 N           0.0121   -0.6425    0.8815 N.ar    1  LIG1       -0.3564
      6 H          -0.1045   -1.4287    1.4996 H       1  LIG1        0.1655
      7 H           2.0053   -0.0572    1.3781 H       1  LIG1        0.0826
      8 N           1.6163    2.3066   -0.4664 N.pl3   1  LIG1       -0.3554
      9 H           1.7780    2.9697    0.2845 H       1  LIG1        0.1424
     10 H           2.5131    2.0051   -0.8311 H       1  LIG1        0.1424
     11 N          -1.1978    1.8649   -1.3900 N.pl3   1  LIG1       -0.3549
     12 H          -0.5534    2.6013   -1.6708 H       1  LIG1        0.1424
     13 H          -1.5064    1.3577   -2.2156 H       1  LIG1        0.1424
     14 C          -2.3154   -0.7492   -0.0044 C.ar    1  LIG1        0.0880
     15 C          -3.5529   -0.1333   -0.0708 C.ar    1  LIG1        0.0733
     16 C          -4.5287   -1.1721   -0.0988 C.ar    1  LIG1        0.0733
     17 C          -3.8516   -2.3742   -0.0430 C.ar    1  LIG1        0.0880
     18 N          -2.5233   -2.1120    0.0123 N.ar    1  LIG1       -0.3488
     19 H          -1.8403   -2.8613   -0.0273 H       1  LIG1        0.1661
     20 N          -3.8254    1.2429   -0.0136 N.pl3   1  LIG1       -0.3548
     21 H          -3.0317    1.7997   -0.3352 H       1  LIG1        0.1424
     22 H          -4.6534    1.4795   -0.5484 H       1  LIG1        0.1424
     23 N          -5.9560   -1.0540   -0.1370 N.pl3   1  LIG1       -0.3548
     24 H          -6.2761   -0.4289    0.5990 H       1  LIG1        0.1424
     25 H          -6.2701   -0.6727   -1.0264 H       1  LIG1        0.1424
     26 C          -4.3647   -3.7318   -0.0413 C.ar    1  LIG1        0.0880
     27 C          -3.6877   -4.9341   -0.0954 C.ar    1  LIG1        0.0733
     28 C          -4.6634   -5.9727   -0.0641 C.ar    1  LIG1        0.0733
     29 C          -5.9008   -5.3567    0.0026 C.ar    1  LIG1        0.0880
     30 N          -5.6930   -3.9939    0.0162 N.ar    1  LIG1       -0.3488
     31 H          -6.3760   -3.2447   -0.0241 H       1  LIG1        0.1661
     32 N          -2.2605   -5.0522   -0.1352 N.pl3   1  LIG1       -0.3548
     33 H          -1.9394   -5.6757    0.6017 H       1  LIG1        0.1424
     34 H          -1.9474   -5.4354   -1.0241 H       1  LIG1        0.1424
     35 N          -4.3909   -7.3488   -0.0043 N.pl3   1  LIG1       -0.3548
     36 H          -5.1850   -7.9064   -0.3237 H       1  LIG1        0.1424
     37 H          -3.5636   -7.5866   -0.5396 H       1  LIG1        0.1424
     38 C          -7.2178   -5.9678    0.1052 C.ar    1  LIG1        0.0875
     39 C          -7.7050   -7.1123   -0.4838 C.ar    1  LIG1        0.0726
     40 C          -9.0364   -7.3086   -0.0181 C.ar    1  LIG1        0.0637
     41 C          -9.3250   -6.2673    0.8356 C.ar    1  LIG1        0.0249
     42 N          -8.2272   -5.4616    0.8916 N.ar    1  LIG1       -0.3564
     43 H          -8.1099   -4.6741    1.5078 H       1  LIG1        0.1655
     44 H         -10.2199   -6.0458    1.3918 H       1  LIG1        0.0826
     45 N          -7.0201   -7.9738   -1.3761 N.pl3   1  LIG1       -0.3549
     46 H          -7.6649   -8.7108   -1.6546 H       1  LIG1        0.1424
     47 H          -6.7125   -7.4683   -2.2031 H       1  LIG1        0.1424
     48 N          -9.8331   -8.4134   -0.4482 N.pl3   1  LIG1       -0.3554
     49 H          -9.9939   -9.0750    0.3043 H       1  LIG1        0.1424
     50 H         -10.7304   -8.1128   -0.8124 H       1  LIG1        0.1424
@<TRIPOS>BOND
     1    13    11    1
     2    47    45    1
     3    12    11    1
     4    46    45    1
     5    11     3    1
     6    45    39    1
     7    25    23    1
     8    34    32    1
     9    10     8    1
    10    50    48    1
    11    22    20    1
    12    37    35    1
    13     3     2   ar
    14     3     4   ar
    15    39    40   ar
    16    39    38   ar
    17     8     2    1
    18     8     9    1
    19    48    40    1
    20    48    49    1
    21    21    20    1
    22    36    35    1
    23    23    16    1
    24    23    24    1
    25    32    27    1
    26    32    33    1
    27    16    15   ar
    28    16    17   ar
    29    27    28   ar
    30    27    26   ar
    31    15    20    1
    32    15    14   ar
    33    28    35    1
    34    28    29   ar
    35    17    26    1
    36    17    18   ar
    37    26    30   ar
    38     2     1   ar
    39    19    18    1
    40    31    30    1
    41    40    41   ar
    42    14    18   ar
    43    14     4    1
    44    29    30   ar
    45    29    38    1
    46     4     5   ar
    47    38    42   ar
    48     1     5   ar
    49     1     7    1
    50    41    42   ar
    51    41    44    1
    52     5     6    1
    53    42    43    1
