@<TRIPOS>MOLECULE
mol_data/opt/m06hf/geoms/mol2/13hh13hh-4hh13hh.out
 52 55 0 0 0
SMALL
GASTEIGER

@<TRIPOS>ATOM
      1 C           1.3505   -0.4476    0.3083 C.ar    1  LIG1        0.0249
      2 C           0.9584    0.8448    0.5866 C.ar    1  LIG1        0.0637
      3 C          -0.4542    0.8986    0.4092 C.ar    1  LIG1        0.0726
      4 C          -0.8625   -0.3626    0.0344 C.ar    1  LIG1        0.0875
      5 N           0.2351   -1.1641   -0.0209 N.ar    1  LIG1       -0.3564
      6 H           0.1542   -2.1436   -0.2692 H       1  LIG1        0.1655
      7 H           2.3279   -0.8986    0.3316 H       1  LIG1        0.0826
      8 N           1.7313    1.9580    1.0263 N.pl3   1  LIG1       -0.3554
      9 H           2.5691    1.6598    1.5126 H       1  LIG1        0.1424
     10 H           2.0065    2.5502    0.2483 H       1  LIG1        0.1424
     11 N          -1.3369    2.0040    0.6094 N.pl3   1  LIG1       -0.3549
     12 H          -1.0696    2.4939    1.4601 H       1  LIG1        0.1424
     13 H          -1.2630    2.6715   -0.1547 H       1  LIG1        0.1424
     14 C          -2.2004   -0.8610   -0.2334 C.ar    1  LIG1        0.0880
     15 C          -2.6135   -2.1196   -0.6292 C.ar    1  LIG1        0.0733
     16 C          -4.0316   -2.0787   -0.7296 C.ar    1  LIG1        0.0719
     17 C          -4.4327   -0.7987   -0.3872 C.ar    1  LIG1        0.0716
     18 N          -3.2946   -0.0772   -0.1007 N.ar    1  LIG1       -0.3500
     19 H          -3.2445    0.8798    0.2421 H       1  LIG1        0.1661
     20 N          -1.7257   -3.2181   -0.8678 N.pl3   1  LIG1       -0.3549
     21 H          -2.0044   -4.0296   -0.3224 H       1  LIG1        0.1424
     22 H          -1.7132   -3.4861   -1.8487 H       1  LIG1        0.1424
     23 N          -4.8560   -3.1729   -1.0795 N.pl3   1  LIG1       -0.3549
     24 H          -5.7378   -2.8540   -1.4694 H       1  LIG1        0.1424
     25 H          -4.3939   -3.7736   -1.7543 H       1  LIG1        0.1424
     26 C          -6.0853    1.0722   -0.6751 C.ar    1  LIG1        0.0346
     27 C          -7.3868    1.5466   -0.5331 C.ar    1  LIG1       -0.0295
     28 C          -5.7913   -0.2454   -0.2788 C.ar    1  LIG1        0.0226
     29 C          -8.4134    0.7469   -0.0233 C.ar    1  LIG1        0.0225
     30 H          -7.6227    2.5714   -0.8016 H       1  LIG1        0.0643
     31 C          -6.8232   -1.0470    0.2166 C.ar    1  LIG1       -0.0295
     32 C          -8.1264   -0.5797    0.3396 C.ar    1  LIG1        0.0346
     33 H          -6.5816   -2.0574    0.5319 H       1  LIG1        0.0643
     34 N          -5.0624    1.9130   -1.1501 N.pl3   1  LIG1       -0.3574
     35 H          -4.3748    1.4263   -1.7150 H       1  LIG1        0.1423
     36 H          -5.4116    2.7403   -1.6153 H       1  LIG1        0.1423
     37 N          -9.1617   -1.4121    0.8695 N.pl3   1  LIG1       -0.3574
     38 H          -9.9035   -1.5477    0.1854 H       1  LIG1        0.1423
     39 H          -8.7988   -2.3178    1.1456 H       1  LIG1        0.1423
     40 C          -9.7521    1.3364    0.1404 C.ar    1  LIG1        0.0711
     41 C         -10.3327    2.4200   -0.4935 C.ar    1  LIG1        0.0712
     42 C         -11.5991    2.6421    0.1116 C.ar    1  LIG1        0.0637
     43 C         -11.7535    1.6869    1.0970 C.ar    1  LIG1        0.0249
     44 N         -10.6483    0.9038    1.0918 N.ar    1  LIG1       -0.3575
     45 H         -10.4470    0.1042    1.6795 H       1  LIG1        0.1654
     46 H         -12.5721    1.5096    1.7738 H       1  LIG1        0.0826
     47 N          -9.8114    3.2243   -1.5301 N.pl3   1  LIG1       -0.3549
     48 H          -9.5046    2.6649   -2.3204 H       1  LIG1        0.1424
     49 H         -10.5485    3.8604   -1.8264 H       1  LIG1        0.1424
     50 N         -12.4699    3.6871   -0.3229 N.pl3   1  LIG1       -0.3554
     51 H         -13.4125    3.3528   -0.4883 H       1  LIG1        0.1424
     52 H         -12.5082    4.4493    0.3462 H       1  LIG1        0.1424
@<TRIPOS>BOND
     1    48    47    1
     2    22    20    1
     3    49    47    1
     4    25    23    1
     5    35    34    1
     6    36    34    1
     7    47    41    1
     8    24    23    1
     9    34    26    1
    10    23    16    1
    11    20    15    1
    12    20    21    1
    13    30    27    1
    14    16    15   ar
    15    16    17   ar
    16    26    27   ar
    17    26    28   ar
    18    15    14   ar
    19    27    29   ar
    20    41    42   ar
    21    41    40   ar
    22    51    50    1
    23    17    28    1
    24    17    18   ar
    25    50    42    1
    26    50    52    1
    27    28    31   ar
    28     6     5    1
    29    14    18   ar
    30    14     4    1
    31    13    11    1
    32    18    19    1
    33    29    40    1
    34    29    32   ar
    35     5     4   ar
    36     5     1   ar
    37     4     3   ar
    38    42    43   ar
    39    40    44   ar
    40    38    37    1
    41    31    32   ar
    42    31    33    1
    43    10     8    1
    44     1     7    1
    45     1     2   ar
    46    32    37    1
    47     3     2   ar
    48     3    11    1
    49     2     8    1
    50    11    12    1
    51    37    39    1
    52     8     9    1
    53    44    43   ar
    54    44    45    1
    55    43    46    1
