@<TRIPOS>MOLECULE
mol_data/opt/m06hf/geoms/mol2/13hh12el4de4hh-.out
 54 57 0 0 0
SMALL
GASTEIGER

@<TRIPOS>ATOM
      1 C           0.5677    0.2518   -2.0727 C.ar    1  LIG1        0.0249
      2 C           0.6421    1.2672   -1.1421 C.ar    1  LIG1        0.0638
      3 C          -0.4640    1.1179   -0.2536 C.ar    1  LIG1        0.0742
      4 C          -1.1823    0.0169   -0.6934 C.ar    1  LIG1        0.1062
      5 N          -0.5278   -0.4922   -1.8003 N.ar    1  LIG1       -0.3551
      6 H          -0.8477   -1.2974   -2.3129 H       1  LIG1        0.1655
      7 H           1.2126    0.0261   -2.9053 H       1  LIG1        0.0826
      8 N           1.5864    2.3229   -0.9869 N.pl3   1  LIG1       -0.3554
      9 H           2.4783    1.9909   -0.6357 H       1  LIG1        0.1424
     10 H           1.7384    2.8320   -1.8499 H       1  LIG1        0.1424
     11 N          -0.6316    1.9080    0.8705 N.pl3   1  LIG1       -0.3548
     12 H          -0.0561    2.7403    0.8063 H       1  LIG1        0.1424
     13 H          -1.5890    2.0860    1.1433 H       1  LIG1        0.1424
     14 C          -2.3622   -0.6449   -0.1908 C.ar    1  LIG1        0.1726
     15 C          -3.4754   -0.2193    0.4915 C.ar    1  LIG1        0.1141
     16 C          -4.2901   -1.4038    0.6800 C.ar    1  LIG1        0.1817
     17 C          -3.6355   -2.4271    0.0684 C.ar    1  LIG1        0.1797
     18 O          -2.4536   -1.9665   -0.4376 O.2     1  LIG1       -0.4482
     19 C          -3.7745    1.1282    0.8606 C.1     1  LIG1       -0.0621
     20 C          -4.0295    2.2678    1.1543 C.1     1  LIG1       -0.1137
     21 H          -4.2703    3.2758    1.4021 H       1  LIG1        0.1232
     22 O          -5.4316   -1.5412    1.3757 O.3     1  LIG1       -0.4901
     23 C          -6.4490   -0.5631    1.1315 C.3     1  LIG1        0.0790
     24 H          -7.3694   -0.9989    1.5095 H       1  LIG1        0.0660
     25 H          -6.2097    0.3584    1.6589 H       1  LIG1        0.0660
     26 H          -6.5419   -0.3823    0.0603 H       1  LIG1        0.0660
     27 C          -5.1816   -4.3920   -0.2121 C.ar    1  LIG1        0.0632
     28 C          -5.3929   -5.7694   -0.2492 C.ar    1  LIG1       -0.0347
     29 C          -3.8946   -3.8652   -0.0196 C.ar    1  LIG1        0.0395
     30 C          -4.3299   -6.6627   -0.1201 C.ar    1  LIG1        0.0006
     31 H          -6.3924   -6.1552   -0.4038 H       1  LIG1        0.0637
     32 C          -2.8285   -4.7566    0.0847 C.ar    1  LIG1       -0.0337
     33 C          -3.0335   -6.1367    0.0277 C.ar    1  LIG1        0.0332
     34 H          -1.8266   -4.3725    0.2191 H       1  LIG1        0.0637
     35 N          -7.2459   -2.8958   -0.6980 N.1     1  LIG1       -0.1908
     36 C          -6.3193   -3.5283   -0.4546 C.1     1  LIG1        0.0999
     37 C          -1.8801   -7.0032    0.1178 C.1     1  LIG1       -0.0690
     38 C          -0.9003   -7.6948    0.1897 C.1     1  LIG1       -0.1139
     39 H          -0.0369   -8.3159    0.2502 H       1  LIG1        0.1232
     40 C          -5.2631   -8.7122   -1.2273 C.ar    1  LIG1        0.0325
     41 C          -5.5192  -10.0850   -1.1826 C.ar    1  LIG1       -0.0387
     42 C          -4.5956   -8.1321   -0.1390 C.ar    1  LIG1        0.0057
     43 C          -5.1284  -10.8570   -0.0988 C.ar    1  LIG1       -0.0393
     44 H          -6.0359  -10.5527   -2.0122 H       1  LIG1        0.0637
     45 C          -4.1963   -8.9156    0.9430 C.ar    1  LIG1       -0.0315
     46 C          -4.4526  -10.2847    0.9826 C.ar    1  LIG1        0.0252
     47 H          -3.6858   -8.4394    1.7723 H       1  LIG1        0.0643
     48 H          -5.3517  -11.9173   -0.0886 H       1  LIG1        0.0636
     49 N          -5.7043   -7.9300   -2.3101 N.pl3   1  LIG1       -0.3575
     50 H          -5.0903   -7.1557   -2.5326 H       1  LIG1        0.1423
     51 H          -5.9175   -8.4730   -3.1361 H       1  LIG1        0.1423
     52 N          -4.1008  -11.0558    2.1041 N.pl3   1  LIG1       -0.3579
     53 H          -3.9322  -12.0302    1.8940 H       1  LIG1        0.1423
     54 H          -3.3421  -10.6653    2.6464 H       1  LIG1        0.1423
@<TRIPOS>BOND
     1    51    49    1
     2     7     1    1
     3    50    49    1
     4     6     5    1
     5    49    40    1
     6     1     5   ar
     7     1     2   ar
     8    44    41    1
     9    10     8    1
    10     5     4   ar
    11    40    41   ar
    12    40    42   ar
    13    41    43   ar
    14     2     8    1
    15     2     3   ar
    16     8     9    1
    17    35    36    3
    18     4     3   ar
    19     4    14    1
    20    36    27    1
    21    18    14   ar
    22    18    17   ar
    23    31    28    1
    24     3    11    1
    25    28    27   ar
    26    28    30   ar
    27    27    29   ar
    28    14    15   ar
    29    42    30    1
    30    42    45   ar
    31    30    33   ar
    32    43    48    1
    33    43    46   ar
    34    29    17    1
    35    29    32   ar
    36    33    32   ar
    37    33    37    1
    38    26    23    1
    39    17    16   ar
    40    32    34    1
    41    37    38    3
    42    38    39    1
    43    15    16   ar
    44    15    19    1
    45    16    22    1
    46    12    11    1
    47    19    20    3
    48    11    13    1
    49    45    46   ar
    50    45    47    1
    51    46    52    1
    52    23    22    1
    53    23    24    1
    54    23    25    1
    55    20    21    1
    56    53    52    1
    57    52    54    1
