@<TRIPOS>MOLECULE
mol_data/opt/m06hf/geoms/mol2/13hh.out
 14 14 0 0 0
SMALL
GASTEIGER

@<TRIPOS>ATOM
      1 C           1.0865   -0.3713   -0.2059 C.ar    1  LIG1        0.0244
      2 C           0.6364    0.9293   -0.1825 C.ar    1  LIG1        0.0631
      3 C          -0.7784    0.8879    0.0047 C.ar    1  LIG1        0.0631
      4 C          -1.1382   -0.4339    0.0874 C.ar    1  LIG1        0.0244
      5 N           0.0058   -1.1839   -0.0548 N.ar    1  LIG1       -0.3639
      6 H           0.0382   -2.1888   -0.0415 H       1  LIG1        0.1649
      7 H          -2.0992   -0.8923    0.2363 H       1  LIG1        0.0826
      8 H           2.0805   -0.7665   -0.3289 H       1  LIG1        0.0826
      9 N           1.3421    2.1618   -0.3261 N.pl3   1  LIG1       -0.3554
     10 H           1.8398    2.4140    0.5213 H       1  LIG1        0.1424
     11 H           2.0006    2.1353   -1.0962 H       1  LIG1        0.1424
     12 N          -1.5757    2.0447    0.1170 N.pl3   1  LIG1       -0.3554
     13 H          -1.0128    2.8457   -0.1582 H       1  LIG1        0.1424
     14 H          -2.4101    1.9974   -0.4557 H       1  LIG1        0.1424
@<TRIPOS>BOND
     1    11     9    1
     2    14    12    1
     3     8     1    1
     4     9     2    1
     5     9    10    1
     6     1     2   ar
     7     1     5   ar
     8     2     3   ar
     9    13    12    1
    10     5     6    1
    11     5     4   ar
    12     3     4   ar
    13     3    12    1
    14     4     7    1
