@<TRIPOS>MOLECULE
mol_data/opt/m06hf/geoms/mol2/13hh13hh-13hh.out
 38 40 0 0 0
SMALL
GASTEIGER

@<TRIPOS>ATOM
      1 C           1.2462   -0.3317   -0.0529 C.ar    1  LIG1        0.0249
      2 C           0.8528    0.9888   -0.0833 C.ar    1  LIG1        0.0637
      3 C          -0.5715    0.9993   -0.1399 C.ar    1  LIG1        0.0726
      4 C          -0.9856   -0.3143   -0.1372 C.ar    1  LIG1        0.0875
      5 N           0.1211   -1.1055   -0.0841 N.ar    1  LIG1       -0.3564
      6 H           0.0367   -2.1159   -0.0728 H       1  LIG1        0.1655
      7 H           2.2306   -0.7647   -0.0038 H       1  LIG1        0.0826
      8 N           1.6386    2.1761   -0.0172 N.pl3   1  LIG1       -0.3554
      9 H           2.5243    2.0070    0.4462 H       1  LIG1        0.1424
     10 H           1.8304    2.5451   -0.9439 H       1  LIG1        0.1424
     11 N          -1.4500    2.1245   -0.1620 N.pl3   1  LIG1       -0.3549
     12 H          -1.1109    2.8233    0.4952 H       1  LIG1        0.1424
     13 H          -1.4554    2.5583   -1.0817 H       1  LIG1        0.1424
     14 C          -2.3275   -0.8736   -0.1528 C.ar    1  LIG1        0.0880
     15 C          -2.7307   -2.1942   -0.1688 C.ar    1  LIG1        0.0733
     16 C          -4.1565   -2.1919   -0.1682 C.ar    1  LIG1        0.0733
     17 C          -4.5554   -0.8700   -0.1516 C.ar    1  LIG1        0.0880
     18 N          -3.4402   -0.0908   -0.1443 N.ar    1  LIG1       -0.3488
     19 H          -3.4384    0.9281   -0.0791 H       1  LIG1        0.1661
     20 N          -1.8246   -3.3063   -0.1758 N.pl3   1  LIG1       -0.3548
     21 H          -1.9798   -3.9063    0.6301 H       1  LIG1        0.1424
     22 H          -1.9453   -3.8715   -1.0121 H       1  LIG1        0.1424
     23 N          -5.0662   -3.3011   -0.1742 N.pl3   1  LIG1       -0.3548
     24 H          -4.9463   -3.8684   -1.0091 H       1  LIG1        0.1424
     25 H          -4.9142   -3.8998    0.6332 H       1  LIG1        0.1424
     26 C          -5.8955   -0.3063   -0.1350 C.ar    1  LIG1        0.0875
     27 C          -6.3054    1.0086   -0.1373 C.ar    1  LIG1        0.0726
     28 C          -7.7297    1.0026   -0.0798 C.ar    1  LIG1        0.0637
     29 C          -8.1274   -0.3166   -0.0492 C.ar    1  LIG1        0.0249
     30 N          -7.0048   -1.0940   -0.0811 N.ar    1  LIG1       -0.3564
     31 H          -6.9237   -2.1046   -0.0703 H       1  LIG1        0.1655
     32 H          -9.1130   -0.7464    0.0004 H       1  LIG1        0.0826
     33 N          -5.4236    2.1311   -0.1600 N.pl3   1  LIG1       -0.3549
     34 H          -5.4145    2.5622   -1.0811 H       1  LIG1        0.1424
     35 H          -5.7633    2.8327    0.4939 H       1  LIG1        0.1424
     36 N          -8.5113    2.1927   -0.0133 N.pl3   1  LIG1       -0.3554
     37 H          -8.7065    2.5599   -0.9400 H       1  LIG1        0.1424
     38 H          -9.3952    2.0282    0.4551 H       1  LIG1        0.1424
@<TRIPOS>BOND
     1    13    11    1
     2    34    33    1
     3    22    20    1
     4    24    23    1
     5    10     8    1
     6    37    36    1
     7    20    15    1
     8    20    21    1
     9    23    16    1
    10    23    25    1
    11    15    16   ar
    12    15    14   ar
    13    16    17   ar
    14    11     3    1
    15    11    12    1
    16    33    27    1
    17    33    35    1
    18    14    18   ar
    19    14     4    1
    20    17    18   ar
    21    17    26    1
    22    18    19    1
    23     3     4   ar
    24     3     2   ar
    25    27    26   ar
    26    27    28   ar
    27     4     5   ar
    28    26    30   ar
    29     5     6    1
    30     5     1   ar
    31     2     1   ar
    32     2     8    1
    33    30    31    1
    34    30    29   ar
    35    28    29   ar
    36    28    36    1
    37     1     7    1
    38    29    32    1
    39     8     9    1
    40    36    38    1
