@<TRIPOS>MOLECULE
mol_data/opt/m06hf/geoms/mol2/13hh13hh-.out
 26 27 0 0 0
SMALL
GASTEIGER

@<TRIPOS>ATOM
      1 C           1.1696   -0.2362   -0.0258 C.ar    1  LIG1        0.0249
      2 C           0.7421    1.0737   -0.0861 C.ar    1  LIG1        0.0637
      3 C          -0.6803    1.0433   -0.1684 C.ar    1  LIG1        0.0726
      4 C          -1.0581   -0.2798   -0.1508 C.ar    1  LIG1        0.0875
      5 N           0.0670   -1.0402   -0.0662 N.ar    1  LIG1       -0.3564
      6 H           0.0059   -2.0520   -0.0097 H       1  LIG1        0.1655
      7 H           2.1642   -0.6414    0.0481 H       1  LIG1        0.0826
      8 N           1.4913    2.2867   -0.0313 N.pl3   1  LIG1       -0.3554
      9 H           2.3235    2.1806    0.5384 H       1  LIG1        0.1424
     10 H           1.7777    2.5890   -0.9578 H       1  LIG1        0.1424
     11 N          -1.5902    2.1470   -0.2197 N.pl3   1  LIG1       -0.3549
     12 H          -1.2441    2.8773    0.3995 H       1  LIG1        0.1424
     13 H          -1.6065    2.5457   -1.1558 H       1  LIG1        0.1424
     14 C          -2.3839   -0.8724   -0.1504 C.ar    1  LIG1        0.0875
     15 C          -2.7617   -2.1955   -0.1681 C.ar    1  LIG1        0.0726
     16 C          -4.1841   -2.2259   -0.0851 C.ar    1  LIG1        0.0637
     17 C          -4.6115   -0.9160   -0.0243 C.ar    1  LIG1        0.0249
     18 N          -3.5089   -0.1120   -0.0651 N.ar    1  LIG1       -0.3564
     19 H          -3.4478    0.8997   -0.0084 H       1  LIG1        0.1655
     20 H          -5.6060   -0.5109    0.0503 H       1  LIG1        0.0826
     21 N          -1.8518   -3.2992   -0.2200 N.pl3   1  LIG1       -0.3549
     22 H          -2.1975   -4.0296    0.3992 H       1  LIG1        0.1424
     23 H          -1.8360   -3.6978   -1.1563 H       1  LIG1        0.1424
     24 N          -4.9331   -3.4390   -0.0300 N.pl3   1  LIG1       -0.3554
     25 H          -5.7651   -3.3330    0.5402 H       1  LIG1        0.1424
     26 H          -5.2201   -3.7411   -0.9564 H       1  LIG1        0.1424
@<TRIPOS>BOND
     1    23    21    1
     2    13    11    1
     3    10     8    1
     4    26    24    1
     5    21    15    1
     6    21    22    1
     7    11     3    1
     8    11    12    1
     9     3     4   ar
    10     3     2   ar
    11    15    14   ar
    12    15    16   ar
    13     4    14    1
    14     4     5   ar
    15    14    18   ar
    16     2     8    1
    17     2     1   ar
    18    16    24    1
    19    16    17   ar
    20     5     1   ar
    21     5     6    1
    22    18    17   ar
    23    18    19    1
    24     8     9    1
    25    24    25    1
    26     1     7    1
    27    17    20    1
