@<TRIPOS>MOLECULE
mol_data/opt/m06hf/geoms/mol2/13hh13hh.out
 26 27 0 0 0
SMALL
GASTEIGER

@<TRIPOS>ATOM
      1 C           1.1809   -0.2313   -0.6978 C.ar    1  LIG1        0.0249
      2 C           0.8080    0.9905   -0.1905 C.ar    1  LIG1        0.0637
      3 C          -0.5850    0.9216    0.1194 C.ar    1  LIG1        0.0726
      4 C          -1.0114   -0.3446   -0.2173 C.ar    1  LIG1        0.0875
      5 N           0.0777   -1.0372   -0.7120 N.ar    1  LIG1       -0.3564
      6 H           0.0096   -1.9169   -1.1945 H       1  LIG1        0.1655
      7 H           2.1381   -0.5732   -1.0530 H       1  LIG1        0.0826
      8 N           1.5678    2.1733    0.0201 N.pl3   1  LIG1       -0.3554
      9 H           1.8003    2.2912    1.0024 H       1  LIG1        0.1424
     10 H           2.4238    2.1770   -0.5219 H       1  LIG1        0.1424
     11 N          -1.3091    1.9534    0.7259 N.pl3   1  LIG1       -0.3549
     12 H          -0.8922    2.8493    0.4944 H       1  LIG1        0.1424
     13 H          -2.2985    1.9262    0.4814 H       1  LIG1        0.1424
     14 C          -2.3457   -0.9146   -0.1002 C.ar    1  LIG1        0.0875
     15 C          -3.5635   -0.3233   -0.3437 C.ar    1  LIG1        0.0726
     16 C          -4.5777   -1.2738   -0.0335 C.ar    1  LIG1        0.0637
     17 C          -3.9435   -2.4230    0.3838 C.ar    1  LIG1        0.0249
     18 N          -2.5997   -2.1998    0.3264 N.ar    1  LIG1       -0.3564
     19 H          -1.8893   -2.8191    0.6790 H       1  LIG1        0.1655
     20 H          -4.3493   -3.3672    0.7051 H       1  LIG1        0.0826
     21 N          -3.7992    0.9966   -0.7917 N.pl3   1  LIG1       -0.3549
     22 H          -3.2802    1.1939   -1.6433 H       1  LIG1        0.1424
     23 H          -4.7967    1.0992   -0.9640 H       1  LIG1        0.1424
     24 N          -5.9656   -0.9784   -0.1936 N.pl3   1  LIG1       -0.3554
     25 H          -6.4436   -1.6858   -0.7405 H       1  LIG1        0.1424
     26 H          -6.4362   -0.8849    0.7005 H       1  LIG1        0.1424
@<TRIPOS>BOND
     1    22    21    1
     2     6     5    1
     3     7     1    1
     4    23    21    1
     5    21    15    1
     6    25    24    1
     7     5     1   ar
     8     5     4   ar
     9     1     2   ar
    10    10     8    1
    11    15    14   ar
    12    15    16   ar
    13     4    14    1
    14     4     3   ar
    15    24    16    1
    16    24    26    1
    17     2     8    1
    18     2     3   ar
    19    14    18   ar
    20    16    17   ar
    21     8     9    1
    22     3    11    1
    23    18    17   ar
    24    18    19    1
    25    17    20    1
    26    13    11    1
    27    12    11    1
