@<TRIPOS>MOLECULE
mol_data/opt/m06hf/geoms/mol2/13hh13hh-13hh-13hh-.out
 50 53 0 0 0
SMALL
GASTEIGER

@<TRIPOS>ATOM
      1 C           1.3264   -0.2305   -0.3412 C.ar    1  LIG1        0.0249
      2 C           0.8763    0.9788   -0.8283 C.ar    1  LIG1        0.0637
      3 C          -0.5470    0.9167   -0.8432 C.ar    1  LIG1        0.0726
      4 C          -0.9037   -0.3226   -0.3602 C.ar    1  LIG1        0.0875
      5 N           0.2366   -1.0033   -0.0631 N.ar    1  LIG1       -0.3564
      6 H           0.1954   -1.9422    0.3180 H       1  LIG1        0.1655
      7 H           2.3296   -0.5823   -0.1707 H       1  LIG1        0.0826
      8 N           1.6077    2.1406   -1.2161 N.pl3   1  LIG1       -0.3554
      9 H           2.4584    2.2393   -0.6732 H       1  LIG1        0.1424
     10 H           1.8611    2.1104   -2.1992 H       1  LIG1        0.1424
     11 N          -1.4738    1.9308   -1.2467 N.pl3   1  LIG1       -0.3549
     12 H          -1.1358    2.8287   -0.9063 H       1  LIG1        0.1424
     13 H          -1.4954    1.9992   -2.2623 H       1  LIG1        0.1424
     14 C          -2.2209   -0.8839   -0.1213 C.ar    1  LIG1        0.0880
     15 C          -2.5850   -2.1448    0.3047 C.ar    1  LIG1        0.0733
     16 C          -4.0080   -2.1716    0.3870 C.ar    1  LIG1        0.0733
     17 C          -4.4549   -0.9187    0.0040 C.ar    1  LIG1        0.0880
     18 N          -3.3465   -0.1535   -0.2993 N.ar    1  LIG1       -0.3488
     19 H          -3.3045    0.7858   -0.6792 H       1  LIG1        0.1661
     20 N          -1.6515   -3.1808    0.6312 N.pl3   1  LIG1       -0.3548
     21 H          -1.8366   -3.5413    1.5642 H       1  LIG1        0.1424
     22 H          -1.7158   -3.9577   -0.0223 H       1  LIG1        0.1424
     23 N          -4.7759   -3.2446    0.8605 N.pl3   1  LIG1       -0.3548
     24 H          -5.7279   -3.1954    0.4910 H       1  LIG1        0.1424
     25 H          -4.3505   -4.1345    0.6267 H       1  LIG1        0.1424
     26 C          -5.8028   -0.3658   -0.0266 C.ar    1  LIG1        0.0880
     27 C          -7.0207   -0.9541   -0.3098 C.ar    1  LIG1        0.0733
     28 C          -8.0273    0.0512   -0.2039 C.ar    1  LIG1        0.0733
     29 C          -7.3941    1.2257    0.1445 C.ar    1  LIG1        0.0880
     30 N          -6.0446    0.9517    0.2409 N.ar    1  LIG1       -0.3488
     31 H          -5.3353    1.6234    0.4839 H       1  LIG1        0.1661
     32 N          -7.2353   -2.3317   -0.6130 N.pl3   1  LIG1       -0.3548
     33 H          -8.1388   -2.6251   -0.2506 H       1  LIG1        0.1424
     34 H          -7.2069   -2.5142   -1.6126 H       1  LIG1        0.1424
     35 N          -9.4073   -0.1779   -0.3578 N.pl3   1  LIG1       -0.3548
     36 H          -9.9208    0.6978   -0.4593 H       1  LIG1        0.1424
     37 H          -9.5878   -0.7556   -1.1730 H       1  LIG1        0.1424
     38 C          -7.9720    2.5331    0.4235 C.ar    1  LIG1        0.0875
     39 C          -9.0083    3.1844   -0.2057 C.ar    1  LIG1        0.0726
     40 C          -9.2258    4.4163    0.4757 C.ar    1  LIG1        0.0637
     41 C          -8.3094    4.4796    1.5015 C.ar    1  LIG1        0.0249
     42 N          -7.5530    3.3472    1.4537 N.ar    1  LIG1       -0.3564
     43 H          -6.8835    3.0664    2.1516 H       1  LIG1        0.1655
     44 H          -8.1440    5.2408    2.2448 H       1  LIG1        0.0826
     45 N          -9.7698    2.7233   -1.3038 N.pl3   1  LIG1       -0.3549
     46 H         -10.4008    3.4693   -1.5879 H       1  LIG1        0.1424
     47 H          -9.1722    2.4607   -2.0828 H       1  LIG1        0.1424
     48 N         -10.2276    5.3442    0.0587 N.pl3   1  LIG1       -0.3554
     49 H         -10.9831    5.4121    0.7326 H       1  LIG1        0.1424
     50 H          -9.8445    6.2708   -0.0943 H       1  LIG1        0.1424
@<TRIPOS>BOND
     1    13    11    1
     2    10     8    1
     3    47    45    1
     4    34    32    1
     5    46    45    1
     6    45    39    1
     7    11    12    1
     8    11     3    1
     9     8     2    1
    10     8     9    1
    11    37    35    1
    12     3     2   ar
    13     3     4   ar
    14     2     1   ar
    15    19    18    1
    16    32    27    1
    17    32    33    1
    18    36    35    1
    19     4    14    1
    20     4     5   ar
    21    35    28    1
    22     1     7    1
    23     1     5   ar
    24    27    28   ar
    25    27    26   ar
    26    18    14   ar
    27    18    17   ar
    28    39    38   ar
    29    39    40   ar
    30    28    29   ar
    31    14    15   ar
    32    50    48    1
    33     5     6    1
    34    26    17    1
    35    26    30   ar
    36    22    20    1
    37    17    16   ar
    38    48    40    1
    39    48    49    1
    40    29    30   ar
    41    29    38    1
    42    30    31    1
    43    15    16   ar
    44    15    20    1
    45    16    23    1
    46    38    42   ar
    47    40    41   ar
    48    24    23    1
    49    25    23    1
    50    20    21    1
    51    42    41   ar
    52    42    43    1
    53    41    44    1
