@<TRIPOS>MOLECULE
mol_data/opt/m06hf/geoms/mol2/13hh13hh-13hh-13hh.out
 50 53 0 0 0
SMALL
GASTEIGER

@<TRIPOS>ATOM
      1 C           1.3456   -0.3904   -0.0773 C.ar    1  LIG1        0.0249
      2 C           0.9840    0.7828   -0.7065 C.ar    1  LIG1        0.0637
      3 C          -0.4372    0.7787   -0.8077 C.ar    1  LIG1        0.0726
      4 C          -0.8815   -0.3908   -0.2322 C.ar    1  LIG1        0.0875
      5 N           0.2054   -1.0857    0.2020 N.ar    1  LIG1       -0.3564
      6 H           0.0973   -1.9830    0.6618 H       1  LIG1        0.1655
      7 H           2.3187   -0.7646    0.1925 H       1  LIG1        0.0826
      8 N           1.7922    1.8681   -1.1612 N.pl3   1  LIG1       -0.3554
      9 H           2.5746    2.0333   -0.5375 H       1  LIG1        0.1424
     10 H           2.1595    1.6947   -2.0920 H       1  LIG1        0.1424
     11 N          -1.2882    1.7850   -1.3657 N.pl3   1  LIG1       -0.3549
     12 H          -0.9287    2.6975   -1.0927 H       1  LIG1        0.1424
     13 H          -1.2451    1.7517   -2.3824 H       1  LIG1        0.1424
     14 C          -2.2358   -0.8735   -0.0303 C.ar    1  LIG1        0.0880
     15 C          -2.6820   -2.0729    0.4879 C.ar    1  LIG1        0.0733
     16 C          -4.1064   -2.0289    0.4906 C.ar    1  LIG1        0.0733
     17 C          -4.4707   -0.7998   -0.0329 C.ar    1  LIG1        0.0880
     18 N          -3.3147   -0.1173   -0.3427 N.ar    1  LIG1       -0.3488
     19 H          -3.2161    0.8000   -0.7645 H       1  LIG1        0.1661
     20 N          -1.8187   -3.1097    0.9697 N.pl3   1  LIG1       -0.3548
     21 H          -2.0842   -3.3729    1.9159 H       1  LIG1        0.1424
     22 H          -1.8765   -3.9423    0.3880 H       1  LIG1        0.1424
     23 N          -4.9482   -3.0186    1.0304 N.pl3   1  LIG1       -0.3548
     24 H          -5.8992   -2.9388    0.6712 H       1  LIG1        0.1424
     25 H          -4.5906   -3.9485    0.8396 H       1  LIG1        0.1424
     26 C          -5.7985   -0.2298   -0.2138 C.ar    1  LIG1        0.0880
     27 C          -6.9634   -0.8449   -0.6281 C.ar    1  LIG1        0.0733
     28 C          -7.9912    0.1410   -0.6252 C.ar    1  LIG1        0.0733
     29 C          -7.4074    1.3254   -0.2212 C.ar    1  LIG1        0.0880
     30 N          -6.0926    1.0911    0.0158 N.ar    1  LIG1       -0.3488
     31 H          -5.4905    1.8097    0.4072 H       1  LIG1        0.1661
     32 N          -7.0893   -2.2182   -0.9706 N.pl3   1  LIG1       -0.3548
     33 H          -8.0172   -2.4187   -1.3274 H       1  LIG1        0.1424
     34 H          -6.3992   -2.4809   -1.6701 H       1  LIG1        0.1424
     35 N          -9.3777    0.0080   -0.9601 N.pl3   1  LIG1       -0.3548
     36 H          -9.5070   -0.2918   -1.9228 H       1  LIG1        0.1424
     37 H          -9.8458   -0.6568   -0.3500 H       1  LIG1        0.1424
     38 C          -7.9940    2.6393   -0.0253 C.ar    1  LIG1        0.0875
     39 C          -7.4031    3.8127    0.3888 C.ar    1  LIG1        0.0726
     40 C          -8.4305    4.7977    0.4577 C.ar    1  LIG1        0.0637
     41 C          -9.6042    4.1822    0.0778 C.ar    1  LIG1        0.0249
     42 N          -9.3212    2.8769   -0.2078 N.ar    1  LIG1       -0.3564
     43 H          -9.9457    2.1393   -0.5112 H       1  LIG1        0.1655
     44 H         -10.6033    4.5758   -0.0008 H       1  LIG1        0.0826
     45 N          -6.0156    3.9497    0.7093 N.pl3   1  LIG1       -0.3549
     46 H          -5.5369    4.4871   -0.0100 H       1  LIG1        0.1424
     47 H          -5.9286    4.4776    1.5750 H       1  LIG1        0.1424
     48 N          -8.2013    6.1337    0.8996 N.pl3   1  LIG1       -0.3554
     49 H          -7.9410    6.7414    0.1284 H       1  LIG1        0.1424
     50 H          -9.0239    6.5217    1.3470 H       1  LIG1        0.1424
@<TRIPOS>BOND
     1    13    11    1
     2    10     8    1
     3    36    35    1
     4    34    32    1
     5    11    12    1
     6    11     3    1
     7    33    32    1
     8     8     2    1
     9     8     9    1
    10    32    27    1
    11    35    28    1
    12    35    37    1
    13     3     2   ar
    14     3     4   ar
    15    19    18    1
    16     2     1   ar
    17    27    28   ar
    18    27    26   ar
    19    28    29   ar
    20    43    42    1
    21    18    17   ar
    22    18    14   ar
    23     4    14    1
    24     4     5   ar
    25    29    38    1
    26    29    30   ar
    27    26    17    1
    28    26    30   ar
    29    42    38   ar
    30    42    41   ar
    31     1     7    1
    32     1     5   ar
    33    17    16   ar
    34    14    15   ar
    35    38    39   ar
    36    46    45    1
    37    44    41    1
    38    30    31    1
    39    41    40   ar
    40    49    48    1
    41     5     6    1
    42    22    20    1
    43    39    40   ar
    44    39    45    1
    45    40    48    1
    46    15    16   ar
    47    15    20    1
    48    16    23    1
    49    24    23    1
    50    45    47    1
    51    25    23    1
    52    48    50    1
    53    20    21    1
