@<TRIPOS>MOLECULE
mol_data/opt/m06hf/geoms/mol2/13hh13hh13hh.out
 38 40 0 0 0
SMALL
GASTEIGER

@<TRIPOS>ATOM
      1 C           1.0988   -0.0526   -1.2141 C.ar    1  LIG1        0.0249
      2 C           0.8850    1.0364   -0.4037 C.ar    1  LIG1        0.0637
      3 C          -0.4526    0.9502    0.0933 C.ar    1  LIG1        0.0726
      4 C          -1.0062   -0.1943   -0.4360 C.ar    1  LIG1        0.0875
      5 N          -0.0445   -0.7997   -1.2271 N.ar    1  LIG1       -0.3564
      6 H          -0.2510   -1.5212   -1.8979 H       1  LIG1        0.1655
      7 H           1.9680   -0.3369   -1.7823 H       1  LIG1        0.0826
      8 N           1.7448    2.1163   -0.0618 N.pl3   1  LIG1       -0.3554
      9 H           2.1687    1.9780    0.8510 H       1  LIG1        0.1424
     10 H           2.4785    2.2499   -0.7478 H       1  LIG1        0.1424
     11 N          -1.0163    1.8530    0.9969 N.pl3   1  LIG1       -0.3549
     12 H          -0.5483    2.7505    0.9205 H       1  LIG1        0.1424
     13 H          -2.0228    1.9313    0.8481 H       1  LIG1        0.1424
     14 C          -2.3268   -0.7779   -0.2424 C.ar    1  LIG1        0.0880
     15 C          -3.5618   -0.1758   -0.1015 C.ar    1  LIG1        0.0733
     16 C          -4.5368   -1.2090    0.0383 C.ar    1  LIG1        0.0733
     17 C          -3.8651   -2.4122   -0.0150 C.ar    1  LIG1        0.0880
     18 N          -2.5253   -2.1286   -0.1976 N.ar    1  LIG1       -0.3488
     19 H          -1.7880   -2.8128   -0.2355 H       1  LIG1        0.1661
     20 N          -3.8004    1.2291   -0.0690 N.pl3   1  LIG1       -0.3548
     21 H          -3.9923    1.6122   -0.9902 H       1  LIG1        0.1424
     22 H          -4.5795    1.4391    0.5484 H       1  LIG1        0.1424
     23 N          -5.9090   -1.0014    0.2610 N.pl3   1  LIG1       -0.3548
     24 H          -6.2531   -0.2222   -0.2902 H       1  LIG1        0.1424
     25 H          -6.4538   -1.8356    0.0401 H       1  LIG1        0.1424
     26 C          -4.3929   -3.7609    0.1337 C.ar    1  LIG1        0.0875
     27 C          -5.5594   -4.3002   -0.3571 C.ar    1  LIG1        0.0726
     28 C          -5.6542   -5.6396    0.1179 C.ar    1  LIG1        0.0637
     29 C          -4.5337   -5.8789    0.8817 C.ar    1  LIG1        0.0249
     30 N          -3.7754   -4.7465    0.8734 N.ar    1  LIG1       -0.3564
     31 H          -2.9646   -4.5866    1.4484 H       1  LIG1        0.1655
     32 H          -4.2273   -6.7625    1.4151 H       1  LIG1        0.0826
     33 N          -6.5319   -3.6545   -1.1554 N.pl3   1  LIG1       -0.3549
     34 H          -6.1136   -3.2513   -1.9897 H       1  LIG1        0.1424
     35 H          -7.2306   -4.3448   -1.4223 H       1  LIG1        0.1424
     36 N          -6.7503   -6.4876   -0.2259 N.pl3   1  LIG1       -0.3554
     37 H          -6.4381   -7.3828   -0.5850 H       1  LIG1        0.1424
     38 H          -7.3612   -6.6511    0.5678 H       1  LIG1        0.1424
@<TRIPOS>BOND
     1    34    33    1
     2     6     5    1
     3     7     1    1
     4    35    33    1
     5     5     1   ar
     6     5     4   ar
     7     1     2   ar
     8    33    27    1
     9    21    20    1
    10    10     8    1
    11    37    36    1
    12     4    14    1
    13     4     3   ar
    14     2     8    1
    15     2     3   ar
    16    27    28   ar
    17    27    26   ar
    18    24    23    1
    19    14    18   ar
    20    14    15   ar
    21    19    18    1
    22    36    28    1
    23    36    38    1
    24    18    17   ar
    25    15    20    1
    26    15    16   ar
    27    20    22    1
    28     8     9    1
    29    17    16   ar
    30    17    26    1
    31    16    23    1
    32    25    23    1
    33     3    11    1
    34    28    29   ar
    35    26    30   ar
    36    13    11    1
    37    30    29   ar
    38    30    31    1
    39    29    32    1
    40    12    11    1
