@<TRIPOS>MOLECULE
mol_data/opt/m06hf/geoms/mol2/13hh13hh13hh-13hh.out
 50 53 0 0 0
SMALL
GASTEIGER

@<TRIPOS>ATOM
      1 C           1.1844    0.0964   -1.0377 C.ar    1  LIG1        0.0249
      2 C           0.8819    1.0972   -0.1439 C.ar    1  LIG1        0.0637
      3 C          -0.4773    0.9202    0.2573 C.ar    1  LIG1        0.0726
      4 C          -0.9574   -0.1828   -0.4170 C.ar    1  LIG1        0.0875
      5 N           0.0685   -0.6709   -1.2021 N.ar    1  LIG1       -0.3564
      6 H          -0.0520   -1.3914   -1.8934 H       1  LIG1        0.1655
      7 H           2.0999   -0.1109   -1.5656 H       1  LIG1        0.0826
      8 N           1.6809    2.1645    0.3532 N.pl3   1  LIG1       -0.3554
      9 H           2.0467    1.9508    1.2768 H       1  LIG1        0.1424
     10 H           2.4564    2.3774   -0.2634 H       1  LIG1        0.1424
     11 N          -1.1208    1.7039    1.2225 N.pl3   1  LIG1       -0.3549
     12 H          -0.6989    2.6265    1.2524 H       1  LIG1        0.1424
     13 H          -2.1271    1.7536    1.0686 H       1  LIG1        0.1424
     14 C          -2.2821   -0.7850   -0.3724 C.ar    1  LIG1        0.0880
     15 C          -3.5110   -0.1576   -0.3323 C.ar    1  LIG1        0.0733
     16 C          -4.5084   -1.1731   -0.2708 C.ar    1  LIG1        0.0733
     17 C          -3.8452   -2.3852   -0.2834 C.ar    1  LIG1        0.0880
     18 N          -2.5120   -2.1386   -0.3513 N.ar    1  LIG1       -0.3488
     19 H          -1.8319   -2.8896   -0.3040 H       1  LIG1        0.1661
     20 N          -3.7123    1.2463   -0.3281 N.pl3   1  LIG1       -0.3548
     21 H          -3.2094    1.6913   -1.0916 H       1  LIG1        0.1424
     22 H          -4.6977    1.4752   -0.3944 H       1  LIG1        0.1424
     23 N          -5.9297   -1.0455   -0.2120 N.pl3   1  LIG1       -0.3548
     24 H          -6.2393   -0.6116    0.6526 H       1  LIG1        0.1424
     25 H          -6.3014   -0.5212   -0.9982 H       1  LIG1        0.1424
     26 C          -4.3702   -3.7386   -0.2234 C.ar    1  LIG1        0.0880
     27 C          -3.6916   -4.9416   -0.1769 C.ar    1  LIG1        0.0733
     28 C          -4.6766   -5.9708   -0.1216 C.ar    1  LIG1        0.0733
     29 C          -5.9089   -5.3472   -0.1343 C.ar    1  LIG1        0.0880
     30 N          -5.7042   -4.0046   -0.1969 N.ar    1  LIG1       -0.3488
     31 H          -6.4425   -3.3003   -0.1867 H       1  LIG1        0.1661
     32 N          -2.2622   -5.0546   -0.1692 N.pl3   1  LIG1       -0.3548
     33 H          -1.9292   -5.3992    0.7277 H       1  LIG1        0.1424
     34 H          -1.9434   -5.6998   -0.8870 H       1  LIG1        0.1424
     35 N          -4.5014   -7.3927   -0.0557 N.pl3   1  LIG1       -0.3548
     36 H          -4.0854   -7.7502   -0.9119 H       1  LIG1        0.1424
     37 H          -3.8902   -7.6468    0.7159 H       1  LIG1        0.1424
     38 C          -7.2415   -5.9231   -0.0701 C.ar    1  LIG1        0.0875
     39 C          -8.4741   -5.3094   -0.1000 C.ar    1  LIG1        0.0726
     40 C          -9.4546   -6.3324    0.0525 C.ar    1  LIG1        0.0637
     41 C          -8.7767   -7.5281    0.1636 C.ar    1  LIG1        0.0249
     42 N          -7.4404   -7.2613    0.0872 N.ar    1  LIG1       -0.3564
     43 H          -6.6547   -7.8993    0.1453 H       1  LIG1        0.1655
     44 H          -9.1485   -8.5295    0.2968 H       1  LIG1        0.0826
     45 N          -8.6812   -3.9025   -0.2285 N.pl3   1  LIG1       -0.3549
     46 H          -8.9451   -3.6673   -1.1826 H       1  LIG1        0.1424
     47 H          -9.4598   -3.6326    0.3683 H       1  LIG1        0.1424
     48 N         -10.8534   -6.0627    0.1198 N.pl3   1  LIG1       -0.3554
     49 H         -11.2841   -6.0965   -0.7992 H       1  LIG1        0.1424
     50 H         -11.3306   -6.7265    0.7193 H       1  LIG1        0.1424
@<TRIPOS>BOND
     1     6     5    1
     2     7     1    1
     3     5     1   ar
     4     5     4   ar
     5    46    45    1
     6    21    20    1
     7     1     2   ar
     8    25    23    1
     9    36    35    1
    10    34    32    1
    11    49    48    1
    12     4    14    1
    13     4     3   ar
    14    22    20    1
    15    14    18   ar
    16    14    15   ar
    17    18    19    1
    18    18    17   ar
    19    15    20    1
    20    15    16   ar
    21    17    16   ar
    22    17    26    1
    23    16    23    1
    24    10     8    1
    25    45    39    1
    26    45    47    1
    27    26    30   ar
    28    26    27   ar
    29    23    24    1
    30    30    31    1
    31    30    29   ar
    32    27    32    1
    33    27    28   ar
    34    32    33    1
    35     2     3   ar
    36     2     8    1
    37    29    28   ar
    38    29    38    1
    39    28    35    1
    40    39    38   ar
    41    39    40   ar
    42    38    42   ar
    43    35    37    1
    44    40    48    1
    45    40    41   ar
    46    42    43    1
    47    42    41   ar
    48    48    50    1
    49    41    44    1
    50     3    11    1
    51     8     9    1
    52    13    11    1
    53    11    12    1
