@<TRIPOS>MOLECULE
mol_data/opt/m06hf/geoms/mol2/13hh13hh13hh13hh.out
 50 53 0 0 0
SMALL
GASTEIGER

@<TRIPOS>ATOM
      1 C           0.8441    0.1624   -1.8719 C.ar    1  LIG1        0.0249
      2 C           0.8436    1.1007   -0.8694 C.ar    1  LIG1        0.0637
      3 C          -0.3773    0.9536   -0.1388 C.ar    1  LIG1        0.0726
      4 C          -1.0767   -0.0761   -0.7269 C.ar    1  LIG1        0.0875
      5 N          -0.3146   -0.5581   -1.7784 N.ar    1  LIG1       -0.3564
      6 H          -0.6946   -1.1199   -2.5222 H       1  LIG1        0.1655
      7 H           1.5715   -0.0318   -2.6420 H       1  LIG1        0.0826
      8 N           1.8051    2.0909   -0.5311 N.pl3   1  LIG1       -0.3554
      9 H           2.3472    1.8133    0.2823 H       1  LIG1        0.1424
     10 H           2.4388    2.2823   -1.2984 H       1  LIG1        0.1424
     11 N          -0.7087    1.6982    0.9953 N.pl3   1  LIG1       -0.3549
     12 H          -0.2316    2.5940    0.9686 H       1  LIG1        0.1424
     13 H          -1.7209    1.8058    1.0704 H       1  LIG1        0.1424
     14 C          -2.3561   -0.6731   -0.3669 C.ar    1  LIG1        0.0880
     15 C          -3.5075   -0.1008    0.1380 C.ar    1  LIG1        0.0733
     16 C          -4.4816   -1.1335    0.2860 C.ar    1  LIG1        0.0733
     17 C          -3.8913   -2.3103   -0.1255 C.ar    1  LIG1        0.0880
     18 N          -2.6029   -2.0056   -0.5257 N.ar    1  LIG1       -0.3488
     19 H          -1.9301   -2.6688   -0.8723 H       1  LIG1        0.1661
     20 N          -3.6709    1.2763    0.4726 N.pl3   1  LIG1       -0.3548
     21 H          -4.0834    1.8123   -0.2855 H       1  LIG1        0.1424
     22 H          -4.2512    1.3712    1.3014 H       1  LIG1        0.1424
     23 N          -5.7683   -0.9610    0.8169 N.pl3   1  LIG1       -0.3548
     24 H          -6.1495   -0.0585    0.5539 H       1  LIG1        0.1424
     25 H          -6.3886   -1.7058    0.4924 H       1  LIG1        0.1424
     26 C          -4.4024   -3.6751   -0.1162 C.ar    1  LIG1        0.0880
     27 C          -5.6681   -4.1628   -0.3756 C.ar    1  LIG1        0.0733
     28 C          -5.6290   -5.5816   -0.2324 C.ar    1  LIG1        0.0733
     29 C          -4.3382   -5.9196    0.1168 C.ar    1  LIG1        0.0880
     30 N          -3.6073   -4.7496    0.1720 N.ar    1  LIG1       -0.3488
     31 H          -2.6425   -4.6875    0.4515 H       1  LIG1        0.1661
     32 N          -6.8185   -3.3772   -0.6777 N.pl3   1  LIG1       -0.3548
     33 H          -6.9259   -3.2129   -1.6748 H       1  LIG1        0.1424
     34 H          -7.6524   -3.8396   -0.3257 H       1  LIG1        0.1424
     35 N          -6.7444   -6.4293   -0.3603 N.pl3   1  LIG1       -0.3548
     36 H          -7.2905   -6.1855   -1.1809 H       1  LIG1        0.1424
     37 H          -6.4631   -7.4071   -0.4356 H       1  LIG1        0.1424
     38 C          -3.7856   -7.2315    0.4262 C.ar    1  LIG1        0.0875
     39 C          -4.0329   -8.4465   -0.1710 C.ar    1  LIG1        0.0726
     40 C          -3.2883   -9.4367    0.5322 C.ar    1  LIG1        0.0637
     41 C          -2.6032   -8.7910    1.5371 C.ar    1  LIG1        0.0249
     42 N          -2.9003   -7.4634    1.4570 N.ar    1  LIG1       -0.3564
     43 H          -2.6416   -6.7702    2.1399 H       1  LIG1        0.1655
     44 H          -1.9346   -9.1781    2.2872 H       1  LIG1        0.0826
     45 N          -4.8993   -8.7085   -1.2567 N.pl3   1  LIG1       -0.3549
     46 H          -4.6798   -8.1204   -2.0559 H       1  LIG1        0.1424
     47 H          -4.8020   -9.6888   -1.5111 H       1  LIG1        0.1424
     48 N          -3.3138  -10.8121    0.1514 N.pl3   1  LIG1       -0.3554
     49 H          -2.3808  -11.1836    0.0100 H       1  LIG1        0.1424
     50 H          -3.7909  -11.3852    0.8396 H       1  LIG1        0.1424
@<TRIPOS>BOND
     1     7     1    1
     2     6     5    1
     3    46    45    1
     4     1     5   ar
     5     1     2   ar
     6     5     4   ar
     7    33    32    1
     8    47    45    1
     9    10     8    1
    10    45    39    1
    11    36    35    1
    12    19    18    1
    13     2     8    1
    14     2     3   ar
    15     4    14    1
    16     4     3   ar
    17    32    27    1
    18    32    34    1
    19     8     9    1
    20    18    14   ar
    21    18    17   ar
    22    37    35    1
    23    27    28   ar
    24    27    26   ar
    25    14    15   ar
    26    35    28    1
    27    21    20    1
    28    28    29   ar
    29    39    38   ar
    30    39    40   ar
    31     3    11    1
    32    17    26    1
    33    17    16   ar
    34    26    30   ar
    35    49    48    1
    36    29    30   ar
    37    29    38    1
    38    15    16   ar
    39    15    20    1
    40    48    40    1
    41    48    50    1
    42    30    31    1
    43    16    23    1
    44    38    42   ar
    45    20    22    1
    46    25    23    1
    47    40    41   ar
    48    24    23    1
    49    12    11    1
    50    11    13    1
    51    42    41   ar
    52    42    43    1
    53    41    44    1
