@<TRIPOS>MOLECULE
mol_data/opt/m06hf/geoms/mol2/13hi6ef-12dh-12fe-.out
 47 50 0 0 0
SMALL
GASTEIGER

@<TRIPOS>ATOM
      1 C           1.1240    0.4658   -1.0873 C.ar    1  LIG1        0.0233
      2 C           0.8175    1.2964   -0.0303 C.ar    1  LIG1        0.0456
      3 C          -0.4850    0.9535    0.4255 C.ar    1  LIG1       -0.0045
      4 C          -0.9258   -0.0826   -0.3852 C.ar    1  LIG1        0.0540
      5 N           0.0676   -0.3680   -1.2801 N.ar    1  LIG1       -0.3587
      6 H           0.0222   -1.1194   -1.9507 H       1  LIG1        0.1654
      7 H           2.0104    0.4055   -1.6951 H       1  LIG1        0.0826
      8 N           1.6288    2.2844    0.5839 N.pl3   1  LIG1       -0.3566
      9 H           2.5904    2.2343    0.2684 H       1  LIG1        0.1424
     10 H           1.2755    3.2205    0.4128 H       1  LIG1        0.1424
     11 C          -1.1413    1.5872    1.6261 C.3     1  LIG1       -0.0360
     12 H          -1.7758    0.8717    2.1501 H       1  LIG1        0.0279
     13 H          -1.7469    2.4554    1.3512 H       1  LIG1        0.0279
     14 H          -0.3519    1.9240    2.2995 H       1  LIG1        0.0279
     15 C          -2.3791   -2.1438   -0.7466 C.ar    1  LIG1        0.1233
     16 C          -2.2143   -0.7873   -0.3730 C.ar    1  LIG1        0.0359
     17 C          -3.3571   -0.1045    0.0304 C.ar    1  LIG1       -0.0062
     18 C          -4.5861   -0.7537    0.0741 C.ar    1  LIG1        0.1465
     19 C          -4.6382   -2.0901   -0.3467 C.ar    1  LIG1        0.1499
     20 N          -3.5557   -2.7537   -0.7342 N.ar    1  LIG1       -0.2309
     21 H          -3.3154    0.9401    0.3054 H       1  LIG1        0.0662
     22 C          -1.2601   -2.9660   -1.1717 C.1     1  LIG1       -0.0491
     23 C          -0.3465   -3.6590   -1.5322 C.1     1  LIG1       -0.1124
     24 H           0.4555   -4.2935   -1.8329 H       1  LIG1        0.1232
     25 O          -5.6512   -0.0580    0.5138 O.3     1  LIG1       -0.5045
     26 H          -6.4362   -0.6151    0.5882 H       1  LIG1        0.2922
     27 C          -5.9093   -2.8411   -0.3508 C.ar    1  LIG1        0.1767
     28 C          -7.1719   -2.5203   -0.7855 C.ar    1  LIG1        0.1204
     29 C          -8.0147   -3.6618   -0.5194 C.ar    1  LIG1        0.0925
     30 C          -7.1757   -4.5802    0.0429 C.ar    1  LIG1        0.1961
     31 O          -5.9131   -4.0767    0.1371 O.2     1  LIG1       -0.4467
     32 N          -7.9756   -0.3928   -2.0040 N.1     1  LIG1       -0.1907
     33 C          -7.5921   -1.3304   -1.4629 C.1     1  LIG1        0.1049
     34 N          -9.3746   -3.7329   -0.7377 N.pl3   1  LIG1       -0.3539
     35 H          -9.7287   -3.0430   -1.3861 H       1  LIG1        0.1425
     36 H          -9.7282   -4.6684   -0.9041 H       1  LIG1        0.1425
     37 C          -7.4214   -5.9270    0.5097 C.ar    1  LIG1        0.2139
     38 C          -8.3641   -6.8416    0.1676 C.ar    1  LIG1        0.1815
     39 C          -8.1548   -7.9890    1.0124 C.ar    1  LIG1        0.1045
     40 C          -7.0821   -7.6713    1.7887 C.ar    1  LIG1        0.1118
     41 O          -6.6459   -6.4415    1.5005 O.2     1  LIG1       -0.4547
     42 H          -6.5545   -8.2180    2.5500 H       1  LIG1        0.1043
     43 O          -9.3136   -6.7068   -0.7921 O.3     1  LIG1       -0.5023
     44 H          -9.8377   -7.5172   -0.8362 H       1  LIG1        0.2923
     45 C          -8.9422   -9.1815    0.9603 C.1     1  LIG1       -0.0628
     46 C          -9.6431  -10.1534    0.8646 C.1     1  LIG1       -0.1137
     47 H         -10.2512  -11.0261    0.7939 H       1  LIG1        0.1232
@<TRIPOS>BOND
     1    32    33    3
     2     6     5    1
     3    24    23    1
     4     7     1    1
     5    23    22    3
     6    33    28    1
     7    35    34    1
     8     5     1   ar
     9     5     4   ar
    10    22    15    1
    11     1     2   ar
    12    36    34    1
    13    44    43    1
    14    43    38    1
    15    28    29   ar
    16    28    27   ar
    17    15    20   ar
    18    15    16   ar
    19    34    29    1
    20    20    19   ar
    21    29    30   ar
    22     4    16    1
    23     4     3   ar
    24    16    17   ar
    25    27    19    1
    26    27    31   ar
    27    19    18   ar
    28     2     3   ar
    29     2     8    1
    30    17    18   ar
    31    17    21    1
    32    30    31   ar
    33    30    37    1
    34    18    25    1
    35    38    37   ar
    36    38    39   ar
    37     9     8    1
    38    10     8    1
    39     3    11    1
    40    37    41   ar
    41    25    26    1
    42    47    46    1
    43    46    45    3
    44    45    39    1
    45    39    40   ar
    46    13    11    1
    47    41    40   ar
    48    11    12    1
    49    11    14    1
    50    40    42    1
