@<TRIPOS>MOLECULE
mol_data/opt/m06hf/geoms/mol2/13hi13hi.out
 28 29 0 0 0
SMALL
GASTEIGER

@<TRIPOS>ATOM
      1 C           1.1233   -0.2755   -0.7208 C.ar    1  LIG1        0.0233
      2 C           0.8042    0.9697   -0.2378 C.ar    1  LIG1        0.0457
      3 C          -0.5690    0.9471    0.1570 C.ar    1  LIG1       -0.0031
      4 C          -1.0354   -0.3235   -0.1125 C.ar    1  LIG1        0.0694
      5 N          -0.0008   -1.0569   -0.6280 N.ar    1  LIG1       -0.3576
      6 H          -0.1010   -1.9878   -0.9965 H       1  LIG1        0.1654
      7 H           2.0529   -0.6612   -1.1032 H       1  LIG1        0.0826
      8 N           1.6558    2.0841   -0.0465 N.pl3   1  LIG1       -0.3566
      9 H           2.5885    1.9182   -0.4052 H       1  LIG1        0.1424
     10 H           1.2778    2.9196   -0.4804 H       1  LIG1        0.1424
     11 C          -1.3139    2.0750    0.8231 C.3     1  LIG1       -0.0359
     12 H          -2.2592    1.7099    1.2256 H       1  LIG1        0.0279
     13 H          -1.5342    2.8851    0.1220 H       1  LIG1        0.0279
     14 H          -0.7047    2.4837    1.6314 H       1  LIG1        0.0279
     15 C          -2.3695   -0.8913    0.0763 C.ar    1  LIG1        0.0844
     16 C          -3.5920   -0.4054   -0.3308 C.ar    1  LIG1        0.0546
     17 C          -4.5949   -1.3285    0.0950 C.ar    1  LIG1       -0.0118
     18 C          -3.9365   -2.3452    0.7445 C.ar    1  LIG1        0.0069
     19 N          -2.6000   -2.0820    0.7310 N.ar    1  LIG1       -0.3578
     20 H          -1.8940   -2.5909    1.2365 H       1  LIG1        0.1654
     21 H          -4.3317   -3.2278    1.2193 H       1  LIG1        0.0810
     22 N          -3.8329    0.8065   -1.0122 N.pl3   1  LIG1       -0.3561
     23 H          -2.9608    1.2129   -1.3376 H       1  LIG1        0.1424
     24 H          -4.4585    0.6754   -1.8004 H       1  LIG1        0.1424
     25 C          -6.0763   -1.1792   -0.1364 C.3     1  LIG1       -0.0365
     26 H          -6.6238   -1.9615    0.3893 H       1  LIG1        0.0279
     27 H          -6.3213   -1.2491   -1.1993 H       1  LIG1        0.0279
     28 H          -6.4150   -0.2075    0.2270 H       1  LIG1        0.0279
@<TRIPOS>BOND
     1    24    22    1
     2    23    22    1
     3    27    25    1
     4     7     1    1
     5    22    16    1
     6     6     5    1
     7     1     5   ar
     8     1     2   ar
     9     5     4   ar
    10    10     8    1
    11     9     8    1
    12    16    15   ar
    13    16    17   ar
    14     2     8    1
    15     2     3   ar
    16    25    17    1
    17    25    28    1
    18    25    26    1
    19     4    15    1
    20     4     3   ar
    21    15    19   ar
    22    17    18   ar
    23    13    11    1
    24     3    11    1
    25    19    18   ar
    26    19    20    1
    27    18    21    1
    28    11    12    1
    29    11    14    1
