@<TRIPOS>MOLECULE
mol_data/opt/m06hf/geoms/mol2/13hi13hi-13hi13hi-.out
 54 57 0 0 0
SMALL
GASTEIGER

@<TRIPOS>ATOM
      1 C           1.2974   -0.3231   -0.1604 C.ar    1  LIG1        0.0233
      2 C           0.9287    1.0031   -0.0692 C.ar    1  LIG1        0.0457
      3 C          -0.4943    1.0567   -0.0189 C.ar    1  LIG1       -0.0031
      4 C          -0.9313   -0.2535   -0.0888 C.ar    1  LIG1        0.0695
      5 N           0.1593   -1.0689   -0.1638 N.ar    1  LIG1       -0.3576
      6 H           0.0474   -2.0776   -0.1958 H       1  LIG1        0.1654
      7 H           2.2742   -0.7731   -0.2150 H       1  LIG1        0.0826
      8 N           1.7641    2.1587   -0.0027 N.pl3   1  LIG1       -0.3566
      9 H           2.6456    1.9514    0.4525 H       1  LIG1        0.1424
     10 H           1.9608    2.5271   -0.9282 H       1  LIG1        0.1424
     11 C          -1.3081    2.3179    0.1191 C.3     1  LIG1       -0.0359
     12 H          -2.0225    2.2387    0.9428 H       1  LIG1        0.0279
     13 H          -1.8596    2.5509   -0.7962 H       1  LIG1        0.0279
     14 H          -0.6228    3.1387    0.3328 H       1  LIG1        0.0279
     15 C          -2.2693   -0.8322   -0.0852 C.ar    1  LIG1        0.0849
     16 C          -2.6540   -2.1627   -0.0899 C.ar    1  LIG1        0.0552
     17 C          -4.0778   -2.2127   -0.0825 C.ar    1  LIG1       -0.0024
     18 C          -4.5035   -0.8962   -0.0770 C.ar    1  LIG1        0.0699
     19 N          -3.4042   -0.0869   -0.0781 N.ar    1  LIG1       -0.3501
     20 H          -3.5002    0.9253   -0.0908 H       1  LIG1        0.1661
     21 N          -1.7218   -3.2543   -0.1018 N.pl3   1  LIG1       -0.3561
     22 H          -1.8050   -3.8151    0.7422 H       1  LIG1        0.1424
     23 H          -1.8852   -3.8628   -0.8995 H       1  LIG1        0.1424
     24 C          -4.9302   -3.4574   -0.0802 C.3     1  LIG1       -0.0359
     25 H          -4.2891   -4.3403   -0.0666 H       1  LIG1        0.0279
     26 H          -5.5601   -3.5135   -0.9719 H       1  LIG1        0.0279
     27 H          -5.5747   -3.4982    0.8019 H       1  LIG1        0.0279
     28 C          -5.8321   -0.2997   -0.0709 C.ar    1  LIG1        0.0849
     29 C          -6.1888    1.0392   -0.0551 C.ar    1  LIG1        0.0552
     30 C          -7.6119    1.1176   -0.0535 C.ar    1  LIG1       -0.0024
     31 C          -8.0652   -0.1894   -0.0698 C.ar    1  LIG1        0.0699
     32 N          -6.9828   -1.0211   -0.0789 N.ar    1  LIG1       -0.3501
     33 H          -7.1064   -2.0306   -0.0876 H       1  LIG1        0.1661
     34 N          -5.2345    2.1096   -0.0417 N.pl3   1  LIG1       -0.3561
     35 H          -5.3593    2.7284   -0.8381 H       1  LIG1        0.1424
     36 H          -5.3085    2.6639    0.8073 H       1  LIG1        0.1424
     37 C          -8.4286    2.3860   -0.0354 C.3     1  LIG1       -0.0359
     38 H          -9.0784    2.4314    0.8430 H       1  LIG1        0.0279
     39 H          -9.0385    2.4850   -0.9379 H       1  LIG1        0.0279
     40 H          -7.7614    3.2481    0.0054 H       1  LIG1        0.0279
     41 C          -9.4014   -0.7736   -0.0785 C.ar    1  LIG1        0.0844
     42 C          -9.7687   -2.1048   -0.0723 C.ar    1  LIG1        0.0546
     43 C         -11.1950   -2.1710   -0.0882 C.ar    1  LIG1       -0.0118
     44 C         -11.6402   -0.8733   -0.1051 C.ar    1  LIG1        0.0069
     45 N         -10.5534   -0.0413   -0.0982 N.ar    1  LIG1       -0.3578
     46 H         -10.5875    0.9640   -0.1135 H       1  LIG1        0.1654
     47 H         -12.6438   -0.4841   -0.1212 H       1  LIG1        0.0810
     48 N          -8.8310   -3.1917   -0.0529 N.pl3   1  LIG1       -0.3561
     49 H          -8.9464   -3.7520    0.7882 H       1  LIG1        0.1424
     50 H          -8.9741   -3.8038   -0.8524 H       1  LIG1        0.1424
     51 C         -12.0246   -3.4295   -0.0875 C.3     1  LIG1       -0.0365
     52 H         -11.8181   -4.0314    0.8002 H       1  LIG1        0.0279
     53 H         -11.8099   -4.0385   -0.9685 H       1  LIG1        0.0279
     54 H         -13.0858   -3.1822   -0.0938 H       1  LIG1        0.0279
@<TRIPOS>BOND
     1    26    24    1
     2    53    51    1
     3    39    37    1
     4    10     8    1
     5    23    21    1
     6    50    48    1
     7    35    34    1
     8    13    11    1
     9     7     1    1
    10     6     5    1
    11     5     1   ar
    12     5     4   ar
    13     1     2   ar
    14    47    44    1
    15    46    45    1
    16    44    45   ar
    17    44    43   ar
    18    21    16    1
    19    21    22    1
    20    45    41   ar
    21    54    51    1
    22    20    19    1
    23    16    15   ar
    24    16    17   ar
    25     4    15    1
    26     4     3   ar
    27    43    51    1
    28    43    42   ar
    29    33    32    1
    30    51    52    1
    31    15    19   ar
    32    17    24    1
    33    17    18   ar
    34    24    25    1
    35    24    27    1
    36    32    28   ar
    37    32    31   ar
    38    41    42   ar
    39    41    31    1
    40    19    18   ar
    41    18    28    1
    42    42    48    1
    43    28    29   ar
    44    31    30   ar
    45     2     3   ar
    46     2     8    1
    47    29    30   ar
    48    29    34    1
    49    30    37    1
    50    48    49    1
    51    34    36    1
    52    37    40    1
    53    37    38    1
    54     3    11    1
    55     8     9    1
    56    11    14    1
    57    11    12    1
