@<TRIPOS>MOLECULE
mol_data/opt/m06hf/geoms/mol2/13hi13hi-13hi.out
 41 43 0 0 0
SMALL
GASTEIGER

@<TRIPOS>ATOM
      1 C           1.2275   -0.2895   -0.1559 C.ar    1  LIG1        0.0233
      2 C           0.8305    1.0295   -0.0845 C.ar    1  LIG1        0.0457
      3 C          -0.5932    1.0535   -0.0331 C.ar    1  LIG1       -0.0031
      4 C          -1.0021   -0.2667   -0.0829 C.ar    1  LIG1        0.0695
      5 N           0.1056   -1.0600   -0.1454 N.ar    1  LIG1       -0.3576
      6 H           0.0168   -2.0713   -0.1574 H       1  LIG1        0.1654
      7 H           2.2130   -0.7203   -0.2048 H       1  LIG1        0.0826
      8 N           1.6420    2.2027   -0.0371 N.pl3   1  LIG1       -0.3566
      9 H           2.5373    2.0121    0.3985 H       1  LIG1        0.1424
     10 H           1.8132    2.5700   -0.9683 H       1  LIG1        0.1424
     11 C          -1.4346    2.2983    0.0875 C.3     1  LIG1       -0.0359
     12 H          -2.1347    2.2217    0.9236 H       1  LIG1        0.0279
     13 H          -2.0049    2.4960   -0.8245 H       1  LIG1        0.0279
     14 H          -0.7668    3.1404    0.2716 H       1  LIG1        0.0279
     15 C          -2.3277   -0.8740   -0.0656 C.ar    1  LIG1        0.0849
     16 C          -2.6840   -2.2118   -0.0463 C.ar    1  LIG1        0.0552
     17 C          -4.1070   -2.2910   -0.0336 C.ar    1  LIG1       -0.0024
     18 C          -4.5612   -0.9842   -0.0480 C.ar    1  LIG1        0.0699
     19 N          -3.4783   -0.1530   -0.0672 N.ar    1  LIG1       -0.3501
     20 H          -3.5978    0.8568   -0.1085 H       1  LIG1        0.1661
     21 N          -1.7300   -3.2835   -0.0467 N.pl3   1  LIG1       -0.3561
     22 H          -1.8137   -3.8517    0.7919 H       1  LIG1        0.1424
     23 H          -1.8596   -3.8887   -0.8529 H       1  LIG1        0.1424
     24 C          -4.9223   -3.5607   -0.0118 C.3     1  LIG1       -0.0359
     25 H          -4.2557   -4.4230   -0.0597 H       1  LIG1        0.0279
     26 H          -5.5966   -3.6189   -0.8706 H       1  LIG1        0.0279
     27 H          -5.5065   -3.6491    0.9086 H       1  LIG1        0.0279
     28 C          -5.8986   -0.4012   -0.0492 C.ar    1  LIG1        0.0844
     29 C          -6.2678    0.9279   -0.1054 C.ar    1  LIG1        0.0546
     30 C          -7.6944    0.9928   -0.0811 C.ar    1  LIG1       -0.0118
     31 C          -8.1377   -0.3036   -0.0098 C.ar    1  LIG1        0.0069
     32 N          -7.0493   -1.1340    0.0077 N.ar    1  LIG1       -0.3578
     33 H          -7.0831   -2.1375    0.0710 H       1  LIG1        0.1654
     34 H          -9.1398   -0.6953    0.0299 H       1  LIG1        0.0810
     35 N          -5.3302    2.0118   -0.1709 N.pl3   1  LIG1       -0.3561
     36 H          -5.4658    2.5594   -1.0167 H       1  LIG1        0.1424
     37 H          -5.4415    2.6360    0.6241 H       1  LIG1        0.1424
     38 C          -8.5244    2.2507   -0.1276 C.3     1  LIG1       -0.0365
     39 H          -9.5851    2.0057   -0.0789 H       1  LIG1        0.0279
     40 H          -8.3418    2.8030   -1.0519 H       1  LIG1        0.0279
     41 H          -8.2847    2.9058    0.7127 H       1  LIG1        0.0279
@<TRIPOS>BOND
     1    40    38    1
     2    36    35    1
     3    10     8    1
     4    26    24    1
     5    23    21    1
     6    13    11    1
     7     7     1    1
     8    35    29    1
     9    35    37    1
    10     6     5    1
    11     1     5   ar
    12     1     2   ar
    13     5     4   ar
    14    38    30    1
    15    38    39    1
    16    38    41    1
    17    20    19    1
    18    29    30   ar
    19    29    28   ar
    20     2     8    1
    21     2     3   ar
    22     4    15    1
    23     4     3   ar
    24    30    31   ar
    25    19    15   ar
    26    19    18   ar
    27    15    16   ar
    28    25    24    1
    29    28    18    1
    30    28    32   ar
    31    18    17   ar
    32    21    16    1
    33    21    22    1
    34    16    17   ar
    35     8     9    1
    36    17    24    1
    37     3    11    1
    38    24    27    1
    39    31    32   ar
    40    31    34    1
    41    32    33    1
    42    11    14    1
    43    11    12    1
