@<TRIPOS>MOLECULE
mol_data/opt/m06hf/geoms/mol2/13hi13hi13hi13hi.out
 54 57 0 0 0
SMALL
GASTEIGER

@<TRIPOS>ATOM
      1 C           0.4660    0.5407   -2.3129 C.ar    1  LIG1        0.0233
      2 C           0.6792    1.2007   -1.1273 C.ar    1  LIG1        0.0457
      3 C          -0.3750    0.8407   -0.2314 C.ar    1  LIG1       -0.0031
      4 C          -1.1977   -0.0275   -0.9197 C.ar    1  LIG1        0.0695
      5 N          -0.6708   -0.2142   -2.1698 N.ar    1  LIG1       -0.3576
      6 H          -1.1370   -0.7148   -2.9081 H       1  LIG1        0.1654
      7 H           1.0341    0.5417   -3.2270 H       1  LIG1        0.0826
      8 N           1.7727    2.0212   -0.7633 N.pl3   1  LIG1       -0.3566
      9 H           2.3942    2.1975   -1.5440 H       1  LIG1        0.1424
     10 H           1.4631    2.9072   -0.3780 H       1  LIG1        0.1424
     11 C          -0.4954    1.2688    1.2084 C.3     1  LIG1       -0.0359
     12 H          -1.2701    0.6849    1.7057 H       1  LIG1        0.0279
     13 H          -0.7621    2.3262    1.2927 H       1  LIG1        0.0279
     14 H           0.4599    1.1193    1.7144 H       1  LIG1        0.0279
     15 C          -2.4308   -0.6856   -0.4897 C.ar    1  LIG1        0.0849
     16 C          -3.5640   -0.1356    0.0705 C.ar    1  LIG1        0.0552
     17 C          -4.4923   -1.1901    0.3144 C.ar    1  LIG1       -0.0024
     18 C          -3.8878   -2.3556   -0.1209 C.ar    1  LIG1        0.0699
     19 N          -2.6458   -2.0411   -0.5977 N.ar    1  LIG1       -0.3501
     20 H          -1.9842   -2.7005   -0.9735 H       1  LIG1        0.1661
     21 N          -3.7587    1.2185    0.4102 N.pl3   1  LIG1       -0.3561
     22 H          -3.0468    1.8043   -0.0150 H       1  LIG1        0.1424
     23 H          -4.6799    1.5459    0.1395 H       1  LIG1        0.1424
     24 C          -5.8358   -1.0508    0.9826 C.3     1  LIG1       -0.0359
     25 H          -6.2466   -2.0364    1.2030 H       1  LIG1        0.0279
     26 H          -6.5495   -0.5213    0.3451 H       1  LIG1        0.0279
     27 H          -5.7262   -0.4855    1.9100 H       1  LIG1        0.0279
     28 C          -4.3987   -3.7254   -0.1118 C.ar    1  LIG1        0.0849
     29 C          -5.5948   -4.2121   -0.5956 C.ar    1  LIG1        0.0552
     30 C          -5.6336   -5.6152   -0.3447 C.ar    1  LIG1       -0.0024
     31 C          -4.4423   -5.9370    0.2794 C.ar    1  LIG1        0.0699
     32 N          -3.7086   -4.7924    0.4183 N.ar    1  LIG1       -0.3501
     33 H          -2.8004   -4.7384    0.8497 H       1  LIG1        0.1661
     34 N          -6.6356   -3.4573   -1.1726 N.pl3   1  LIG1       -0.3561
     35 H          -6.3177   -2.5245   -1.4172 H       1  LIG1        0.1424
     36 H          -7.0272   -3.9137   -1.9890 H       1  LIG1        0.1424
     37 C          -6.7879   -6.5394   -0.6363 C.3     1  LIG1       -0.0359
     38 H          -6.6171   -7.5060   -0.1618 H       1  LIG1        0.0279
     39 H          -6.9119   -6.7064   -1.7103 H       1  LIG1        0.0279
     40 H          -7.7118   -6.1033   -0.2518 H       1  LIG1        0.0279
     41 C          -3.9614   -7.2333    0.7553 C.ar    1  LIG1        0.0844
     42 C          -3.8822   -8.4358    0.0884 C.ar    1  LIG1        0.0546
     43 C          -3.3500   -9.4047    0.9932 C.ar    1  LIG1       -0.0118
     44 C          -3.1230   -8.7457    2.1782 C.ar    1  LIG1        0.0069
     45 N          -3.4871   -7.4414    2.0327 N.ar    1  LIG1       -0.3578
     46 H          -3.5559   -6.7645    2.7747 H       1  LIG1        0.1654
     47 H          -2.7392   -9.1214    3.1117 H       1  LIG1        0.0810
     48 N          -4.2900   -8.6929   -1.2375 N.pl3   1  LIG1       -0.3561
     49 H          -4.4736   -7.8250   -1.7315 H       1  LIG1        0.1424
     50 H          -3.5965   -9.2324   -1.7450 H       1  LIG1        0.1424
     51 C          -3.1042  -10.8573    0.6765 C.3     1  LIG1       -0.0365
     52 H          -2.8400  -11.4027    1.5824 H       1  LIG1        0.0279
     53 H          -2.2888  -10.9754   -0.0417 H       1  LIG1        0.0279
     54 H          -4.0036  -11.3029    0.2477 H       1  LIG1        0.0279
@<TRIPOS>BOND
     1     7     1    1
     2     6     5    1
     3     1     5   ar
     4     1     2   ar
     5     5     4   ar
     6    36    34    1
     7    50    48    1
     8    49    48    1
     9    39    37    1
    10     9     8    1
    11    35    34    1
    12    48    42    1
    13    34    29    1
    14     2     8    1
    15     2     3   ar
    16    20    19    1
    17     4    15    1
    18     4     3   ar
    19     8    10    1
    20    37    30    1
    21    37    40    1
    22    37    38    1
    23    19    15   ar
    24    19    18   ar
    25    29    30   ar
    26    29    28   ar
    27    15    16   ar
    28    30    31   ar
    29     3    11    1
    30    18    28    1
    31    18    17   ar
    32    28    32   ar
    33    53    51    1
    34    22    21    1
    35    16    17   ar
    36    16    21    1
    37    42    41   ar
    38    42    43   ar
    39    23    21    1
    40    54    51    1
    41    31    32   ar
    42    31    41    1
    43    17    24    1
    44    26    24    1
    45    32    33    1
    46    51    43    1
    47    51    52    1
    48    41    45   ar
    49    24    25    1
    50    24    27    1
    51    43    44   ar
    52    11    13    1
    53    11    12    1
    54    11    14    1
    55    45    44   ar
    56    45    46    1
    57    44    47    1
