@<TRIPOS>MOLECULE
mol_data/opt/m06hf/geoms/mol2/13hi13hi13hi.out
 41 43 0 0 0
SMALL
GASTEIGER

@<TRIPOS>ATOM
      1 C           0.9751   -0.0200   -1.4074 C.ar    1  LIG1        0.0233
      2 C           0.8301    1.0016   -0.5009 C.ar    1  LIG1        0.0457
      3 C          -0.4644    0.8800    0.0922 C.ar    1  LIG1       -0.0031
      4 C          -1.0620   -0.2198   -0.4890 C.ar    1  LIG1        0.0695
      5 N          -0.1772   -0.7651   -1.3806 N.ar    1  LIG1       -0.3576
      6 H          -0.4084   -1.5086   -2.0185 H       1  LIG1        0.1654
      7 H           1.8023   -0.2776   -2.0459 H       1  LIG1        0.0826
      8 N           1.7840    1.9694   -0.1068 N.pl3   1  LIG1       -0.3566
      9 H           2.6328    1.9179   -0.6575 H       1  LIG1        0.1424
     10 H           1.4073    2.9096   -0.1610 H       1  LIG1        0.1424
     11 C          -1.0120    1.7409    1.2010 C.3     1  LIG1       -0.0359
     12 H          -1.9123    1.2859    1.6144 H       1  LIG1        0.0279
     13 H          -1.2729    2.7410    0.8437 H       1  LIG1        0.0279
     14 H          -0.2598    1.8466    1.9848 H       1  LIG1        0.0279
     15 C          -2.3895   -0.7898   -0.2679 C.ar    1  LIG1        0.0849
     16 C          -3.6206   -0.1692   -0.2734 C.ar    1  LIG1        0.0552
     17 C          -4.6145   -1.1580   -0.0118 C.ar    1  LIG1       -0.0024
     18 C          -3.9455   -2.3598    0.1340 C.ar    1  LIG1        0.0699
     19 N          -2.6077   -2.1261   -0.0182 N.ar    1  LIG1       -0.3501
     20 H          -1.8871   -2.8263    0.0524 H       1  LIG1        0.1661
     21 N          -3.8610    1.2093   -0.4378 N.pl3   1  LIG1       -0.3561
     22 H          -3.0439    1.6787   -0.8152 H       1  LIG1        0.1424
     23 H          -4.6668    1.3866   -1.0270 H       1  LIG1        0.1424
     24 C          -6.0934   -0.9134    0.1434 C.3     1  LIG1       -0.0359
     25 H          -6.5808   -1.8129    0.5202 H       1  LIG1        0.0279
     26 H          -6.5605   -0.6491   -0.8097 H       1  LIG1        0.0279
     27 H          -6.2584   -0.0908    0.8420 H       1  LIG1        0.0279
     28 C          -4.4744   -3.6957    0.4027 C.ar    1  LIG1        0.0844
     29 C          -5.4754   -4.3862   -0.2442 C.ar    1  LIG1        0.0546
     30 C          -5.6121   -5.6575    0.3909 C.ar    1  LIG1       -0.0118
     31 C          -4.6807   -5.6894    1.4015 C.ar    1  LIG1        0.0069
     32 N          -3.9958   -4.5121    1.4050 N.ar    1  LIG1       -0.3578
     33 H          -3.3463   -4.2108    2.1125 H       1  LIG1        0.1654
     34 H          -4.4696   -6.4655    2.1182 H       1  LIG1        0.0810
     35 N          -6.2634   -3.9172   -1.3158 N.pl3   1  LIG1       -0.3561
     36 H          -5.8654   -3.0717   -1.7126 H       1  LIG1        0.1424
     37 H          -6.3691   -4.6174   -2.0421 H       1  LIG1        0.1424
     38 C          -6.5966   -6.7298    0.0014 C.3     1  LIG1       -0.0365
     39 H          -6.5838   -7.5395    0.7310 H       1  LIG1        0.0279
     40 H          -6.3575   -7.1515   -0.9783 H       1  LIG1        0.0279
     41 H          -7.6047   -6.3143   -0.0435 H       1  LIG1        0.0279
@<TRIPOS>BOND
     1     7     1    1
     2    37    35    1
     3     6     5    1
     4    36    35    1
     5     1     5   ar
     6     1     2   ar
     7     5     4   ar
     8    35    29    1
     9    23    21    1
    10    40    38    1
    11    22    21    1
    12    26    24    1
    13     9     8    1
    14     2     8    1
    15     2     3   ar
    16     4    15    1
    17     4     3   ar
    18    21    16    1
    19    16    15   ar
    20    16    17   ar
    21    15    19   ar
    22    29    30   ar
    23    29    28   ar
    24    10     8    1
    25    41    38    1
    26    19    20    1
    27    19    18   ar
    28    17    18   ar
    29    17    24    1
    30    38    30    1
    31    38    39    1
    32     3    11    1
    33    18    28    1
    34    24    25    1
    35    24    27    1
    36    30    31   ar
    37    28    32   ar
    38    13    11    1
    39    11    12    1
    40    11    14    1
    41    31    32   ar
    42    31    34    1
    43    32    33    1
