@<TRIPOS>MOLECULE
mol_data/opt/m06hf/geoms/mol2/13hi13hi-13hi-13hi-.out
 54 57 0 0 0
SMALL
GASTEIGER

@<TRIPOS>ATOM
      1 C          -6.1952   -1.1482    0.1025 C.ar    1  LIG1        0.0233
      2 C          -5.4713   -2.2429   -0.3249 C.ar    1  LIG1        0.0457
      3 C          -4.0993   -1.8613   -0.3773 C.ar    1  LIG1       -0.0031
      4 C          -4.0517   -0.5371    0.0193 C.ar    1  LIG1        0.0695
      5 N          -5.3209   -0.1293    0.3100 N.ar    1  LIG1       -0.3576
      6 H          -5.4976    0.8164    0.6367 H       1  LIG1        0.1654
      7 H          -7.2520   -1.0336    0.2741 H       1  LIG1        0.0826
      8 N          -5.9372   -3.5534   -0.6521 N.pl3   1  LIG1       -0.3566
      9 H          -6.6397   -3.8709    0.0066 H       1  LIG1        0.1424
     10 H          -6.3372   -3.5829   -1.5846 H       1  LIG1        0.1424
     11 C          -2.9708   -2.7801   -0.7703 C.3     1  LIG1       -0.0359
     12 H          -2.2097   -2.8332    0.0133 H       1  LIG1        0.0279
     13 H          -2.4976   -2.4689   -1.7064 H       1  LIG1        0.0279
     14 H          -3.3869   -3.7776   -0.9110 H       1  LIG1        0.0279
     15 C          -2.9477    0.4045    0.1657 C.ar    1  LIG1        0.0849
     16 C          -2.9674    1.7215    0.5829 C.ar    1  LIG1        0.0552
     17 C          -1.6304    2.2177    0.5535 C.ar    1  LIG1       -0.0024
     18 C          -0.8382    1.1791    0.1093 C.ar    1  LIG1        0.0699
     19 N          -1.6506    0.0927   -0.1166 N.ar    1  LIG1       -0.3501
     20 H          -1.3442   -0.7720   -0.5329 H       1  LIG1        0.1661
     21 N          -4.1609    2.4120    0.9807 N.pl3   1  LIG1       -0.3561
     22 H          -4.0879    2.7258    1.9456 H       1  LIG1        0.1424
     23 H          -4.3049    3.2370    0.4036 H       1  LIG1        0.1424
     24 C          -1.1724    3.5906    0.9770 C.3     1  LIG1       -0.0359
     25 H          -1.4383    3.7788    2.0197 H       1  LIG1        0.0279
     26 H          -1.6403    4.3653    0.3642 H       1  LIG1        0.0279
     27 H          -0.0910    3.6735    0.8655 H       1  LIG1        0.0279
     28 C           0.6059    1.1262   -0.1123 C.ar    1  LIG1        0.0849
     29 C           1.4098    1.9662   -0.8534 C.ar    1  LIG1        0.0552
     30 C           2.7539    1.5030   -0.7423 C.ar    1  LIG1       -0.0024
     31 C           2.7170    0.3777    0.0613 C.ar    1  LIG1        0.0699
     32 N           1.4222    0.1639    0.4398 N.ar    1  LIG1       -0.3501
     33 H           1.1076   -0.5987    1.0177 H       1  LIG1        0.1661
     34 N           0.9985    3.1254   -1.5426 N.pl3   1  LIG1       -0.3561
     35 H           1.4535    3.2077   -2.4453 H       1  LIG1        0.1424
     36 H          -0.0098    3.1360   -1.6652 H       1  LIG1        0.1424
     37 C           3.9749    2.1609   -1.3324 C.3     1  LIG1       -0.0359
     38 H           3.9645    3.2281   -1.1026 H       1  LIG1        0.0279
     39 H           4.0099    2.0467   -2.4197 H       1  LIG1        0.0279
     40 H           4.8757    1.7086   -0.9172 H       1  LIG1        0.0279
     41 C           3.8084   -0.4951    0.4900 C.ar    1  LIG1        0.0844
     42 C           4.7768   -1.1172   -0.2665 C.ar    1  LIG1        0.0546
     43 C           5.6120   -1.8640    0.6191 C.ar    1  LIG1       -0.0118
     44 C           5.1120   -1.6656    1.8842 C.ar    1  LIG1        0.0069
     45 N           4.0276   -0.8460    1.8051 N.ar    1  LIG1       -0.3578
     46 H           3.5383   -0.4405    2.5855 H       1  LIG1        0.1654
     47 H           5.4617   -2.0464    2.8292 H       1  LIG1        0.0810
     48 N           4.9509   -1.0104   -1.6617 N.pl3   1  LIG1       -0.3561
     49 H           5.1384   -1.9111   -2.0888 H       1  LIG1        0.1424
     50 H           4.1361   -0.5881   -2.0960 H       1  LIG1        0.1424
     51 C           6.8018   -2.6951    0.2132 C.3     1  LIG1       -0.0365
     52 H           7.4933   -2.0964   -0.3822 H       1  LIG1        0.0279
     53 H           6.4972   -3.5591   -0.3830 H       1  LIG1        0.0279
     54 H           7.3257   -3.0613    1.0960 H       1  LIG1        0.0279
@<TRIPOS>BOND
     1    35    34    1
     2    39    37    1
     3    50    48    1
     4    49    48    1
     5    13    11    1
     6    36    34    1
     7    48    42    1
     8    10     8    1
     9    34    29    1
    10    37    38    1
    11    37    40    1
    12    37    30    1
    13    14    11    1
    14    29    30   ar
    15    29    28   ar
    16    11     3    1
    17    11    12    1
    18    30    31   ar
    19     8     2    1
    20     8     9    1
    21    20    19    1
    22    53    51    1
    23    52    51    1
    24     3     2   ar
    25     3     4   ar
    26     2     1   ar
    27    42    41   ar
    28    42    43   ar
    29    19    18   ar
    30    19    15   ar
    31    28    18    1
    32    28    32   ar
    33     4    15    1
    34     4     5   ar
    35    31    32   ar
    36    31    41    1
    37     1     7    1
    38     1     5   ar
    39    18    17   ar
    40    15    16   ar
    41    51    43    1
    42    51    54    1
    43     5     6    1
    44    26    24    1
    45    23    21    1
    46    32    33    1
    47    41    45   ar
    48    17    16   ar
    49    17    24    1
    50    16    21    1
    51    43    44   ar
    52    27    24    1
    53    24    25    1
    54    21    22    1
    55    45    44   ar
    56    45    46    1
    57    44    47    1
