@<TRIPOS>MOLECULE
mol_data/opt/m06hf/geoms/mol2/13hi6aa-6ff-4al-.out
 49 52 0 0 0
SMALL
GASTEIGER

@<TRIPOS>ATOM
      1 C           1.2759   -0.0042   -0.8469 C.ar    1  LIG1        0.0233
      2 C           0.9774    1.0537   -0.0208 C.ar    1  LIG1        0.0456
      3 C          -0.4078    0.9714    0.3105 C.ar    1  LIG1       -0.0045
      4 C          -0.8999   -0.1455   -0.3352 C.ar    1  LIG1        0.0527
      5 N           0.1328   -0.7366   -1.0116 N.ar    1  LIG1       -0.3588
      6 H           0.0299   -1.5156   -1.6414 H       1  LIG1        0.1654
      7 H           2.2022   -0.2880   -1.3160 H       1  LIG1        0.0826
      8 N           1.8496    2.0353    0.5098 N.pl3   1  LIG1       -0.3566
      9 H           2.8196    1.8435    0.2895 H       1  LIG1        0.1424
     10 H           1.6129    2.9663    0.1826 H       1  LIG1        0.1424
     11 C          -1.1119    1.8969    1.2694 C.3     1  LIG1       -0.0360
     12 H          -1.9590    1.3960    1.7394 H       1  LIG1        0.0279
     13 H          -1.4740    2.7991    0.7698 H       1  LIG1        0.0279
     14 H          -0.4028    2.1974    2.0421 H       1  LIG1        0.0279
     15 C          -2.4499   -2.1037   -0.2671 C.ar    1  LIG1        0.0374
     16 C          -2.2503   -0.7256   -0.3280 C.ar    1  LIG1        0.0167
     17 C          -3.3980    0.0743   -0.3846 C.ar    1  LIG1       -0.0491
     18 C          -4.6524   -0.5089   -0.3626 C.ar    1  LIG1       -0.0349
     19 C          -4.7590   -1.9058   -0.2943 C.ar    1  LIG1        0.0762
     20 N          -3.6555   -2.6625   -0.2628 N.ar    1  LIG1       -0.2542
     21 H          -3.2932    1.1487   -0.4682 H       1  LIG1        0.0625
     22 H          -1.6074   -2.7820   -0.2006 H       1  LIG1        0.0836
     23 H          -5.5350    0.1092   -0.4282 H       1  LIG1        0.0639
     24 C          -6.1397   -4.0321   -0.3724 C.ar    1  LIG1        0.2225
     25 C          -6.0636   -2.6165   -0.2581 C.ar    1  LIG1        0.0652
     26 C          -7.2630   -1.9338   -0.0870 C.ar    1  LIG1       -0.0038
     27 C          -8.4694   -2.6162   -0.0838 C.ar    1  LIG1        0.1436
     28 C          -8.4419   -4.0028   -0.2709 C.ar    1  LIG1        0.1162
     29 N          -7.2968   -4.6706   -0.3821 N.ar    1  LIG1       -0.2088
     30 H          -7.2998   -0.8653    0.0757 H       1  LIG1        0.0663
     31 O          -5.0505   -4.7890   -0.4762 O.3     1  LIG1       -0.4919
     32 H          -4.2625   -4.1870   -0.3855 H       1  LIG1        0.2937
     33 O          -9.6143   -1.8991    0.1213 O.3     1  LIG1       -0.5046
     34 H         -10.3158   -2.4917    0.4211 H       1  LIG1        0.2922
     35 C         -10.8707   -4.3405   -0.8986 C.ar    1  LIG1       -0.0522
     36 C         -12.0154   -5.1257   -0.8707 C.ar    1  LIG1       -0.0577
     37 C          -9.7002   -4.8104   -0.2820 C.ar    1  LIG1        0.0075
     38 C         -12.0200   -6.3704   -0.2424 C.ar    1  LIG1       -0.0199
     39 H         -12.9187   -4.7745   -1.3526 H       1  LIG1        0.0619
     40 C          -9.6869   -6.0602    0.3235 C.ar    1  LIG1       -0.0107
     41 C         -10.8454   -6.8388    0.3498 C.ar    1  LIG1        0.1207
     42 H          -8.7783   -6.4413    0.7702 H       1  LIG1        0.0661
     43 H         -12.9258   -6.9597   -0.2312 H       1  LIG1        0.0654
     44 H         -10.8685   -3.3952   -1.4270 H       1  LIG1        0.0624
     45 O         -10.7388   -8.0356    0.9785 O.3     1  LIG1       -0.4951
     46 C         -11.8876   -8.8558    1.0512 C.3     1  LIG1        0.0788
     47 H         -11.5818   -9.7481    1.5901 H       1  LIG1        0.0660
     48 H         -12.6899   -8.3512    1.5961 H       1  LIG1        0.0660
     49 H         -12.2332   -9.1305    0.0511 H       1  LIG1        0.0660
@<TRIPOS>BOND
     1     6     5    1
     2    44    35    1
     3    39    36    1
     4     7     1    1
     5     5     1   ar
     6     5     4   ar
     7    35    36   ar
     8    35    37   ar
     9    36    38   ar
    10     1     2   ar
    11    31    32    1
    12    31    24    1
    13    21    17    1
    14    23    18    1
    15    17    18   ar
    16    17    16   ar
    17    29    24   ar
    18    29    28   ar
    19    24    25   ar
    20    18    19   ar
    21     4    16    1
    22     4     3   ar
    23    16    15   ar
    24    19    20   ar
    25    19    25    1
    26    37    28    1
    27    37    40   ar
    28    28    27   ar
    29    15    20   ar
    30    15    22    1
    31    25    26   ar
    32    38    43    1
    33    38    41   ar
    34    26    27   ar
    35    26    30    1
    36    27    33    1
    37     2     3   ar
    38     2     8    1
    39    49    46    1
    40    33    34    1
    41    10     8    1
    42     9     8    1
    43     3    11    1
    44    40    41   ar
    45    40    42    1
    46    41    45    1
    47    13    11    1
    48    45    46    1
    49    46    47    1
    50    46    48    1
    51    11    12    1
    52    11    14    1
