@<TRIPOS>MOLECULE
mol_data/opt/m06hf/geoms/mol2/13hi13hi-.out
 28 29 0 0 0
SMALL
GASTEIGER

@<TRIPOS>ATOM
      1 C           1.1465   -0.2871   -0.2146 C.ar    1  LIG1        0.0233
      2 C           0.7865    1.0389   -0.0906 C.ar    1  LIG1        0.0457
      3 C          -0.6347    1.0967   -0.0082 C.ar    1  LIG1       -0.0031
      4 C          -1.0800   -0.2099   -0.0936 C.ar    1  LIG1        0.0694
      5 N           0.0062   -1.0273   -0.2086 N.ar    1  LIG1       -0.3576
      6 H          -0.1099   -2.0358   -0.2579 H       1  LIG1        0.1654
      7 H           2.1192   -0.7407   -0.2990 H       1  LIG1        0.0826
      8 N           1.6259    2.1918   -0.0218 N.pl3   1  LIG1       -0.3566
      9 H           2.4800    1.9973    0.4888 H       1  LIG1        0.1424
     10 H           1.8756    2.5255   -0.9477 H       1  LIG1        0.1424
     11 C          -1.4294    2.3647    0.1725 C.3     1  LIG1       -0.0359
     12 H          -2.0880    2.2997    1.0432 H       1  LIG1        0.0279
     13 H          -2.0283    2.6025   -0.7118 H       1  LIG1        0.0279
     14 H          -0.7248    3.1796    0.3390 H       1  LIG1        0.0279
     15 C          -2.4158   -0.7971   -0.0721 C.ar    1  LIG1        0.0844
     16 C          -2.7908   -2.1250   -0.1014 C.ar    1  LIG1        0.0546
     17 C          -4.2180   -2.1832   -0.0645 C.ar    1  LIG1       -0.0118
     18 C          -4.6545   -0.8833   -0.0163 C.ar    1  LIG1        0.0069
     19 N          -3.5622   -0.0589   -0.0203 N.ar    1  LIG1       -0.3578
     20 H          -3.5880    0.9473   -0.0097 H       1  LIG1        0.1654
     21 H          -5.6545   -0.4863    0.0201 H       1  LIG1        0.0810
     22 N          -1.8599   -3.2161   -0.1630 N.pl3   1  LIG1       -0.3561
     23 H          -1.9486   -3.8101    0.6576 H       1  LIG1        0.1424
     24 H          -2.0404   -3.7935   -0.9803 H       1  LIG1        0.1424
     25 C          -5.0531   -3.4383   -0.0753 C.3     1  LIG1       -0.0365
     26 H          -4.8283   -4.0632    0.7918 H       1  LIG1        0.0279
     27 H          -4.8616   -4.0260   -0.9760 H       1  LIG1        0.0279
     28 H          -6.1134   -3.1881   -0.0505 H       1  LIG1        0.0279
@<TRIPOS>BOND
     1    24    22    1
     2    27    25    1
     3    10     8    1
     4    13    11    1
     5     7     1    1
     6     6     5    1
     7     1     5   ar
     8     1     2   ar
     9     5     4   ar
    10    22    16    1
    11    22    23    1
    12    16    15   ar
    13    16    17   ar
    14     4    15    1
    15     4     3   ar
    16     2     8    1
    17     2     3   ar
    18    25    17    1
    19    25    28    1
    20    25    26    1
    21    15    19   ar
    22    17    18   ar
    23     8     9    1
    24    19    18   ar
    25    19    20    1
    26    18    21    1
    27     3    11    1
    28    11    14    1
    29    11    12    1
