@<TRIPOS>MOLECULE
mol_data/opt/m06hf/geoms/mol2/13hi13hi-13hi-13hi.out
 54 57 0 0 0
SMALL
GASTEIGER

@<TRIPOS>ATOM
      1 C           1.3366   -0.5450   -0.4254 C.ar    1  LIG1        0.0233
      2 C           1.0142    0.6920   -0.9447 C.ar    1  LIG1        0.0457
      3 C          -0.4030    0.8298   -0.8897 C.ar    1  LIG1       -0.0031
      4 C          -0.8833   -0.3444   -0.3388 C.ar    1  LIG1        0.0695
      5 N           0.1781   -1.1542   -0.0577 N.ar    1  LIG1       -0.3576
      6 H           0.0358   -2.0600    0.3794 H       1  LIG1        0.1654
      7 H           2.2946   -1.0173   -0.2897 H       1  LIG1        0.0826
      8 N           1.8850    1.7098   -1.4392 N.pl3   1  LIG1       -0.3566
      9 H           2.7497    1.7453   -0.9112 H       1  LIG1        0.1424
     10 H           2.1139    1.5590   -2.4169 H       1  LIG1        0.1424
     11 C          -1.1630    2.0553   -1.3288 C.3     1  LIG1       -0.0359
     12 H          -1.8254    2.4151   -0.5367 H       1  LIG1        0.0279
     13 H          -1.7550    1.8694   -2.2300 H       1  LIG1        0.0279
     14 H          -0.4367    2.8372   -1.5514 H       1  LIG1        0.0279
     15 C          -2.2347   -0.8003   -0.0347 C.ar    1  LIG1        0.0849
     16 C          -2.6513   -1.9628    0.5834 C.ar    1  LIG1        0.0552
     17 C          -4.0763   -1.9447    0.6520 C.ar    1  LIG1       -0.0024
     18 C          -4.4802   -0.7674    0.0553 C.ar    1  LIG1        0.0699
     19 N          -3.3555   -0.0899   -0.3480 N.ar    1  LIG1       -0.3501
     20 H          -3.3696    0.7673   -0.8775 H       1  LIG1        0.1661
     21 N          -1.7523   -2.9688    1.0732 N.pl3   1  LIG1       -0.3561
     22 H          -1.8226   -3.0491    2.0853 H       1  LIG1        0.1424
     23 H          -1.9861   -3.8770    0.6799 H       1  LIG1        0.1424
     24 C          -4.9532   -2.9765    1.3159 C.3     1  LIG1       -0.0359
     25 H          -4.6186   -3.1556    2.3403 H       1  LIG1        0.0279
     26 H          -4.9242   -3.9304    0.7822 H       1  LIG1        0.0279
     27 H          -5.9862   -2.6275    1.3401 H       1  LIG1        0.0279
     28 C          -5.8194   -0.2275   -0.1677 C.ar    1  LIG1        0.0849
     29 C          -6.9309   -0.8348   -0.7214 C.ar    1  LIG1        0.0552
     30 C          -7.9952    0.1088   -0.7171 C.ar    1  LIG1       -0.0024
     31 C          -7.4735    1.2749   -0.1781 C.ar    1  LIG1        0.0699
     32 N          -6.1740    1.0566    0.1535 N.ar    1  LIG1       -0.3501
     33 H          -5.6325    1.7602    0.6490 H       1  LIG1        0.1661
     34 N          -7.0226   -2.1681   -1.1889 N.pl3   1  LIG1       -0.3561
     35 H          -7.3503   -2.1963   -2.1495 H       1  LIG1        0.1424
     36 H          -6.1111   -2.6155   -1.1456 H       1  LIG1        0.1424
     37 C          -9.4028   -0.1681   -1.1841 C.3     1  LIG1       -0.0359
     38 H          -9.5340   -1.2462   -1.2845 H       1  LIG1        0.0279
     39 H          -9.6187    0.2938   -2.1522 H       1  LIG1        0.0279
     40 H         -10.1342    0.1821   -0.4509 H       1  LIG1        0.0279
     41 C          -8.0620    2.5861    0.0729 C.ar    1  LIG1        0.0844
     42 C          -7.5164    3.6780    0.7177 C.ar    1  LIG1        0.0546
     43 C          -8.4792    4.7324    0.6947 C.ar    1  LIG1       -0.0118
     44 C          -9.5750    4.2382    0.0325 C.ar    1  LIG1        0.0069
     45 N          -9.3136    2.9465   -0.3359 N.ar    1  LIG1       -0.3578
     46 H          -9.9347    2.3496   -0.8558 H       1  LIG1        0.1654
     47 H         -10.5143    4.7087   -0.2033 H       1  LIG1        0.0810
     48 N          -6.2005    3.6888    1.2895 N.pl3   1  LIG1       -0.3561
     49 H          -5.6578    4.4674    0.9255 H       1  LIG1        0.1424
     50 H          -6.2464    3.7929    2.3006 H       1  LIG1        0.1424
     51 C          -8.3026    6.1066    1.2887 C.3     1  LIG1       -0.0365
     52 H          -9.2050    6.7000    1.1439 H       1  LIG1        0.0279
     53 H          -7.4691    6.6320    0.8172 H       1  LIG1        0.0279
     54 H          -8.1012    6.0435    2.3601 H       1  LIG1        0.0279
@<TRIPOS>BOND
     1    10     8    1
     2    13    11    1
     3    39    37    1
     4    35    34    1
     5    14    11    1
     6     8     2    1
     7     8     9    1
     8    11     3    1
     9    11    12    1
    10    38    37    1
    11    34    36    1
    12    34    29    1
    13    37    30    1
    14    37    40    1
    15     2     3   ar
    16     2     1   ar
    17     3     4   ar
    18    20    19    1
    19    46    45    1
    20    29    30   ar
    21    29    28   ar
    22    30    31   ar
    23     1     7    1
    24     1     5   ar
    25    19    15   ar
    26    19    18   ar
    27     4     5   ar
    28     4    15    1
    29    45    44   ar
    30    45    41   ar
    31    47    44    1
    32    31    41    1
    33    31    32   ar
    34    28    18    1
    35    28    32   ar
    36     5     6    1
    37    15    16   ar
    38    44    43   ar
    39    18    17   ar
    40    41    42   ar
    41    32    33    1
    42    16    17   ar
    43    16    21    1
    44    17    24    1
    45    23    21    1
    46    43    42   ar
    47    43    51    1
    48    42    48    1
    49    26    24    1
    50    53    51    1
    51    49    48    1
    52    21    22    1
    53    52    51    1
    54    51    54    1
    55    48    50    1
    56    24    27    1
    57    24    25    1
