@<TRIPOS>MOLECULE
mol_data/opt/m06hf/geoms/mol2/13hi13hi13hi-13hi-.out
 54 57 0 0 0
SMALL
GASTEIGER

@<TRIPOS>ATOM
      1 C           1.0958   -0.0233   -1.2966 C.ar    1  LIG1        0.0233
      2 C           0.8849    1.0165   -0.4245 C.ar    1  LIG1        0.0457
      3 C          -0.4546    0.9142    0.0621 C.ar    1  LIG1       -0.0031
      4 C          -1.0114   -0.1926   -0.5479 C.ar    1  LIG1        0.0695
      5 N          -0.0615   -0.7572   -1.3534 N.ar    1  LIG1       -0.3576
      6 H          -0.2365   -1.5364   -1.9661 H       1  LIG1        0.1654
      7 H           1.9708   -0.2995   -1.8590 H       1  LIG1        0.0826
      8 N           1.8103    1.9883    0.0275 N.pl3   1  LIG1       -0.3566
      9 H           2.7017    1.9160   -0.4486 H       1  LIG1        0.1424
     10 H           1.4483    2.9290   -0.0898 H       1  LIG1        0.1424
     11 C          -1.0787    1.7940    1.1148 C.3     1  LIG1       -0.0359
     12 H          -2.0114    1.3501    1.4647 H       1  LIG1        0.0279
     13 H          -1.3001    2.7944    0.7311 H       1  LIG1        0.0279
     14 H          -0.3891    1.9011    1.9540 H       1  LIG1        0.0279
     15 C          -2.3581   -0.7504   -0.4329 C.ar    1  LIG1        0.0849
     16 C          -3.5797   -0.1122   -0.5389 C.ar    1  LIG1        0.0552
     17 C          -4.6013   -1.0825   -0.3426 C.ar    1  LIG1       -0.0024
     18 C          -3.9510   -2.2911   -0.1462 C.ar    1  LIG1        0.0699
     19 N          -2.6089   -2.0756   -0.1957 N.ar    1  LIG1       -0.3501
     20 H          -1.9497   -2.8137    0.0363 H       1  LIG1        0.1661
     21 N          -3.8010    1.2674   -0.7690 N.pl3   1  LIG1       -0.3561
     22 H          -2.9137    1.7471   -0.8890 H       1  LIG1        0.1424
     23 H          -4.3630    1.4131   -1.6023 H       1  LIG1        0.1424
     24 C          -6.0800   -0.7852   -0.3164 C.3     1  LIG1       -0.0359
     25 H          -6.5661   -1.2981    0.5173 H       1  LIG1        0.0279
     26 H          -6.5800   -1.0679   -1.2477 H       1  LIG1        0.0279
     27 H          -6.2159    0.2870   -0.1688 H       1  LIG1        0.0279
     28 C          -4.4507   -3.6373    0.1055 C.ar    1  LIG1        0.0849
     29 C          -3.7530   -4.7813    0.4408 C.ar    1  LIG1        0.0552
     30 C          -4.6890   -5.8496    0.5784 C.ar    1  LIG1       -0.0024
     31 C          -5.9321   -5.3160    0.3070 C.ar    1  LIG1        0.0699
     32 N          -5.7696   -3.9796    0.0299 N.ar    1  LIG1       -0.3501
     33 H          -6.5023   -3.3801   -0.3143 H       1  LIG1        0.1661
     34 N          -2.3312   -4.8179    0.6276 N.pl3   1  LIG1       -0.3561
     35 H          -2.0999   -4.9878    1.6039 H       1  LIG1        0.1424
     36 H          -1.9203   -5.5714    0.0824 H       1  LIG1        0.1424
     37 C          -4.3837   -7.2656    0.9975 C.3     1  LIG1       -0.0359
     38 H          -3.7868   -7.2697    1.9120 H       1  LIG1        0.0279
     39 H          -3.8231   -7.7983    0.2248 H       1  LIG1        0.0279
     40 H          -5.3134   -7.8056    1.1774 H       1  LIG1        0.0279
     41 C          -7.2470   -5.9531    0.2877 C.ar    1  LIG1        0.0844
     42 C          -7.6592   -7.0968   -0.3599 C.ar    1  LIG1        0.0546
     43 C          -9.0394   -7.2997   -0.0550 C.ar    1  LIG1       -0.0118
     44 C          -9.4134   -6.2608    0.7644 C.ar    1  LIG1        0.0069
     45 N          -8.3370   -5.4524    0.9674 N.ar    1  LIG1       -0.3578
     46 H          -8.2898   -4.6840    1.6158 H       1  LIG1        0.1654
     47 H         -10.3678   -6.0516    1.2176 H       1  LIG1        0.0810
     48 N          -6.8622   -7.9496   -1.1514 N.pl3   1  LIG1       -0.3561
     49 H          -7.3417   -8.2324   -1.9994 H       1  LIG1        0.1424
     50 H          -5.9831   -7.5023   -1.3919 H       1  LIG1        0.1424
     51 C          -9.8891   -8.4414   -0.5509 C.3     1  LIG1       -0.0365
     52 H          -9.3983   -9.3931   -0.3397 H       1  LIG1        0.0279
     53 H         -10.0552   -8.3742   -1.6291 H       1  LIG1        0.0279
     54 H         -10.8610   -8.4320   -0.0574 H       1  LIG1        0.0279
@<TRIPOS>BOND
     1    49    48    1
     2     6     5    1
     3     7     1    1
     4    53    51    1
     5    23    21    1
     6    50    48    1
     7     5     1   ar
     8     5     4   ar
     9     1     2   ar
    10    26    24    1
    11    48    42    1
    12    22    21    1
    13    21    16    1
    14    51    52    1
    15    51    54    1
    16    51    43    1
    17     4    15    1
    18     4     3   ar
    19    16    15   ar
    20    16    17   ar
    21     9     8    1
    22    15    19   ar
    23     2     8    1
    24     2     3   ar
    25    42    43   ar
    26    42    41   ar
    27    17    24    1
    28    17    18   ar
    29    24    27    1
    30    24    25    1
    31    33    32    1
    32    19    18   ar
    33    19    20    1
    34    18    28    1
    35    10     8    1
    36    43    44   ar
    37    32    28   ar
    38    32    31   ar
    39     3    11    1
    40    36    34    1
    41    28    29   ar
    42    39    37    1
    43    41    31    1
    44    41    45   ar
    45    31    30   ar
    46    29    30   ar
    47    29    34    1
    48    30    37    1
    49    34    35    1
    50    13    11    1
    51    44    45   ar
    52    44    47    1
    53    45    46    1
    54    37    40    1
    55    37    38    1
    56    11    12    1
    57    11    14    1
