@<TRIPOS>MOLECULE
mol_data/opt/m06hf/geoms/mol2/13hi12ff-13le4lf.out
 51 54 0 0 0
SMALL
GASTEIGER

@<TRIPOS>ATOM
      1 C           1.0874    0.2234    1.2782 C.ar    1  LIG1        0.0242
      2 C           0.9365    1.1054    0.2382 C.ar    1  LIG1        0.0583
      3 C          -0.3991    0.9486   -0.2538 C.ar    1  LIG1        0.0706
      4 C          -1.0114   -0.0335    0.5104 C.ar    1  LIG1        0.0674
      5 N          -0.0932   -0.4659    1.4126 N.ar    1  LIG1       -0.3579
      6 H          -0.3028   -1.1269    2.1431 H       1  LIG1        0.1654
      7 H           1.9254    0.0512    1.9294 H       1  LIG1        0.0826
      8 N           1.8865    2.0240   -0.2528 N.pl3   1  LIG1       -0.3559
      9 H           2.7472    1.5714   -0.5368 H       1  LIG1        0.1424
     10 H           1.5032    2.5418   -1.0364 H       1  LIG1        0.1424
     11 C          -0.9343    1.6571   -1.3754 C.1     1  LIG1       -0.0657
     12 C          -1.3181    2.2746   -2.3354 C.1     1  LIG1       -0.1138
     13 H          -1.6674    2.8109   -3.1862 H       1  LIG1        0.1232
     14 C          -3.4962    0.1505    0.2787 C.ar    1  LIG1        0.1298
     15 C          -4.7523   -0.4382    0.1686 C.ar    1  LIG1       -0.0115
     16 C          -2.3484   -0.6485    0.4240 C.ar    1  LIG1        0.0412
     17 C          -4.8872   -1.8299    0.2279 C.ar    1  LIG1       -0.0109
     18 H          -5.6385    0.1695    0.0599 H       1  LIG1        0.0660
     19 C          -2.4990   -2.0315    0.4893 C.ar    1  LIG1       -0.0485
     20 C          -3.7548   -2.6242    0.4031 C.ar    1  LIG1       -0.0531
     21 H          -1.6146   -2.6503    0.5814 H       1  LIG1        0.0625
     22 O          -3.2959    1.4867    0.2746 O.3     1  LIG1       -0.4944
     23 C          -4.3325    2.3204   -0.2021 C.3     1  LIG1        0.0788
     24 H          -3.8955    3.3123   -0.2799 H       1  LIG1        0.0660
     25 H          -4.6690    1.9837   -1.1860 H       1  LIG1        0.0660
     26 H          -5.1736    2.3361    0.4956 H       1  LIG1        0.0660
     27 H          -3.8560   -3.6991    0.4765 H       1  LIG1        0.0624
     28 C          -7.3684   -1.9831    0.7221 C.ar    1  LIG1        0.1253
     29 C          -8.5808   -2.6304    0.5637 C.ar    1  LIG1       -0.0070
     30 C          -6.2253   -2.4726    0.0743 C.ar    1  LIG1        0.0254
     31 C          -8.7039   -3.7830   -0.2239 C.ar    1  LIG1        0.0450
     32 H          -9.4635   -2.2480    1.0644 H       1  LIG1        0.0662
     33 C          -6.3594   -3.6082   -0.7167 C.ar    1  LIG1       -0.0291
     34 C          -7.5713   -4.2882   -0.8866 C.ar    1  LIG1        0.0363
     35 H          -5.4835   -3.9791   -1.2370 H       1  LIG1        0.0643
     36 O          -7.2525   -0.8619    1.5013 O.3     1  LIG1       -0.5061
     37 H          -8.0544   -0.7441    2.0209 H       1  LIG1        0.2922
     38 N          -7.5910   -5.4565   -1.6510 N.pl3   1  LIG1       -0.3574
     39 H          -8.4864   -5.7094   -2.0395 H       1  LIG1        0.1423
     40 H          -6.8358   -5.5214   -2.3179 H       1  LIG1        0.1423
     41 C         -10.0377   -4.3893   -0.3015 C.ar    1  LIG1        0.1798
     42 C         -11.1843   -4.1581    0.3945 C.ar    1  LIG1        0.1838
     43 C         -12.1939   -5.0369   -0.1238 C.ar    1  LIG1        0.1056
     44 C         -11.5924   -5.7494   -1.1072 C.ar    1  LIG1        0.1169
     45 O         -10.3066   -5.3681   -1.2221 O.2     1  LIG1       -0.4572
     46 H         -11.9331   -6.5222   -1.7738 H       1  LIG1        0.1050
     47 O         -11.4308   -3.2837    1.3966 O.3     1  LIG1       -0.5020
     48 H         -12.3597   -3.4254    1.6431 H       1  LIG1        0.2924
     49 N         -13.5062   -5.0152    0.4264 N.pl3   1  LIG1       -0.3527
     50 H         -14.2061   -4.7464   -0.2565 H       1  LIG1        0.1425
     51 H         -13.7660   -5.9041    0.8404 H       1  LIG1        0.1425
@<TRIPOS>BOND
     1    13    12    1
     2    12    11    3
     3    40    38    1
     4    39    38    1
     5    46    44    1
     6    38    34    1
     7    11     3    1
     8    35    33    1
     9    45    44   ar
    10    45    41   ar
    11    25    23    1
    12    44    43   ar
    13    10     8    1
    14    34    33   ar
    15    34    31   ar
    16    33    30   ar
    17     9     8    1
    18    41    31    1
    19    41    42   ar
    20    24    23    1
    21    50    49    1
    22     3     2   ar
    23     3     4   ar
    24     8     2    1
    25    31    29   ar
    26    23    22    1
    27    23    26    1
    28    43    42   ar
    29    43    49    1
    30    18    15    1
    31    30    17    1
    32    30    28   ar
    33    15    17   ar
    34    15    14   ar
    35    17    20   ar
    36     2     1   ar
    37    22    14    1
    38    14    16   ar
    39    42    47    1
    40    20    27    1
    41    20    19   ar
    42    16    19   ar
    43    16     4    1
    44    49    51    1
    45    19    21    1
    46     4     5   ar
    47    29    28   ar
    48    29    32    1
    49    28    36    1
    50     1     5   ar
    51     1     7    1
    52    47    48    1
    53     5     6    1
    54    36    37    1
