@<TRIPOS>MOLECULE
mol_data/opt/m06hf/geoms/mol2/13hi13hi-4hi13hi.out
 56 59 0 0 0
SMALL
GASTEIGER

@<TRIPOS>ATOM
      1 C           1.3674   -0.4096    0.0712 C.ar    1  LIG1        0.0233
      2 C           1.0139    0.8355    0.5510 C.ar    1  LIG1        0.0457
      3 C          -0.4085    0.9146    0.5464 C.ar    1  LIG1       -0.0031
      4 C          -0.8595   -0.2974    0.0559 C.ar    1  LIG1        0.0694
      5 N           0.2226   -1.0828   -0.2174 N.ar    1  LIG1       -0.3576
      6 H           0.1013   -2.0215   -0.5856 H       1  LIG1        0.1654
      7 H           2.3386   -0.8503   -0.0766 H       1  LIG1        0.0826
      8 N           1.8612    1.8945    1.0012 N.pl3   1  LIG1       -0.3566
      9 H           2.6184    1.5430    1.5767 H       1  LIG1        0.1424
     10 H           2.2630    2.4047    0.2211 H       1  LIG1        0.1424
     11 C          -1.2087    2.1012    1.0195 C.3     1  LIG1       -0.0359
     12 H          -1.8126    2.5347    0.2164 H       1  LIG1        0.0279
     13 H          -0.5090    2.8572    1.3754 H       1  LIG1        0.0279
     14 H          -1.8692    1.8291    1.8474 H       1  LIG1        0.0279
     15 C          -2.2028   -0.8056   -0.1935 C.ar    1  LIG1        0.0848
     16 C          -2.6045   -2.0306   -0.6935 C.ar    1  LIG1        0.0552
     17 C          -4.0276   -2.0308   -0.7775 C.ar    1  LIG1       -0.0038
     18 C          -4.4468   -0.7961   -0.3179 C.ar    1  LIG1        0.0535
     19 N          -3.3289   -0.0744    0.0229 N.ar    1  LIG1       -0.3513
     20 H          -3.3656    0.8666    0.3897 H       1  LIG1        0.1660
     21 N          -1.6900   -3.0715   -1.0665 N.pl3   1  LIG1       -0.3561
     22 H          -1.8749   -3.9202   -0.5380 H       1  LIG1        0.1424
     23 H          -1.7816   -3.2980   -2.0538 H       1  LIG1        0.1424
     24 C          -4.8766   -3.1581   -1.3090 C.3     1  LIG1       -0.0359
     25 H          -5.0292   -3.9348   -0.5551 H       1  LIG1        0.0279
     26 H          -4.3909   -3.6186   -2.1718 H       1  LIG1        0.0279
     27 H          -5.8512   -2.7834   -1.6220 H       1  LIG1        0.0279
     28 C          -6.0693    1.1117   -0.4741 C.ar    1  LIG1        0.0344
     29 C          -7.3527    1.6115   -0.2652 C.ar    1  LIG1       -0.0310
     30 C          -5.7997   -0.2310   -0.1464 C.ar    1  LIG1        0.0195
     31 C          -8.3817    0.8074    0.2355 C.ar    1  LIG1        0.0048
     32 H          -7.5683    2.6518   -0.4861 H       1  LIG1        0.0643
     33 C          -6.8356   -1.0190    0.3564 C.ar    1  LIG1       -0.0473
     34 C          -8.1305   -0.5404    0.5415 C.ar    1  LIG1       -0.0406
     35 H          -6.6090   -2.0454    0.6220 H       1  LIG1        0.0627
     36 N          -5.0410    1.9480   -0.9464 N.pl3   1  LIG1       -0.3574
     37 H          -4.4047    1.4795   -1.5834 H       1  LIG1        0.1423
     38 H          -5.3809    2.8179   -1.3356 H       1  LIG1        0.1423
     39 C          -9.2189   -1.4733    1.0446 C.3     1  LIG1       -0.0391
     40 H          -8.9704   -2.5024    0.7858 H       1  LIG1        0.0278
     41 H         -10.1783   -1.2146    0.5953 H       1  LIG1        0.0278
     42 H          -9.3211   -1.4209    2.1321 H       1  LIG1        0.0278
     43 C          -9.7147    1.4227    0.3858 C.ar    1  LIG1        0.0680
     44 C         -10.4011    2.2367   -0.4920 C.ar    1  LIG1        0.0531
     45 C         -11.6324    2.6119    0.1250 C.ar    1  LIG1       -0.0119
     46 C         -11.6437    2.0131    1.3627 C.ar    1  LIG1        0.0069
     47 N         -10.4981    1.2958    1.5114 N.ar    1  LIG1       -0.3589
     48 H         -10.2027    0.8298    2.3525 H       1  LIG1        0.1654
     49 H         -12.3870    2.0554    2.1410 H       1  LIG1        0.0810
     50 N          -9.9686    2.6688   -1.7652 N.pl3   1  LIG1       -0.3561
     51 H          -9.2565    2.0524   -2.1436 H       1  LIG1        0.1424
     52 H         -10.7421    2.7280   -2.4186 H       1  LIG1        0.1424
     53 C         -12.6875    3.4989   -0.4841 C.3     1  LIG1       -0.0365
     54 H         -13.4818    3.6911    0.2372 H       1  LIG1        0.0279
     55 H         -13.1369    3.0335   -1.3654 H       1  LIG1        0.0279
     56 H         -12.2530    4.4536   -0.7862 H       1  LIG1        0.0279
@<TRIPOS>BOND
     1    52    50    1
     2    26    24    1
     3    51    50    1
     4    23    21    1
     5    50    44    1
     6    27    24    1
     7    37    36    1
     8    55    53    1
     9    38    36    1
    10    24    17    1
    11    24    25    1
    12    21    16    1
    13    21    22    1
    14    36    28    1
    15    56    53    1
    16    17    16   ar
    17    17    18   ar
    18    16    15   ar
    19     6     5    1
    20    44    45   ar
    21    44    43   ar
    22    32    29    1
    23    53    45    1
    24    53    54    1
    25    28    29   ar
    26    28    30   ar
    27    18    30    1
    28    18    19   ar
    29    29    31   ar
    30     5     4   ar
    31     5     1   ar
    32    15    19   ar
    33    15     4    1
    34    30    33   ar
    35     7     1    1
    36    19    20    1
    37     4     3   ar
    38     1     2   ar
    39    45    46   ar
    40    12    11    1
    41    10     8    1
    42    31    43    1
    43    31    34   ar
    44    33    34   ar
    45    33    35    1
    46    43    47   ar
    47    34    39    1
    48     3     2   ar
    49     3    11    1
    50     2     8    1
    51    41    39    1
    52    40    39    1
    53     8     9    1
    54    11    13    1
    55    11    14    1
    56    39    42    1
    57    46    47   ar
    58    46    49    1
    59    47    48    1
