@<TRIPOS>MOLECULE
mol_data/opt/m06hf/geoms/mol2/13hi13hi13hi13hi-.out
 54 57 0 0 0
SMALL
GASTEIGER

@<TRIPOS>ATOM
      1 C           0.3191    0.7341   -2.3826 C.ar    1  LIG1        0.0233
      2 C           0.5955    1.2850   -1.1551 C.ar    1  LIG1        0.0457
      3 C          -0.4072    0.8390   -0.2402 C.ar    1  LIG1       -0.0031
      4 C          -1.2648    0.0306   -0.9587 C.ar    1  LIG1        0.0695
      5 N          -0.8074   -0.0372   -2.2471 N.ar    1  LIG1       -0.3576
      6 H          -1.3040   -0.4867   -2.9981 H       1  LIG1        0.1654
      7 H           0.8382    0.8200   -3.3216 H       1  LIG1        0.0826
      8 N           1.7064    2.0769   -0.7790 N.pl3   1  LIG1       -0.3566
      9 H           2.2796    2.3316   -1.5745 H       1  LIG1        0.1424
     10 H           1.4168    2.9203   -0.2954 H       1  LIG1        0.1424
     11 C          -0.4494    1.1315    1.2374 C.3     1  LIG1       -0.0359
     12 H          -1.1810    0.4848    1.7221 H       1  LIG1        0.0279
     13 H          -0.7295    2.1697    1.4368 H       1  LIG1        0.0279
     14 H           0.5374    0.9584    1.6707 H       1  LIG1        0.0279
     15 C          -2.4693   -0.6743   -0.5222 C.ar    1  LIG1        0.0849
     16 C          -3.5716   -0.1870    0.1471 C.ar    1  LIG1        0.0552
     17 C          -4.4779   -1.2691    0.3508 C.ar    1  LIG1       -0.0024
     18 C          -3.8923   -2.3854   -0.2196 C.ar    1  LIG1        0.0699
     19 N          -2.6840   -2.0166   -0.7379 N.ar    1  LIG1       -0.3501
     20 H          -2.0319   -2.6441   -1.1799 H       1  LIG1        0.1661
     21 N          -3.7554    1.1297    0.6173 N.pl3   1  LIG1       -0.3561
     22 H          -3.0597    1.7552    0.2230 H       1  LIG1        0.1424
     23 H          -4.6858    1.4772    0.4098 H       1  LIG1        0.1424
     24 C          -5.7719   -1.2056    1.1217 C.3     1  LIG1       -0.0359
     25 H          -6.1295   -2.2144    1.3319 H       1  LIG1        0.0279
     26 H          -6.5524   -0.6749    0.5683 H       1  LIG1        0.0279
     27 H          -5.6080   -0.6773    2.0628 H       1  LIG1        0.0279
     28 C          -4.3831   -3.7597   -0.3074 C.ar    1  LIG1        0.0849
     29 C          -5.6109   -4.2254   -0.7386 C.ar    1  LIG1        0.0552
     30 C          -5.6032   -5.6445   -0.6373 C.ar    1  LIG1       -0.0024
     31 C          -4.3464   -5.9897   -0.1657 C.ar    1  LIG1        0.0699
     32 N          -3.6292   -4.8518    0.0338 N.ar    1  LIG1       -0.3501
     33 H          -2.7223   -4.8772    0.4924 H       1  LIG1        0.1661
     34 N          -6.7094   -3.4479   -1.1770 N.pl3   1  LIG1       -0.3561
     35 H          -6.4615   -2.4628   -1.1846 H       1  LIG1        0.1424
     36 H          -6.9997   -3.7172   -2.1119 H       1  LIG1        0.1424
     37 C          -6.7782   -6.5383   -0.9478 C.3     1  LIG1       -0.0359
     38 H          -6.8995   -7.3037   -0.1771 H       1  LIG1        0.0279
     39 H          -6.6869   -7.0258   -1.9232 H       1  LIG1        0.0279
     40 H          -7.6844   -5.9311   -0.9539 H       1  LIG1        0.0279
     41 C          -3.7371   -7.2794    0.1416 C.ar    1  LIG1        0.0844
     42 C          -2.5433   -7.5508    0.7789 C.ar    1  LIG1        0.0546
     43 C          -2.3815   -8.9690    0.8299 C.ar    1  LIG1       -0.0118
     44 C          -3.4858   -9.5044    0.2154 C.ar    1  LIG1        0.0069
     45 N          -4.2951   -8.4796   -0.1927 N.ar    1  LIG1       -0.3578
     46 H          -5.1590   -8.5817   -0.6980 H       1  LIG1        0.1654
     47 H          -3.7521  -10.5329    0.0391 H       1  LIG1        0.0810
     48 N          -1.6618   -6.5363    1.2797 N.pl3   1  LIG1       -0.3561
     49 H          -1.6366   -6.5470    2.2969 H       1  LIG1        0.1424
     50 H          -0.7132   -6.6880    0.9475 H       1  LIG1        0.1424
     51 C          -1.2175   -9.7074    1.4408 C.3     1  LIG1       -0.0365
     52 H          -1.1007   -9.4446    2.4941 H       1  LIG1        0.0279
     53 H          -0.2861   -9.4632    0.9249 H       1  LIG1        0.0279
     54 H          -1.3735  -10.7834    1.3707 H       1  LIG1        0.0279
@<TRIPOS>BOND
     1     7     1    1
     2     6     5    1
     3     1     5   ar
     4     1     2   ar
     5     5     4   ar
     6    36    34    1
     7    39    37    1
     8     9     8    1
     9    35    34    1
    10    20    19    1
    11    34    29    1
    12     2     8    1
    13     2     3   ar
    14     4    15    1
    15     4     3   ar
    16    40    37    1
    17    37    30    1
    18    37    38    1
    19     8    10    1
    20    29    30   ar
    21    29    28   ar
    22    19    15   ar
    23    19    18   ar
    24    46    45    1
    25    30    31   ar
    26    15    16   ar
    27    28    18    1
    28    28    32   ar
    29     3    11    1
    30    18    17   ar
    31    45    41   ar
    32    45    44   ar
    33    31    32   ar
    34    31    41    1
    35    32    33    1
    36    47    44    1
    37    41    42   ar
    38    16    17   ar
    39    16    21    1
    40    44    43   ar
    41    22    21    1
    42    17    24    1
    43    23    21    1
    44    26    24    1
    45    42    43   ar
    46    42    48    1
    47    43    51    1
    48    53    51    1
    49    50    48    1
    50    24    25    1
    51    24    27    1
    52    11    13    1
    53    11    14    1
    54    11    12    1
    55    48    49    1
    56    54    51    1
    57    51    52    1
