@<TRIPOS>MOLECULE
mol_data/opt/m06hf/geoms/mol2/13hi13hi13hi-13hi.out
 54 57 0 0 0
SMALL
GASTEIGER

@<TRIPOS>ATOM
      1 C           1.0898    0.1229   -1.2291 C.ar    1  LIG1        0.0233
      2 C           0.8571    1.0824   -0.2739 C.ar    1  LIG1        0.0457
      3 C          -0.4776    0.9080    0.2050 C.ar    1  LIG1       -0.0031
      4 C          -1.0103   -0.1579   -0.4927 C.ar    1  LIG1        0.0695
      5 N          -0.0499   -0.6318   -1.3436 N.ar    1  LIG1       -0.3576
      6 H          -0.2114   -1.3560   -2.0234 H       1  LIG1        0.1654
      7 H           1.9687   -0.0839   -1.8148 H       1  LIG1        0.0826
      8 N           1.7618    2.0353    0.2550 N.pl3   1  LIG1       -0.3566
      9 H           2.6630    2.0018   -0.2067 H       1  LIG1        0.1424
     10 H           1.3911    2.9775    0.1885 H       1  LIG1        0.1424
     11 C          -1.1193    1.6805    1.3289 C.3     1  LIG1       -0.0359
     12 H          -2.0316    1.1766    1.6505 H       1  LIG1        0.0279
     13 H          -1.3812    2.6989    1.0275 H       1  LIG1        0.0279
     14 H          -0.4233    1.7464    2.1671 H       1  LIG1        0.0279
     15 C          -2.3416   -0.7567   -0.4136 C.ar    1  LIG1        0.0849
     16 C          -3.5787   -0.1408   -0.4516 C.ar    1  LIG1        0.0552
     17 C          -4.5757   -1.1470   -0.3199 C.ar    1  LIG1       -0.0024
     18 C          -3.8956   -2.3513   -0.2277 C.ar    1  LIG1        0.0699
     19 N          -2.5596   -2.1028   -0.2788 N.ar    1  LIG1       -0.3501
     20 H          -1.8800   -2.8405   -0.1185 H       1  LIG1        0.1661
     21 N          -3.8288    1.2483   -0.5676 N.pl3   1  LIG1       -0.3561
     22 H          -2.9531    1.7499   -0.6852 H       1  LIG1        0.1424
     23 H          -4.4262    1.4459   -1.3646 H       1  LIG1        0.1424
     24 C          -6.0627   -0.9019   -0.2528 C.3     1  LIG1       -0.0359
     25 H          -6.5125   -1.4629    0.5701 H       1  LIG1        0.0279
     26 H          -6.5717   -1.1801   -1.1800 H       1  LIG1        0.0279
     27 H          -6.2357    0.1588   -0.0668 H       1  LIG1        0.0279
     28 C          -4.3742   -3.7184   -0.0656 C.ar    1  LIG1        0.0849
     29 C          -3.6557   -4.8799    0.1646 C.ar    1  LIG1        0.0552
     30 C          -4.5798   -5.9602    0.2598 C.ar    1  LIG1       -0.0024
     31 C          -5.8346   -5.4051    0.0790 C.ar    1  LIG1        0.0699
     32 N          -5.6872   -4.0623   -0.1150 N.ar    1  LIG1       -0.3501
     33 H          -6.4959   -3.4725   -0.2960 H       1  LIG1        0.1661
     34 N          -2.2268   -4.9133    0.2799 N.pl3   1  LIG1       -0.3561
     35 H          -1.9374   -5.1850    1.2157 H       1  LIG1        0.1424
     36 H          -1.8193   -5.5701   -0.3802 H       1  LIG1        0.1424
     37 C          -4.2289   -7.4056    0.5127 C.3     1  LIG1       -0.0359
     38 H          -3.1455   -7.5104    0.5845 H       1  LIG1        0.0279
     39 H          -4.5691   -8.0503   -0.3026 H       1  LIG1        0.0279
     40 H          -4.6549   -7.7635    1.4541 H       1  LIG1        0.0279
     41 C          -7.1764   -5.9768    0.0665 C.ar    1  LIG1        0.0844
     42 C          -8.3880   -5.3469   -0.1381 C.ar    1  LIG1        0.0546
     43 C          -9.4194   -6.3303   -0.0455 C.ar    1  LIG1       -0.0118
     44 C          -8.7920   -7.5231    0.2125 C.ar    1  LIG1        0.0069
     45 N          -7.4429   -7.2991    0.2764 N.ar    1  LIG1       -0.3578
     46 H          -6.7437   -7.9978    0.4636 H       1  LIG1        0.1654
     47 H          -9.2028   -8.5082    0.3545 H       1  LIG1        0.0810
     48 N          -8.5215   -3.9410   -0.3930 N.pl3   1  LIG1       -0.3561
     49 H          -8.9654   -3.7773   -1.2929 H       1  LIG1        0.1424
     50 H          -9.0951   -3.4970    0.3200 H       1  LIG1        0.1424
     51 C         -10.8980   -6.0813   -0.2034 C.3     1  LIG1       -0.0365
     52 H         -11.4553   -7.0053   -0.0515 H       1  LIG1        0.0279
     53 H         -11.1254   -5.7034   -1.2024 H       1  LIG1        0.0279
     54 H         -11.2477   -5.3467    0.5252 H       1  LIG1        0.0279
@<TRIPOS>BOND
     1     6     5    1
     2     7     1    1
     3    23    21    1
     4     5     1   ar
     5     5     4   ar
     6    49    48    1
     7     1     2   ar
     8    53    51    1
     9    26    24    1
    10    22    21    1
    11    21    16    1
    12     4    15    1
    13     4     3   ar
    14    16    15   ar
    15    16    17   ar
    16    15    19   ar
    17    48    42    1
    18    48    50    1
    19    36    34    1
    20    17    24    1
    21    17    18   ar
    22    39    37    1
    23    33    32    1
    24    19    18   ar
    25    19    20    1
    26     2     3   ar
    27     2     8    1
    28    24    27    1
    29    24    25    1
    30    18    28    1
    31     9     8    1
    32    51    52    1
    33    51    43    1
    34    51    54    1
    35    42    43   ar
    36    42    41   ar
    37    32    28   ar
    38    32    31   ar
    39    28    29   ar
    40    43    44   ar
    41    41    31    1
    42    41    45   ar
    43    31    30   ar
    44    29    30   ar
    45    29    34    1
    46    10     8    1
    47     3    11    1
    48    44    45   ar
    49    44    47    1
    50    30    37    1
    51    45    46    1
    52    34    35    1
    53    37    38    1
    54    37    40    1
    55    13    11    1
    56    11    12    1
    57    11    14    1
