@<TRIPOS>MOLECULE
mol_data/opt/m06hf/geoms/mol2/13hl13hl13hl13hl-.out
 58 61 0 0 0
SMALL
GASTEIGER

@<TRIPOS>ATOM
      1 C           1.4564   -0.1333   -0.2491 C.ar    1  LIG1        0.0267
      2 C           1.1235    1.1573   -0.5713 C.ar    1  LIG1        0.0851
      3 C          -0.3026    1.2151   -0.6228 C.ar    1  LIG1        0.1673
      4 C          -0.7951   -0.0399   -0.3392 C.ar    1  LIG1        0.1089
      5 N           0.2891   -0.8486   -0.1196 N.ar    1  LIG1       -0.3549
      6 H           0.2204   -1.7671    0.2854 H       1  LIG1        0.1655
      7 H           2.4184   -0.5916   -0.1007 H       1  LIG1        0.0827
      8 N           1.9521    2.2792   -0.8009 N.pl3   1  LIG1       -0.3540
      9 H           2.9317    2.0272   -0.8602 H       1  LIG1        0.1425
     10 H           1.6750    2.7583   -1.6521 H       1  LIG1        0.1425
     11 O          -1.0248    2.3377   -0.9359 O.3     1  LIG1       -0.4911
     12 C          -0.9315    3.3389    0.0903 C.3     1  LIG1        0.0790
     13 H          -1.4364    4.2212   -0.3000 H       1  LIG1        0.0660
     14 H          -1.4331    2.9792    0.9899 H       1  LIG1        0.0660
     15 H           0.1173    3.5581    0.2945 H       1  LIG1        0.0660
     16 C          -2.1546   -0.5555   -0.2812 C.ar    1  LIG1        0.0916
     17 C          -3.3481    0.0816   -0.0313 C.ar    1  LIG1        0.0947
     18 C          -4.3564   -0.9254   -0.0521 C.ar    1  LIG1        0.1679
     19 C          -3.7655   -2.1415   -0.3093 C.ar    1  LIG1        0.1094
     20 N          -2.4193   -1.9080   -0.4349 N.ar    1  LIG1       -0.3473
     21 H          -1.8117   -2.5308   -0.9455 H       1  LIG1        0.1662
     22 N          -3.5743    1.4362    0.2500 N.pl3   1  LIG1       -0.3534
     23 H          -3.0509    2.0271   -0.3893 H       1  LIG1        0.1425
     24 H          -4.5673    1.6385    0.2061 H       1  LIG1        0.1425
     25 O          -5.6857   -0.6784    0.1812 O.3     1  LIG1       -0.4911
     26 C          -6.1018   -1.0349    1.5028 C.3     1  LIG1        0.0790
     27 H          -7.1574   -0.7815    1.5719 H       1  LIG1        0.0660
     28 H          -5.9615   -2.1056    1.6573 H       1  LIG1        0.0660
     29 H          -5.5217   -0.4679    2.2330 H       1  LIG1        0.0660
     30 C          -4.3470   -3.4680   -0.4465 C.ar    1  LIG1        0.0917
     31 C          -5.6184   -3.8444   -0.8544 C.ar    1  LIG1        0.0947
     32 C          -5.6350   -5.2660   -0.8338 C.ar    1  LIG1        0.1679
     33 C          -4.3960   -5.7048   -0.4248 C.ar    1  LIG1        0.1094
     34 N          -3.6250   -4.6090   -0.1927 N.ar    1  LIG1       -0.3473
     35 H          -2.7060   -4.6976    0.2278 H       1  LIG1        0.1662
     36 N          -6.7255   -3.0402   -1.1899 N.pl3   1  LIG1       -0.3534
     37 H          -6.5372   -2.0510   -1.0522 H       1  LIG1        0.1425
     38 H          -7.0544   -3.2270   -2.1307 H       1  LIG1        0.1425
     39 O          -6.6877   -6.0840   -1.1606 O.3     1  LIG1       -0.4911
     40 C          -7.7564   -5.9766   -0.2138 C.3     1  LIG1        0.0790
     41 H          -8.5682   -6.5947   -0.5919 H       1  LIG1        0.0660
     42 H          -7.4203   -6.3432    0.7588 H       1  LIG1        0.0660
     43 H          -8.0693   -4.9341   -0.1363 H       1  LIG1        0.0660
     44 C          -3.9087   -7.0544   -0.2166 C.ar    1  LIG1        0.0912
     45 C          -2.7027   -7.4793    0.2949 C.ar    1  LIG1        0.0940
     46 C          -2.7424   -8.9027    0.2937 C.ar    1  LIG1        0.1585
     47 C          -3.9609   -9.2945   -0.2159 C.ar    1  LIG1        0.0463
     48 N          -4.6554   -8.1474   -0.5174 N.ar    1  LIG1       -0.3549
     49 H          -5.5733   -8.0743   -0.9324 H       1  LIG1        0.1655
     50 H          -4.3815  -10.2682   -0.3881 H       1  LIG1        0.0845
     51 N          -1.6499   -6.6137    0.7313 N.pl3   1  LIG1       -0.3535
     52 H          -1.4620   -6.7705    1.7190 H       1  LIG1        0.1425
     53 H          -0.7921   -6.8403    0.2333 H       1  LIG1        0.1425
     54 O          -1.6971   -9.6499    0.7384 O.3     1  LIG1       -0.4918
     55 C          -1.8957  -11.0471    0.6642 C.3     1  LIG1        0.0789
     56 H          -0.9900  -11.5124    1.0445 H       1  LIG1        0.0660
     57 H          -2.7522  -11.3412    1.2778 H       1  LIG1        0.0660
     58 H          -2.0657  -11.3514   -0.3727 H       1  LIG1        0.0660
@<TRIPOS>BOND
     1    38    36    1
     2    10     8    1
     3    36    37    1
     4    36    31    1
     5    39    32    1
     6    39    40    1
     7    21    20    1
     8    11     3    1
     9    11    12    1
    10    49    48    1
    11     9     8    1
    12    31    32   ar
    13    31    30   ar
    14    32    33   ar
    15     8     2    1
    16     3     2   ar
    17     3     4   ar
    18    41    40    1
    19     2     1   ar
    20    48    44   ar
    21    48    47   ar
    22    30    19    1
    23    30    34   ar
    24    20    19   ar
    25    20    16   ar
    26    33    44    1
    27    33    34   ar
    28    23    22    1
    29    50    47    1
    30    58    55    1
    31     4    16    1
    32     4     5   ar
    33    19    18   ar
    34    13    12    1
    35    16    17   ar
    36     1     5   ar
    37     1     7    1
    38    44    45   ar
    39    47    46   ar
    40    40    43    1
    41    40    42    1
    42    34    35    1
    43     5     6    1
    44    18    17   ar
    45    18    25    1
    46    17    22    1
    47    12    15    1
    48    12    14    1
    49    25    26    1
    50    24    22    1
    51    53    51    1
    52    46    45   ar
    53    46    54    1
    54    45    51    1
    55    55    54    1
    56    55    56    1
    57    55    57    1
    58    51    52    1
    59    26    27    1
    60    26    28    1
    61    26    29    1
