@<TRIPOS>MOLECULE
mol_data/opt/m06hf/geoms/mol2/13hl13hl.out
 30 31 0 0 0
SMALL
GASTEIGER

@<TRIPOS>ATOM
      1 C           1.2183   -0.3818    0.5666 C.ar    1  LIG1        0.0267
      2 C           1.0742    0.8467   -0.0251 C.ar    1  LIG1        0.0851
      3 C          -0.2956    0.9589   -0.4137 C.ar    1  LIG1        0.1673
      4 C          -0.9416   -0.2042   -0.0592 C.ar    1  LIG1        0.1089
      5 N          -0.0042   -1.0100    0.5339 N.ar    1  LIG1       -0.3549
      6 H          -0.2364   -1.8385    1.0558 H       1  LIG1        0.1655
      7 H           2.0829   -0.8495    1.0038 H       1  LIG1        0.0827
      8 N           2.0264    1.8714   -0.2307 N.pl3   1  LIG1       -0.3540
      9 H           2.9658    1.5742    0.0043 H       1  LIG1        0.1425
     10 H           2.0050    2.1915   -1.1942 H       1  LIG1        0.1425
     11 O          -0.8389    2.0452   -1.0498 O.3     1  LIG1       -0.4911
     12 C          -0.8686    3.2033   -0.2011 C.3     1  LIG1        0.0790
     13 H          -1.2102    4.0278   -0.8244 H       1  LIG1        0.0660
     14 H          -1.5681    3.0308    0.6188 H       1  LIG1        0.0660
     15 H           0.1322    3.4033    0.1832 H       1  LIG1        0.0660
     16 C          -2.3180   -0.6456   -0.2483 C.ar    1  LIG1        0.0912
     17 C          -3.4878    0.0696   -0.3661 C.ar    1  LIG1        0.0940
     18 C          -4.5393   -0.8882   -0.4858 C.ar    1  LIG1        0.1585
     19 C          -3.9900   -2.1437   -0.4432 C.ar    1  LIG1        0.0463
     20 N          -2.6412   -1.9891   -0.2925 N.ar    1  LIG1       -0.3549
     21 H          -1.9648   -2.7163   -0.4552 H       1  LIG1        0.1655
     22 H          -4.4571   -3.1087   -0.5315 H       1  LIG1        0.0845
     23 N          -3.6720    1.4629   -0.3470 N.pl3   1  LIG1       -0.3535
     24 H          -2.9322    1.9195   -0.8736 H       1  LIG1        0.1425
     25 H          -4.5773    1.6889   -0.7468 H       1  LIG1        0.1425
     26 O          -5.8623   -0.5584   -0.6009 O.3     1  LIG1       -0.4918
     27 C          -6.4643   -0.2669    0.6585 C.3     1  LIG1        0.0789
     28 H          -7.4925    0.0238    0.4521 H       1  LIG1        0.0660
     29 H          -6.4440   -1.1538    1.2948 H       1  LIG1        0.0660
     30 H          -5.9312    0.5484    1.1532 H       1  LIG1        0.0660
@<TRIPOS>BOND
     1    10     8    1
     2    11     3    1
     3    11    12    1
     4    24    23    1
     5    13    12    1
     6    25    23    1
     7    26    18    1
     8    26    27    1
     9    22    19    1
    10    18    19   ar
    11    18    17   ar
    12    21    20    1
    13    19    20   ar
    14     3     4   ar
    15     3     2   ar
    16    17    23    1
    17    17    16   ar
    18    20    16   ar
    19    16     4    1
    20     8     2    1
    21     8     9    1
    22    12    15    1
    23    12    14    1
    24     4     5   ar
    25     2     1   ar
    26    28    27    1
    27     5     1   ar
    28     5     6    1
    29     1     7    1
    30    27    30    1
    31    27    29    1
