@<TRIPOS>MOLECULE
mol_data/opt/m06hf/geoms/mol2/13hl13hl13hl13hl.out
 58 61 0 0 0
SMALL
GASTEIGER

@<TRIPOS>ATOM
      1 C           1.4581   -0.2849    0.0718 C.ar    1  LIG1        0.0267
      2 C           1.1775    1.0230   -0.2291 C.ar    1  LIG1        0.0851
      3 C          -0.2413    1.1218   -0.3582 C.ar    1  LIG1        0.1673
      4 C          -0.7817   -0.1272   -0.1425 C.ar    1  LIG1        0.1089
      5 N           0.2674   -0.9721    0.1115 N.ar    1  LIG1       -0.3549
      6 H           0.1503   -1.8960    0.4918 H       1  LIG1        0.1655
      7 H           2.3984   -0.7726    0.2611 H       1  LIG1        0.0827
      8 N           2.0475    2.1267   -0.3773 N.pl3   1  LIG1       -0.3540
      9 H           3.0220    1.8500   -0.3840 H       1  LIG1        0.1425
     10 H           1.8357    2.6372   -1.2290 H       1  LIG1        0.1425
     11 O          -0.9157    2.2732   -0.6730 O.3     1  LIG1       -0.4911
     12 C          -0.8439    3.2441    0.3835 C.3     1  LIG1        0.0790
     13 H          -1.3067    4.1494   -0.0056 H       1  LIG1        0.0660
     14 H          -1.3959    2.8755    1.2493 H       1  LIG1        0.0660
     15 H           0.1995    3.4284    0.6421 H       1  LIG1        0.0660
     16 C          -2.1546   -0.6076   -0.1793 C.ar    1  LIG1        0.0916
     17 C          -3.3439    0.0547    0.0155 C.ar    1  LIG1        0.0947
     18 C          -4.3762   -0.9229   -0.1031 C.ar    1  LIG1        0.1679
     19 C          -3.8028   -2.1455   -0.3635 C.ar    1  LIG1        0.1094
     20 N          -2.4425   -1.9502   -0.3902 N.ar    1  LIG1       -0.3473
     21 H          -1.8329   -2.5578   -0.9173 H       1  LIG1        0.1662
     22 N          -3.5553    1.4025    0.3294 N.pl3   1  LIG1       -0.3534
     23 H          -2.9632    2.0018   -0.2383 H       1  LIG1        0.1425
     24 H          -4.5353    1.6373    0.2154 H       1  LIG1        0.1425
     25 O          -5.7102   -0.6450    0.0472 O.3     1  LIG1       -0.4911
     26 C          -6.2303   -1.0333    1.3228 C.3     1  LIG1        0.0790
     27 H          -7.2767   -0.7373    1.3307 H       1  LIG1        0.0660
     28 H          -6.1456   -2.1144    1.4420 H       1  LIG1        0.0660
     29 H          -5.6792   -0.5195    2.1123 H       1  LIG1        0.0660
     30 C          -4.4089   -3.4474   -0.5803 C.ar    1  LIG1        0.0917
     31 C          -5.6663   -3.7842   -1.0275 C.ar    1  LIG1        0.0947
     32 C          -5.7196   -5.2157   -1.0552 C.ar    1  LIG1        0.1679
     33 C          -4.5046   -5.7064   -0.6414 C.ar    1  LIG1        0.1094
     34 N          -3.7002   -4.6199   -0.3700 N.ar    1  LIG1       -0.3473
     35 H          -2.9502   -4.6749    0.3033 H       1  LIG1        0.1662
     36 N          -6.7370   -2.9539   -1.3886 N.pl3   1  LIG1       -0.3534
     37 H          -6.5234   -1.9656   -1.2895 H       1  LIG1        0.1425
     38 H          -7.1043   -3.1802   -2.3057 H       1  LIG1        0.1425
     39 O          -6.8047   -5.9408   -1.4692 O.3     1  LIG1       -0.4911
     40 C          -7.9185   -5.7984   -0.5725 C.3     1  LIG1        0.0790
     41 H          -8.7502   -6.3248   -1.0374 H       1  LIG1        0.0660
     42 H          -7.6680   -6.2549    0.3865 H       1  LIG1        0.0660
     43 H          -8.1547   -4.7407   -0.4484 H       1  LIG1        0.0660
     44 C          -4.0075   -7.0641   -0.4792 C.ar    1  LIG1        0.0912
     45 C          -4.6692   -8.2514   -0.2571 C.ar    1  LIG1        0.0940
     46 C          -3.6648   -9.2539   -0.1086 C.ar    1  LIG1        0.1585
     47 C          -2.4356   -8.6613   -0.2478 C.ar    1  LIG1        0.0463
     48 N          -2.6507   -7.3305   -0.4644 N.ar    1  LIG1       -0.3549
     49 H          -1.9610   -6.6891   -0.8192 H       1  LIG1        0.1655
     50 H          -1.4514   -9.0950   -0.2297 H       1  LIG1        0.0845
     51 N          -6.0503   -8.4823   -0.1478 N.pl3   1  LIG1       -0.3535
     52 H          -6.5569   -7.9132   -0.8207 H       1  LIG1        0.1425
     53 H          -6.2431   -9.4670   -0.3019 H       1  LIG1        0.1425
     54 O          -3.9326  -10.5691    0.1554 O.3     1  LIG1       -0.4918
     55 C          -4.2145  -10.7976    1.5348 C.3     1  LIG1        0.0789
     56 H          -4.4602  -11.8529    1.6327 H       1  LIG1        0.0660
     57 H          -3.3366  -10.5580    2.1384 H       1  LIG1        0.0660
     58 H          -5.0569  -10.1804    1.8560 H       1  LIG1        0.0660
@<TRIPOS>BOND
     1    38    36    1
     2    39    32    1
     3    39    40    1
     4    36    37    1
     5    36    31    1
     6    10     8    1
     7    32    31   ar
     8    32    33   ar
     9    41    40    1
    10    31    30   ar
    11    21    20    1
    12    52    51    1
    13    49    48    1
    14    11     3    1
    15    11    12    1
    16    33    44    1
    17    33    34   ar
    18    30    34   ar
    19    30    19    1
    20    40    43    1
    21    40    42    1
    22    44    48   ar
    23    44    45   ar
    24    48    47   ar
    25    20    19   ar
    26    20    16   ar
    27     9     8    1
    28     8     2    1
    29    34    35    1
    30    19    18   ar
    31     3     2   ar
    32     3     4   ar
    33    53    51    1
    34    45    51    1
    35    45    46   ar
    36    47    50    1
    37    47    46   ar
    38    23    22    1
    39     2     1   ar
    40    16     4    1
    41    16    17   ar
    42     4     5   ar
    43    46    54    1
    44    18    17   ar
    45    18    25    1
    46    13    12    1
    47    17    22    1
    48    25    26    1
    49     1     5   ar
    50     1     7    1
    51     5     6    1
    52    54    55    1
    53    24    22    1
    54    12    15    1
    55    12    14    1
    56    26    27    1
    57    26    28    1
    58    26    29    1
    59    55    56    1
    60    55    58    1
    61    55    57    1
