@<TRIPOS>MOLECULE
mol_data/opt/m06hf/geoms/mol2/13hl13hl13hl-13hl.out
 58 61 0 0 0
SMALL
GASTEIGER

@<TRIPOS>ATOM
      1 C           1.4374   -0.3574    0.6170 C.ar    1  LIG1        0.0267
      2 C           1.3077    0.8089   -0.0917 C.ar    1  LIG1        0.0851
      3 C          -0.0520    0.8839   -0.5164 C.ar    1  LIG1        0.1673
      4 C          -0.7123   -0.2386   -0.0626 C.ar    1  LIG1        0.1089
      5 N           0.2124   -0.9809    0.6237 N.ar    1  LIG1       -0.3549
      6 H          -0.0203   -1.7785    1.1910 H       1  LIG1        0.1655
      7 H           2.2912   -0.7831    1.1141 H       1  LIG1        0.0827
      8 N           2.2619    1.8143   -0.3710 N.pl3   1  LIG1       -0.3540
      9 H           3.2019    1.5259   -0.1274 H       1  LIG1        0.1425
     10 H           2.2319    2.0695   -1.3533 H       1  LIG1        0.1425
     11 O          -0.5668    1.9127   -1.2652 O.3     1  LIG1       -0.4911
     12 C          -0.6553    3.1312   -0.5107 C.3     1  LIG1        0.0790
     13 H          -0.9723    3.9012   -1.2120 H       1  LIG1        0.0660
     14 H          -1.3969    3.0113    0.2806 H       1  LIG1        0.0660
     15 H           0.3221    3.3739   -0.0922 H       1  LIG1        0.0660
     16 C          -2.0892   -0.6927   -0.2156 C.ar    1  LIG1        0.0916
     17 C          -3.2479    0.0082   -0.5044 C.ar    1  LIG1        0.0947
     18 C          -4.3104   -0.9315   -0.4475 C.ar    1  LIG1        0.1679
     19 C          -3.7806   -2.1644   -0.1349 C.ar    1  LIG1        0.1094
     20 N          -2.4375   -2.0083   -0.0022 N.ar    1  LIG1       -0.3473
     21 H          -1.8380   -2.8135    0.1371 H       1  LIG1        0.1662
     22 N          -3.4064    1.3814   -0.7665 N.pl3   1  LIG1       -0.3534
     23 H          -2.6081    1.7345   -1.2875 H       1  LIG1        0.1425
     24 H          -4.2620    1.5325   -1.2911 H       1  LIG1        0.1425
     25 O          -5.6403   -0.6589   -0.6486 O.3     1  LIG1       -0.4911
     26 C          -6.2521   -0.0621    0.4971 C.3     1  LIG1        0.0790
     27 H          -7.2868    0.1368    0.2253 H       1  LIG1        0.0660
     28 H          -6.2089   -0.7526    1.3420 H       1  LIG1        0.0660
     29 H          -5.7386    0.8661    0.7546 H       1  LIG1        0.0660
     30 C          -4.4331   -3.4487    0.0221 C.ar    1  LIG1        0.0917
     31 C          -3.8785   -4.6847    0.3037 C.ar    1  LIG1        0.0947
     32 C          -4.9652   -5.5975    0.3914 C.ar    1  LIG1        0.1679
     33 C          -6.1269   -4.8927    0.1581 C.ar    1  LIG1        0.1094
     34 N          -5.7817   -3.5935   -0.0669 N.ar    1  LIG1       -0.3473
     35 H          -6.4586   -2.8760   -0.3204 H       1  LIG1        0.1662
     36 N          -2.4758   -4.9188    0.4776 N.pl3   1  LIG1       -0.3534
     37 H          -2.3107   -5.4143    1.3499 H       1  LIG1        0.1425
     38 H          -2.1099   -5.4962   -0.2754 H       1  LIG1        0.1425
     39 O          -4.9021   -6.9456    0.6604 O.3     1  LIG1       -0.4911
     40 C          -4.6764   -7.7247   -0.5144 C.3     1  LIG1        0.0790
     41 H          -4.6252   -8.7642   -0.1957 H       1  LIG1        0.0660
     42 H          -5.4963   -7.5806   -1.2213 H       1  LIG1        0.0660
     43 H          -3.7357   -7.4344   -0.9862 H       1  LIG1        0.0660
     44 C          -7.5076   -5.3379    0.1633 C.ar    1  LIG1        0.0912
     45 C          -8.6500   -4.6320   -0.1383 C.ar    1  LIG1        0.0940
     46 C          -9.7399   -5.5331    0.0402 C.ar    1  LIG1        0.1585
     47 C          -9.2297   -6.7460    0.4454 C.ar    1  LIG1        0.0463
     48 N          -7.8623   -6.6048    0.5054 N.ar    1  LIG1       -0.3549
     49 H          -7.1930   -7.2778    0.8491 H       1  LIG1        0.1655
     50 H          -9.7106   -7.6755    0.6900 H       1  LIG1        0.0845
     51 N          -8.6745   -3.2598   -0.5356 N.pl3   1  LIG1       -0.3535
     52 H          -9.0003   -3.1731   -1.4951 H       1  LIG1        0.1425
     53 H          -9.3269   -2.7423    0.0479 H       1  LIG1        0.1425
     54 O         -11.0265   -5.1561   -0.1830 O.3     1  LIG1       -0.4918
     55 C         -11.9858   -6.1686    0.0426 C.3     1  LIG1        0.0789
     56 H         -12.9575   -5.7315   -0.1706 H       1  LIG1        0.0660
     57 H         -11.8040   -7.0174   -0.6230 H       1  LIG1        0.0660
     58 H         -11.9469   -6.5034    1.0833 H       1  LIG1        0.0660
@<TRIPOS>BOND
     1    52    51    1
     2    10     8    1
     3    24    22    1
     4    23    22    1
     5    11     3    1
     6    11    12    1
     7    42    40    1
     8    13    12    1
     9    43    40    1
    10    22    17    1
    11    25    18    1
    12    25    26    1
    13    57    55    1
    14    51    45    1
    15    51    53    1
    16     3     2   ar
    17     3     4   ar
    18    40    41    1
    19    40    39    1
    20    12    15    1
    21    12    14    1
    22    17    18   ar
    23    17    16   ar
    24    18    19   ar
    25     8     9    1
    26     8     2    1
    27    35    34    1
    28    38    36    1
    29    16     4    1
    30    16    20   ar
    31    54    46    1
    32    54    55    1
    33    56    55    1
    34    45    46   ar
    35    45    44   ar
    36    19    20   ar
    37    19    30    1
    38     2     1   ar
    39    34    30   ar
    40    34    33   ar
    41     4     5   ar
    42    20    21    1
    43    30    31   ar
    44    46    47   ar
    45    55    58    1
    46    33    44    1
    47    33    32   ar
    48    44    48   ar
    49    27    26    1
    50    31    32   ar
    51    31    36    1
    52    32    39    1
    53    47    48   ar
    54    47    50    1
    55    36    37    1
    56    26    29    1
    57    26    28    1
    58    48    49    1
    59     1     5   ar
    60     1     7    1
    61     5     6    1
