@<TRIPOS>MOLECULE
mol_data/opt/m06hf/geoms/mol2/13hl12ia-13hl-13ae.out
 50 53 0 0 0
SMALL
GASTEIGER

@<TRIPOS>ATOM
      1 C           1.3533   -0.2918    0.2729 C.ar    1  LIG1        0.0268
      2 C           1.0481    1.0321    0.4783 C.ar    1  LIG1        0.0851
      3 C          -0.3701    1.1250    0.5168 C.ar    1  LIG1        0.1688
      4 C          -0.8924   -0.1419    0.3352 C.ar    1  LIG1        0.1264
      5 N           0.1735   -0.9826    0.1891 N.ar    1  LIG1       -0.3537
      6 H           0.0751   -1.9695    0.0181 H       1  LIG1        0.1656
      7 H           2.3044   -0.7848    0.1757 H       1  LIG1        0.0827
      8 N           1.8890    2.1609    0.5775 N.pl3   1  LIG1       -0.3540
      9 H           1.5322    2.8037    1.2774 H       1  LIG1        0.1425
     10 H           2.8461    1.9140    0.7987 H       1  LIG1        0.1425
     11 O          -1.0404    2.3042    0.6974 O.3     1  LIG1       -0.4910
     12 C          -1.1191    3.0672   -0.5098 C.3     1  LIG1        0.0790
     13 H          -1.6398    3.9892   -0.2590 H       1  LIG1        0.0660
     14 H          -0.1129    3.2810   -0.8751 H       1  LIG1        0.0660
     15 H          -1.6797    2.5081   -1.2619 H       1  LIG1        0.0660
     16 C          -2.2470   -0.6834    0.2682 C.ar    1  LIG1        0.1584
     17 C          -3.5107   -0.1937    0.4095 C.ar    1  LIG1       -0.0025
     18 C          -4.3853   -1.3218    0.2010 C.ar    1  LIG1       -0.0108
     19 C          -3.5930   -2.3957   -0.0524 C.ar    1  LIG1        0.1540
     20 O          -2.2897   -2.0194   -0.0165 O.2     1  LIG1       -0.4514
     21 C          -3.9623    1.2056    0.7426 C.3     1  LIG1       -0.0360
     22 H          -4.7110    1.1647    1.5348 H       1  LIG1        0.0279
     23 H          -4.4189    1.6711   -0.1340 H       1  LIG1        0.0279
     24 H          -3.1200    1.8100    1.0715 H       1  LIG1        0.0279
     25 H          -5.4597   -1.3332    0.2910 H       1  LIG1        0.0659
     26 C          -3.8832   -3.7860   -0.3382 C.ar    1  LIG1        0.1072
     27 C          -5.0156   -4.3399   -0.9013 C.ar    1  LIG1        0.0962
     28 C          -4.7953   -5.7400   -0.9365 C.ar    1  LIG1        0.1679
     29 C          -3.5477   -6.0023   -0.4055 C.ar    1  LIG1        0.1075
     30 N          -3.0058   -4.8070   -0.0541 N.ar    1  LIG1       -0.3462
     31 H          -2.0916   -4.6722    0.3448 H       1  LIG1        0.1662
     32 N          -6.1826   -3.6886   -1.3350 N.pl3   1  LIG1       -0.3534
     33 H          -5.9893   -2.7418   -1.6459 H       1  LIG1        0.1425
     34 H          -6.6250   -4.2135   -2.0827 H       1  LIG1        0.1425
     35 O          -5.6788   -6.6784   -1.4127 O.3     1  LIG1       -0.4911
     36 C          -6.7083   -6.9773   -0.4618 C.3     1  LIG1        0.0790
     37 H          -7.3834   -7.6793   -0.9462 H       1  LIG1        0.0660
     38 H          -6.2657   -7.4247    0.4304 H       1  LIG1        0.0660
     39 H          -7.2379   -6.0618   -0.1939 H       1  LIG1        0.0660
     40 C          -2.8933   -7.2939   -0.2488 C.ar    1  LIG1        0.0678
     41 C          -1.7747   -7.7012    0.4410 C.ar    1  LIG1       -0.0194
     42 C          -1.6373   -9.1041    0.2123 C.ar    1  LIG1        0.0426
     43 C          -2.6834   -9.4902   -0.6027 C.ar    1  LIG1        0.0177
     44 N          -3.4283   -8.3902   -0.8709 N.ar    1  LIG1       -0.3583
     45 H          -4.2603   -8.3308   -1.4446 H       1  LIG1        0.1654
     46 H          -2.9284  -10.4606   -0.9966 H       1  LIG1        0.0819
     47 H          -1.1282   -7.0957    1.0536 H       1  LIG1        0.0651
     48 C          -0.6165   -9.9663    0.7330 C.1     1  LIG1       -0.0682
     49 C           0.2413  -10.6832    1.1745 C.1     1  LIG1       -0.1139
     50 H           0.9993  -11.3193    1.5671 H       1  LIG1        0.1232
@<TRIPOS>BOND
     1    34    32    1
     2    33    32    1
     3    45    44    1
     4    35    28    1
     5    35    36    1
     6    32    27    1
     7    15    12    1
     8    46    43    1
     9    37    36    1
    10    28    27   ar
    11    28    29   ar
    12    27    26   ar
    13    14    12    1
    14    44    43   ar
    15    44    40   ar
    16    43    42   ar
    17    12    13    1
    18    12    11    1
    19    36    39    1
    20    36    38    1
    21    29    40    1
    22    29    30   ar
    23    26    30   ar
    24    26    19    1
    25    40    41   ar
    26    23    21    1
    27    30    31    1
    28    19    20   ar
    29    19    18   ar
    30    20    16   ar
    31     6     5    1
    32     7     1    1
    33     5     1   ar
    34     5     4   ar
    35    18    25    1
    36    18    17   ar
    37    42    41   ar
    38    42    48    1
    39    16     4    1
    40    16    17   ar
    41     1     2   ar
    42     4     3   ar
    43    17    21    1
    44    41    47    1
    45     2     3   ar
    46     2     8    1
    47     3    11    1
    48     8    10    1
    49     8     9    1
    50    48    49    3
    51    21    24    1
    52    21    22    1
    53    49    50    1
