@<TRIPOS>MOLECULE
mol_data/opt/m06hf/geoms/mol2/13hl4ee-12el-4hf12al6ah-13aa12le.out
 99 106 0 0 0
SMALL
GASTEIGER

@<TRIPOS>ATOM
      1 C           0.7870    0.5608    2.1010 C.ar    1  LIG1        0.0267
      2 C           0.7055    1.6615    1.2801 C.ar    1  LIG1        0.0850
      3 C          -0.5664    1.5961    0.6342 C.ar    1  LIG1        0.1658
      4 C          -1.2046    0.4534    1.0700 C.ar    1  LIG1        0.0918
      5 N          -0.3590   -0.1657    1.9544 N.ar    1  LIG1       -0.3561
      6 H          -0.6173   -0.9677    2.5056 H       1  LIG1        0.1655
      7 H           1.5689    0.2561    2.7756 H       1  LIG1        0.0827
      8 N           1.6582    2.6924    1.0759 N.pl3   1  LIG1       -0.3540
      9 H           2.4539    2.5930    1.6960 H       1  LIG1        0.1425
     10 H           1.9897    2.6918    0.1155 H       1  LIG1        0.1425
     11 O          -1.0408    2.4401   -0.3204 O.3     1  LIG1       -0.4911
     12 C          -1.0656    3.8116    0.0771 C.3     1  LIG1        0.0790
     13 H          -1.6343    4.3348   -0.6887 H       1  LIG1        0.0660
     14 H          -1.5608    3.9049    1.0442 H       1  LIG1        0.0660
     15 H          -0.0524    4.2059    0.1485 H       1  LIG1        0.0660
     16 C          -3.6658    0.4902    0.4837 C.ar    1  LIG1        0.0346
     17 C          -4.8029   -0.1946    0.0510 C.ar    1  LIG1       -0.0338
     18 C          -2.4478   -0.1961    0.6258 C.ar    1  LIG1        0.0185
     19 C          -4.7663   -1.5561   -0.2388 C.ar    1  LIG1        0.0352
     20 H          -5.7357    0.3454   -0.0407 H       1  LIG1        0.0637
     21 C          -2.4182   -1.5603    0.3303 C.ar    1  LIG1       -0.0352
     22 C          -3.5523   -2.2526   -0.0936 C.ar    1  LIG1        0.0361
     23 H          -1.4791   -2.0949    0.3910 H       1  LIG1        0.0637
     24 C          -3.8192    1.8798    0.8415 C.1     1  LIG1       -0.0690
     25 C          -4.0547    3.0165    1.1526 C.1     1  LIG1       -0.1139
     26 H          -4.2574    4.0244    1.4322 H       1  LIG1        0.1232
     27 C          -3.3971   -3.6495   -0.4328 C.1     1  LIG1       -0.0689
     28 C          -3.1855   -4.7961   -0.7265 C.1     1  LIG1       -0.1139
     29 H          -3.0053   -5.8067   -1.0156 H       1  LIG1        0.1232
     30 C          -5.9961   -2.2186   -0.6883 C.ar    1  LIG1        0.1559
     31 C          -7.0705   -1.7815   -1.4113 C.ar    1  LIG1        0.1127
     32 C          -7.9462   -2.9213   -1.5330 C.ar    1  LIG1        0.1817
     33 C          -7.3550   -3.9624   -0.8688 C.ar    1  LIG1        0.1802
     34 O          -6.1767   -3.5055   -0.3663 O.2     1  LIG1       -0.4497
     35 C          -7.2869   -0.4950   -1.9965 C.1     1  LIG1       -0.0622
     36 C          -7.4853    0.5852   -2.4853 C.1     1  LIG1       -0.1137
     37 H          -7.6467    1.5391   -2.9318 H       1  LIG1        0.1232
     38 O          -9.1045   -2.8975   -2.2465 O.3     1  LIG1       -0.4901
     39 C         -10.1714   -2.2037   -1.5808 C.3     1  LIG1        0.0790
     40 H         -10.9985   -2.1831   -2.2861 H       1  LIG1        0.0660
     41 H         -10.4472   -2.7532   -0.6805 H       1  LIG1        0.0660
     42 H          -9.8557   -1.1886   -1.3408 H       1  LIG1        0.0660
     43 C          -8.8080   -6.0634   -0.8606 C.ar    1  LIG1        0.0364
     44 C          -8.8910   -7.4169   -0.5163 C.ar    1  LIG1       -0.0262
     45 C          -7.6057   -5.3892   -0.5825 C.ar    1  LIG1        0.0451
     46 C          -7.8500   -8.1056    0.0966 C.ar    1  LIG1        0.0605
     47 H          -9.7986   -7.9587   -0.7539 H       1  LIG1        0.0644
     48 C          -6.5504   -6.0882    0.0191 C.ar    1  LIG1       -0.0069
     49 C          -6.6563   -7.4225    0.3670 C.ar    1  LIG1        0.1283
     50 H          -5.6279   -5.5562    0.2208 H       1  LIG1        0.0662
     51 N          -9.9121   -5.4257   -1.4214 N.pl3   1  LIG1       -0.3574
     52 H          -9.6965   -4.6794   -2.0742 H       1  LIG1        0.1423
     53 H         -10.6175   -6.0594   -1.7690 H       1  LIG1        0.1423
     54 O          -5.6328   -8.0936    0.9710 O.3     1  LIG1       -0.5060
     55 H          -4.9653   -7.4674    1.2712 H       1  LIG1        0.2922
     56 C          -8.0363   -9.5179    0.4611 C.ar    1  LIG1        0.1429
     57 C          -9.1411  -10.1971    0.8903 C.ar    1  LIG1        0.0268
     58 C          -8.7092  -11.5537    1.0631 C.ar    1  LIG1        0.1663
     59 C          -7.3834  -11.5939    0.7308 C.ar    1  LIG1        0.1786
     60 O          -6.9913  -10.3522    0.3640 O.2     1  LIG1       -0.4509
     61 H         -10.1104   -9.7725    1.0867 H       1  LIG1        0.0692
     62 O          -9.4197  -12.6304    1.4794 O.3     1  LIG1       -0.4913
     63 C         -10.7553  -12.3680    1.8752 C.3     1  LIG1        0.0790
     64 H         -11.1621  -13.3164    2.2147 H       1  LIG1        0.0660
     65 H         -10.7755  -11.6414    2.6907 H       1  LIG1        0.0660
     66 H         -11.3370  -11.9965    1.0281 H       1  LIG1        0.0660
     67 C          -5.0546  -12.3527    0.3854 C.ar    1  LIG1        0.0392
     68 C          -6.3834  -12.6554    0.7062 C.ar    1  LIG1        0.0408
     69 C          -6.7152  -13.9826    0.9708 C.ar    1  LIG1       -0.0267
     70 C          -5.7246  -14.9608    0.9271 C.ar    1  LIG1        0.0530
     71 C          -4.4095  -14.5487    0.6360 C.ar    1  LIG1        0.1076
     72 N          -4.1101  -13.2795    0.3518 N.ar    1  LIG1       -0.2510
     73 H          -7.7408  -14.2488    1.1955 H       1  LIG1        0.0644
     74 H          -4.7657  -11.3337    0.1623 H       1  LIG1        0.0837
     75 N          -6.0118  -16.3037    1.1718 N.pl3   1  LIG1       -0.3563
     76 H          -6.9971  -16.5253    1.1168 H       1  LIG1        0.1424
     77 H          -5.4485  -16.9396    0.6182 H       1  LIG1        0.1424
     78 C          -3.2780  -15.4902    0.5760 C.ar    1  LIG1        0.0673
     79 C          -3.0371  -16.7622    1.0808 C.ar    1  LIG1       -0.0342
     80 C          -1.7178  -17.1204    0.7086 C.ar    1  LIG1       -0.0326
     81 C          -1.2009  -16.0570   -0.0085 C.ar    1  LIG1        0.0863
     82 N          -2.1524  -15.0894   -0.0749 N.ar    1  LIG1       -0.3504
     83 H          -2.0622  -14.1670   -0.4802 H       1  LIG1        0.1660
     84 H          -3.7060  -17.3304    1.7045 H       1  LIG1        0.0639
     85 H          -1.1849  -18.0262    0.9420 H       1  LIG1        0.0640
     86 C           0.0942  -15.8923   -0.6438 C.ar    1  LIG1        0.1935
     87 C           1.1405  -16.7407   -0.8148 C.ar    1  LIG1        0.1825
     88 C           2.1495  -16.0071   -1.5484 C.ar    1  LIG1        0.1047
     89 C           1.6218  -14.7703   -1.7446 C.ar    1  LIG1        0.1117
     90 O           0.3916  -14.6927   -1.2044 O.2     1  LIG1       -0.4564
     91 H           2.0017  -13.8889   -2.2291 H       1  LIG1        0.1043
     92 O           1.2166  -18.0248   -0.3859 O.3     1  LIG1       -0.4901
     93 C           0.9702  -18.9752   -1.4250 C.3     1  LIG1        0.0790
     94 H           1.0546  -19.9565   -0.9649 H       1  LIG1        0.0660
     95 H          -0.0338  -18.8282   -1.8274 H       1  LIG1        0.0660
     96 H           1.7139  -18.8660   -2.2164 H       1  LIG1        0.0660
     97 C           3.4303  -16.4933   -1.9635 C.1     1  LIG1       -0.0628
     98 C           4.4981  -16.9192   -2.3113 C.1     1  LIG1       -0.1137
     99 H           5.4496  -17.2916   -2.6120 H       1  LIG1        0.1232
@<TRIPOS>BOND
     1    37    36    1
     2    99    98    1
     3    36    35    3
     4    98    97    3
     5    40    39    1
     6    38    39    1
     7    38    32    1
     8    91    89    1
     9    96    93    1
    10    52    51    1
    11    35    31    1
    12    97    88    1
    13    95    93    1
    14    53    51    1
    15    89    88   ar
    16    89    90   ar
    17    39    42    1
    18    39    41    1
    19    88    87   ar
    20    32    31   ar
    21    32    33   ar
    22    93    94    1
    23    93    92    1
    24    51    43    1
    25    31    30   ar
    26    90    86   ar
    27    29    28    1
    28    33    45    1
    29    33    34   ar
    30    43    45   ar
    31    43    44   ar
    32    87    86   ar
    33    87    92    1
    34    47    44    1
    35    28    27    3
    36    13    12    1
    37    30    34   ar
    38    30    19    1
    39    86    81    1
    40    45    48   ar
    41    44    46   ar
    42    83    82    1
    43    27    22    1
    44    11    12    1
    45    11     3    1
    46    19    22   ar
    47    19    17   ar
    48    22    21   ar
    49    82    81   ar
    50    82    78   ar
    51    20    17    1
    52    81    80   ar
    53    48    50    1
    54    48    49   ar
    55    17    16   ar
    56    12    15    1
    57    12    14    1
    58    46    49   ar
    59    46    56    1
    60    10     8    1
    61    74    67    1
    62    21    23    1
    63    21    18   ar
    64    72    67   ar
    65    72    71   ar
    66    60    56   ar
    67    60    59   ar
    68    49    54    1
    69    67    68   ar
    70    56    57   ar
    71    16    18   ar
    72    16    24    1
    73    78    71    1
    74    78    79   ar
    75    77    75    1
    76    18     4    1
    77     3     4   ar
    78     3     2   ar
    79    71    70   ar
    80    68    59    1
    81    68    69   ar
    82    80    85    1
    83    80    79   ar
    84    59    58   ar
    85    24    25    3
    86    57    58   ar
    87    57    61    1
    88    70    69   ar
    89    70    75    1
    90    69    73    1
    91    54    55    1
    92    66    63    1
    93    58    62    1
    94     4     5   ar
    95     8     2    1
    96     8     9    1
    97    79    84    1
    98    76    75    1
    99    25    26    1
   100     2     1   ar
   101    62    63    1
   102    63    64    1
   103    63    65    1
   104     5     1   ar
   105     5     6    1
   106     1     7    1
