@<TRIPOS>MOLECULE
mol_data/opt/m06hf/geoms/mol2/13hl13hl-13hl-13hl-.out
 58 61 0 0 0
SMALL
GASTEIGER

@<TRIPOS>ATOM
      1 C           1.2845   -0.2575   -0.7466 C.ar    1  LIG1        0.0267
      2 C           0.8105    0.7580   -1.5494 C.ar    1  LIG1        0.0851
      3 C          -0.6019    0.7733   -1.3831 C.ar    1  LIG1        0.1673
      4 C          -0.9342   -0.2243   -0.4951 C.ar    1  LIG1        0.1089
      5 N           0.2173   -0.8424   -0.1212 N.ar    1  LIG1       -0.3549
      6 H           0.2041   -1.6169    0.5324 H       1  LIG1        0.1655
      7 H           2.2916   -0.6005   -0.5871 H       1  LIG1        0.0827
      8 N           1.5075    1.6174   -2.4346 N.pl3   1  LIG1       -0.3540
      9 H           1.3061    2.5901   -2.2237 H       1  LIG1        0.1425
     10 H           2.5091    1.4703   -2.3921 H       1  LIG1        0.1425
     11 O          -1.4976    1.6210   -1.9892 O.3     1  LIG1       -0.4911
     12 C          -1.6214    1.3562   -3.3902 C.3     1  LIG1        0.0790
     13 H          -2.2927    2.1135   -3.7904 H       1  LIG1        0.0660
     14 H          -0.6410    1.4227   -3.8640 H       1  LIG1        0.0660
     15 H          -2.0413    0.3589   -3.5383 H       1  LIG1        0.0660
     16 C          -2.2344   -0.6097    0.0218 C.ar    1  LIG1        0.0916
     17 C          -2.5771   -1.6491    0.8625 C.ar    1  LIG1        0.0947
     18 C          -3.9799   -1.5529    1.0746 C.ar    1  LIG1        0.1679
     19 C          -4.4506   -0.4747    0.3505 C.ar    1  LIG1        0.1094
     20 N          -3.3630    0.0785   -0.2853 N.ar    1  LIG1       -0.3473
     21 H          -3.3622    0.8973   -0.8787 H       1  LIG1        0.1662
     22 N          -1.6443   -2.5893    1.4057 N.pl3   1  LIG1       -0.3534
     23 H          -1.7802   -2.6609    2.4108 H       1  LIG1        0.1425
     24 H          -1.8104   -3.5154    1.0187 H       1  LIG1        0.1425
     25 O          -4.6993   -2.3762    1.8885 O.3     1  LIG1       -0.4911
     26 C          -5.4399   -3.3719    1.1789 C.3     1  LIG1        0.0790
     27 H          -5.9706   -3.9501    1.9322 H       1  LIG1        0.0660
     28 H          -6.1421   -2.9059    0.4839 H       1  LIG1        0.0660
     29 H          -4.7530   -4.0221    0.6290 H       1  LIG1        0.0660
     30 C          -5.8042    0.0746    0.2284 C.ar    1  LIG1        0.0917
     31 C          -6.8839   -0.3666   -0.5116 C.ar    1  LIG1        0.0947
     32 C          -7.9466    0.5442   -0.2749 C.ar    1  LIG1        0.1679
     33 C          -7.4947    1.5214    0.5914 C.ar    1  LIG1        0.1094
     34 N          -6.1916    1.2225    0.8726 N.ar    1  LIG1       -0.3473
     35 H          -5.6069    1.7439    1.5061 H       1  LIG1        0.1662
     36 N          -6.9733   -1.5289   -1.3044 N.pl3   1  LIG1       -0.3534
     37 H          -7.8691   -1.5569   -1.7799 H       1  LIG1        0.1425
     38 H          -6.2113   -1.6069   -1.9680 H       1  LIG1        0.1425
     39 O          -9.1863    0.4340   -0.8352 O.3     1  LIG1       -0.4911
     40 C          -9.3945    1.3391   -1.9221 C.3     1  LIG1        0.0790
     41 H         -10.4067    1.1592   -2.2782 H       1  LIG1        0.0660
     42 H          -9.2827    2.3738   -1.5904 H       1  LIG1        0.0660
     43 H          -8.6757    1.1289   -2.7194 H       1  LIG1        0.0660
     44 C          -8.1860    2.6869    1.1533 C.ar    1  LIG1        0.0912
     45 C          -8.4451    3.9144    0.5872 C.ar    1  LIG1        0.0940
     46 C          -9.1339    4.6811    1.5658 C.ar    1  LIG1        0.1585
     47 C          -9.2761    3.9071    2.6966 C.ar    1  LIG1        0.0463
     48 N          -8.6869    2.7044    2.4328 N.ar    1  LIG1       -0.3549
     49 H          -8.6911    1.8990    3.0355 H       1  LIG1        0.1655
     50 H          -9.7378    4.1175    3.6444 H       1  LIG1        0.0845
     51 N          -8.1546    4.3496   -0.7215 N.pl3   1  LIG1       -0.3535
     52 H          -8.2523    5.3566   -0.7898 H       1  LIG1        0.1425
     53 H          -7.2296    4.0632   -1.0219 H       1  LIG1        0.1425
     54 O          -9.5158    5.9651    1.3176 O.3     1  LIG1       -0.4918
     55 C         -10.1718    6.6057    2.3922 C.3     1  LIG1        0.0789
     56 H         -10.4092    7.6123    2.0581 H       1  LIG1        0.0660
     57 H         -11.0911    6.0705    2.6479 H       1  LIG1        0.0660
     58 H          -9.5149    6.6475    3.2661 H       1  LIG1        0.0660
@<TRIPOS>BOND
     1    14    12    1
     2    13    12    1
     3    15    12    1
     4    12    11    1
     5    43    40    1
     6     8    10    1
     7     8     9    1
     8     8     2    1
     9    41    40    1
    10    11     3    1
    11    38    36    1
    12    40    42    1
    13    40    39    1
    14    37    36    1
    15     2     3   ar
    16     2     1   ar
    17     3     4   ar
    18    36    31    1
    19    53    51    1
    20    21    20    1
    21    39    32    1
    22    52    51    1
    23     1     7    1
    24     1     5   ar
    25    51    45    1
    26    31    32   ar
    27    31    30   ar
    28     4     5   ar
    29     4    16    1
    30    20    16   ar
    31    20    19   ar
    32    32    33   ar
    33     5     6    1
    34    16    17   ar
    35    30    19    1
    36    30    34   ar
    37    19    18   ar
    38    28    26    1
    39    45    44   ar
    40    45    46   ar
    41    33    34   ar
    42    33    44    1
    43    29    26    1
    44    17    18   ar
    45    17    22    1
    46    34    35    1
    47    24    22    1
    48    18    25    1
    49    44    48   ar
    50    26    25    1
    51    26    27    1
    52    54    46    1
    53    54    55    1
    54    22    23    1
    55    46    47   ar
    56    56    55    1
    57    55    57    1
    58    55    58    1
    59    48    47   ar
    60    48    49    1
    61    47    50    1
