@<TRIPOS>MOLECULE
mol_data/opt/m06hf/geoms/mol2/13hl13hl-13hl13hl-.out
 58 61 0 0 0
SMALL
GASTEIGER

@<TRIPOS>ATOM
      1 C           1.4020   -0.4108    0.0015 C.ar    1  LIG1        0.0267
      2 C           1.0631    0.8783   -0.3485 C.ar    1  LIG1        0.0851
      3 C          -0.3568    0.9183   -0.4078 C.ar    1  LIG1        0.1673
      4 C          -0.8299   -0.3359   -0.0931 C.ar    1  LIG1        0.1089
      5 N           0.2463   -1.1294    0.1547 N.ar    1  LIG1       -0.3549
      6 H           0.1267   -2.0953    0.4355 H       1  LIG1        0.1655
      7 H           2.3702   -0.8542    0.1553 H       1  LIG1        0.0827
      8 N           1.8882    2.0087   -0.5685 N.pl3   1  LIG1       -0.3540
      9 H           2.8718    1.7662   -0.5578 H       1  LIG1        0.1425
     10 H           1.6625    2.4458   -1.4567 H       1  LIG1        0.1425
     11 O          -1.1354    2.0044   -0.7215 O.3     1  LIG1       -0.4911
     12 C          -1.1651    2.9683    0.3328 C.3     1  LIG1        0.0790
     13 H          -1.7768    3.7950   -0.0238 H       1  LIG1        0.0660
     14 H          -1.6121    2.5240    1.2251 H       1  LIG1        0.0660
     15 H          -0.1516    3.3072    0.5531 H       1  LIG1        0.0660
     16 C          -2.1965   -0.8135    0.0000 C.ar    1  LIG1        0.0916
     17 C          -2.6690   -2.0744    0.3150 C.ar    1  LIG1        0.0947
     18 C          -4.0881   -1.9832    0.3007 C.ar    1  LIG1        0.1679
     19 C          -4.4229   -0.6845   -0.0224 C.ar    1  LIG1        0.1094
     20 N          -3.2611    0.0066   -0.2033 N.ar    1  LIG1       -0.3473
     21 H          -3.2236    0.9757   -0.5094 H       1  LIG1        0.1662
     22 N          -1.8308   -3.1961    0.6130 N.pl3   1  LIG1       -0.3534
     23 H          -2.1306   -3.6363    1.4785 H       1  LIG1        0.1425
     24 H          -1.8867   -3.8958   -0.1226 H       1  LIG1        0.1425
     25 O          -4.9907   -2.9851    0.5624 O.3     1  LIG1       -0.4911
     26 C          -5.2832   -3.7827   -0.5832 C.3     1  LIG1        0.0790
     27 H          -6.0526   -4.4890   -0.2783 H       1  LIG1        0.0660
     28 H          -5.6516   -3.1522   -1.3954 H       1  LIG1        0.0660
     29 H          -4.3891   -4.3170   -0.9126 H       1  LIG1        0.0660
     30 C          -5.7297   -0.0730   -0.1602 C.ar    1  LIG1        0.0917
     31 C          -6.0588    1.2324   -0.4789 C.ar    1  LIG1        0.0947
     32 C          -7.4804    1.2852   -0.5122 C.ar    1  LIG1        0.1679
     33 C          -7.9572    0.0272   -0.2115 C.ar    1  LIG1        0.1094
     34 N          -6.8798   -0.7801    0.0023 N.ar    1  LIG1       -0.3473
     35 H          -6.9640   -1.7485    0.3018 H       1  LIG1        0.1662
     36 N          -5.0972    2.2595   -0.7312 N.pl3   1  LIG1       -0.3534
     37 H          -5.2961    2.7315   -1.6082 H       1  LIG1        0.1425
     38 H          -5.0942    2.9561    0.0088 H       1  LIG1        0.1425
     39 O          -8.2715    2.3760   -0.7910 O.3     1  LIG1       -0.4911
     40 C          -8.4826    3.2023    0.3530 C.3     1  LIG1        0.0790
     41 H          -9.0998    4.0370    0.0269 H       1  LIG1        0.0660
     42 H          -8.9897    2.6338    1.1356 H       1  LIG1        0.0660
     43 H          -7.5291    3.5731    0.7337 H       1  LIG1        0.0660
     44 C          -9.3182   -0.4705   -0.1530 C.ar    1  LIG1        0.0912
     45 C          -9.7736   -1.7248    0.1861 C.ar    1  LIG1        0.0940
     46 C         -11.1913   -1.6910    0.0482 C.ar    1  LIG1        0.1585
     47 C         -11.5501   -0.4287   -0.3689 C.ar    1  LIG1        0.0463
     48 N         -10.3894    0.3016   -0.4762 N.ar    1  LIG1       -0.3549
     49 H         -10.2880    1.2391   -0.8368 H       1  LIG1        0.1655
     50 H         -12.5092    0.0007   -0.5936 H       1  LIG1        0.0845
     51 N          -8.9384   -2.8177    0.5749 N.pl3   1  LIG1       -0.3535
     52 H          -9.1017   -3.0602    1.5489 H       1  LIG1        0.1425
     53 H          -9.1709   -3.6398    0.0231 H       1  LIG1        0.1425
     54 O         -11.9624   -2.7814    0.3019 O.3     1  LIG1       -0.4918
     55 C         -13.3443   -2.5929    0.0770 C.3     1  LIG1        0.0789
     56 H         -13.8292   -3.5387    0.3058 H       1  LIG1        0.0660
     57 H         -13.7321   -1.8073    0.7323 H       1  LIG1        0.0660
     58 H         -13.5257   -2.3226   -0.9670 H       1  LIG1        0.0660
@<TRIPOS>BOND
     1    37    36    1
     2    10     8    1
     3    28    26    1
     4    58    55    1
     5    29    26    1
     6    49    48    1
     7    39    32    1
     8    39    40    1
     9    36    31    1
    10    36    38    1
    11    11     3    1
    12    11    12    1
    13    50    47    1
    14    26    27    1
    15    26    25    1
    16     8     9    1
    17     8     2    1
    18    32    31   ar
    19    32    33   ar
    20    21    20    1
    21    31    30   ar
    22    48    47   ar
    23    48    44   ar
    24     3     2   ar
    25     3     4   ar
    26    47    46   ar
    27     2     1   ar
    28    33    44    1
    29    33    34   ar
    30    20    19   ar
    31    20    16   ar
    32    30    19    1
    33    30    34   ar
    34    44    45   ar
    35    24    22    1
    36     4    16    1
    37     4     5   ar
    38    13    12    1
    39    19    18   ar
    40    16    17   ar
    41     1     5   ar
    42     1     7    1
    43    34    35    1
    44    53    51    1
    45    41    40    1
    46    46    45   ar
    47    46    54    1
    48    55    54    1
    49    55    56    1
    50    55    57    1
    51     5     6    1
    52    45    51    1
    53    18    17   ar
    54    18    25    1
    55    17    22    1
    56    12    15    1
    57    12    14    1
    58    40    43    1
    59    40    42    1
    60    51    52    1
    61    22    23    1
