@<TRIPOS>MOLECULE
mol_data/opt/m06hf/geoms/mol2/13hl13hl-.out
 30 31 0 0 0
SMALL
GASTEIGER

@<TRIPOS>ATOM
      1 C           1.3147   -0.3304   -0.2118 C.ar    1  LIG1        0.0267
      2 C           0.9777    0.9963   -0.3753 C.ar    1  LIG1        0.0851
      3 C          -0.4435    1.0488   -0.3978 C.ar    1  LIG1        0.1673
      4 C          -0.9160   -0.2350   -0.2482 C.ar    1  LIG1        0.1089
      5 N           0.1592   -1.0584   -0.1332 N.ar    1  LIG1       -0.3549
      6 H           0.0366   -2.0565   -0.0019 H       1  LIG1        0.1655
      7 H           2.2828   -0.7945   -0.1403 H       1  LIG1        0.0827
      8 N           1.8094    2.1420   -0.4534 N.pl3   1  LIG1       -0.3540
      9 H           2.7918    1.8965   -0.4131 H       1  LIG1        0.1425
     10 H           1.6312    2.6580   -1.3096 H       1  LIG1        0.1425
     11 O          -1.2277    2.1689   -0.5357 O.3     1  LIG1       -0.4911
     12 C          -1.1530    3.0153    0.6161 C.3     1  LIG1        0.0790
     13 H          -1.7371    3.9045    0.3865 H       1  LIG1        0.0660
     14 H          -1.5740    2.4955    1.4800 H       1  LIG1        0.0660
     15 H          -0.1122    3.2791    0.8093 H       1  LIG1        0.0660
     16 C          -2.2819   -0.7252   -0.2115 C.ar    1  LIG1        0.0912
     17 C          -2.7468   -2.0061   -0.0166 C.ar    1  LIG1        0.0940
     18 C          -4.1683   -1.9321   -0.0709 C.ar    1  LIG1        0.1585
     19 C          -4.5186   -0.6196   -0.2976 C.ar    1  LIG1        0.0463
     20 N          -3.3484    0.0980   -0.3758 N.ar    1  LIG1       -0.3549
     21 H          -3.2417    1.0823   -0.5773 H       1  LIG1        0.1655
     22 H          -5.4773   -0.1470   -0.4090 H       1  LIG1        0.0845
     23 N          -1.9149   -3.1515    0.1907 N.pl3   1  LIG1       -0.3535
     24 H          -2.1160   -3.5701    1.0955 H       1  LIG1        0.1425
     25 H          -2.1194   -3.8576   -0.5123 H       1  LIG1        0.1425
     26 O          -4.9531   -3.0318    0.0863 O.3     1  LIG1       -0.4918
     27 C          -6.3415   -2.7742    0.0466 C.3     1  LIG1        0.0789
     28 H          -6.8414   -3.7267    0.2014 H       1  LIG1        0.0660
     29 H          -6.6191   -2.0728    0.8386 H       1  LIG1        0.0660
     30 H          -6.6232   -2.3594   -0.9256 H       1  LIG1        0.0660
@<TRIPOS>BOND
     1    10     8    1
     2    30    27    1
     3    21    20    1
     4    11     3    1
     5    11    12    1
     6    25    23    1
     7     8     9    1
     8     8     2    1
     9    22    19    1
    10     3     2   ar
    11     3     4   ar
    12    20    19   ar
    13    20    16   ar
    14     2     1   ar
    15    19    18   ar
    16     4    16    1
    17     4     5   ar
    18     1     7    1
    19     1     5   ar
    20    16    17   ar
    21     5     6    1
    22    18    17   ar
    23    18    26    1
    24    17    23    1
    25    27    26    1
    26    27    28    1
    27    27    29    1
    28    23    24    1
    29    13    12    1
    30    12    15    1
    31    12    14    1
