@<TRIPOS>MOLECULE
mol_data/opt/m06hf/geoms/mol2/13hl13hl13hl.out
 44 46 0 0 0
SMALL
GASTEIGER

@<TRIPOS>ATOM
      1 C           1.1411   -0.3776    0.9777 C.ar    1  LIG1        0.0267
      2 C           1.0871    0.8213    0.3167 C.ar    1  LIG1        0.0851
      3 C          -0.2257    0.9289   -0.2363 C.ar    1  LIG1        0.1673
      4 C          -0.9285   -0.2098    0.0906 C.ar    1  LIG1        0.1089
      5 N          -0.0785   -0.9968    0.8270 N.ar    1  LIG1       -0.3549
      6 H          -0.3900   -1.7726    1.3874 H       1  LIG1        0.1655
      7 H           1.9394   -0.8318    1.5375 H       1  LIG1        0.0827
      8 N           2.0713    1.8253    0.1767 N.pl3   1  LIG1       -0.3540
      9 H           2.9741    1.5274    0.5259 H       1  LIG1        0.1425
     10 H           2.1603    2.1085   -0.7944 H       1  LIG1        0.1425
     11 O          -0.6693    1.9937   -0.9782 O.3     1  LIG1       -0.4911
     12 C          -0.7883    3.1858   -0.1843 C.3     1  LIG1        0.0790
     13 H          -1.0646    3.9823   -0.8730 H       1  LIG1        0.0660
     14 H          -1.5685    3.0432    0.5653 H       1  LIG1        0.0660
     15 H           0.1670    3.4066    0.2936 H       1  LIG1        0.0660
     16 C          -2.2818   -0.6439   -0.2322 C.ar    1  LIG1        0.0916
     17 C          -3.4224    0.0773   -0.5104 C.ar    1  LIG1        0.0947
     18 C          -4.4801   -0.8641   -0.6563 C.ar    1  LIG1        0.1679
     19 C          -3.9666   -2.1344   -0.4921 C.ar    1  LIG1        0.1094
     20 N          -2.6310   -1.9804   -0.2362 N.ar    1  LIG1       -0.3473
     21 H          -1.9906   -2.7402   -0.0791 H       1  LIG1        0.1662
     22 N          -3.5718    1.4707   -0.6245 N.pl3   1  LIG1       -0.3534
     23 H          -2.7319    1.8749   -1.0300 H       1  LIG1        0.1425
     24 H          -4.3730    1.6816   -1.2118 H       1  LIG1        0.1425
     25 O          -5.7831   -0.5140   -0.9046 O.3     1  LIG1       -0.4911
     26 C          -6.3976    0.0968    0.2413 C.3     1  LIG1        0.0790
     27 H          -7.3806    0.4332   -0.0836 H       1  LIG1        0.0660
     28 H          -6.4907   -0.6422    1.0384 H       1  LIG1        0.0660
     29 H          -5.7980    0.9448    0.5771 H       1  LIG1        0.0660
     30 C          -4.5824   -3.4507   -0.5977 C.ar    1  LIG1        0.0912
     31 C          -5.8804   -3.8556   -0.3850 C.ar    1  LIG1        0.0940
     32 C          -5.9017   -5.2710   -0.5688 C.ar    1  LIG1        0.1585
     33 C          -4.6357   -5.6855   -0.8925 C.ar    1  LIG1        0.0463
     34 N          -3.8368   -4.5764   -0.9005 N.ar    1  LIG1       -0.3549
     35 H          -2.9323   -4.5401   -1.3411 H       1  LIG1        0.1655
     36 H          -4.2676   -6.6668   -1.1343 H       1  LIG1        0.0845
     37 N          -6.9961   -3.0804   -0.0252 N.pl3   1  LIG1       -0.3535
     38 H          -6.9999   -2.2099   -0.5497 H       1  LIG1        0.1425
     39 H          -7.8462   -3.6034   -0.2110 H       1  LIG1        0.1425
     40 O          -7.0206   -6.0425   -0.4123 O.3     1  LIG1       -0.4918
     41 C          -7.2750   -6.3617    0.9542 C.3     1  LIG1        0.0789
     42 H          -8.2071   -6.9226    0.9757 H       1  LIG1        0.0660
     43 H          -6.4597   -6.9688    1.3531 H       1  LIG1        0.0660
     44 H          -7.3700   -5.4475    1.5449 H       1  LIG1        0.0660
@<TRIPOS>BOND
     1    35    34    1
     2    24    22    1
     3    36    33    1
     4    23    22    1
     5    11     3    1
     6    11    12    1
     7    25    18    1
     8    25    26    1
     9    34    33   ar
    10    34    30   ar
    11    33    32   ar
    12    13    12    1
    13    10     8    1
    14    18    17   ar
    15    18    19   ar
    16    22    17    1
    17    30    19    1
    18    30    31   ar
    19    32    40    1
    20    32    31   ar
    21    38    37    1
    22    17    16   ar
    23    19    20   ar
    24    40    41    1
    25    31    37    1
    26     3     4   ar
    27     3     2   ar
    28    20    16   ar
    29    20    21    1
    30    16     4    1
    31    39    37    1
    32    12    15    1
    33    12    14    1
    34    27    26    1
    35     4     5   ar
    36     8     2    1
    37     8     9    1
    38    26    29    1
    39    26    28    1
    40     2     1   ar
    41     5     1   ar
    42     5     6    1
    43    41    42    1
    44    41    43    1
    45    41    44    1
    46     1     7    1
