@<TRIPOS>MOLECULE
mol_data/opt/m06hf/geoms/mol2/13hl13hl-13hl.out
 44 46 0 0 0
SMALL
GASTEIGER

@<TRIPOS>ATOM
      1 C           1.3863   -0.7108   -0.3030 C.ar    1  LIG1        0.0267
      2 C           1.1421    0.6145   -0.5912 C.ar    1  LIG1        0.0851
      3 C          -0.2684    0.7834   -0.5410 C.ar    1  LIG1        0.1673
      4 C          -0.8305   -0.4334   -0.2247 C.ar    1  LIG1        0.1089
      5 N           0.1830   -1.3283   -0.0837 N.ar    1  LIG1       -0.3549
      6 H          -0.0017   -2.2872    0.1853 H       1  LIG1        0.1655
      7 H           2.3171   -1.2459   -0.2351 H       1  LIG1        0.0827
      8 N           2.0474    1.6738   -0.8400 N.pl3   1  LIG1       -0.3540
      9 H           2.9912    1.3380   -0.9925 H       1  LIG1        0.1425
     10 H           1.7489    2.2106   -1.6484 H       1  LIG1        0.1425
     11 O          -0.9598    1.9478   -0.7637 O.3     1  LIG1       -0.4911
     12 C          -0.8560    2.8545    0.3369 C.3     1  LIG1        0.0790
     13 H          -1.4163    3.7441    0.0563 H       1  LIG1        0.0660
     14 H          -1.2901    2.4012    1.2309 H       1  LIG1        0.0660
     15 H           0.1922    3.1002    0.5154 H       1  LIG1        0.0660
     16 C          -2.2242   -0.7880   -0.0312 C.ar    1  LIG1        0.0916
     17 C          -2.7824   -2.0091    0.3011 C.ar    1  LIG1        0.0947
     18 C          -4.1829   -1.7883    0.4126 C.ar    1  LIG1        0.1679
     19 C          -4.4229   -0.4578    0.1426 C.ar    1  LIG1        0.1094
     20 N          -3.2226    0.1292   -0.1266 N.ar    1  LIG1       -0.3473
     21 H          -3.1271    1.1040   -0.4040 H       1  LIG1        0.1662
     22 N          -2.0294   -3.2092    0.5068 N.pl3   1  LIG1       -0.3534
     23 H          -2.2964   -3.6447    1.3856 H       1  LIG1        0.1425
     24 H          -2.2026   -3.8816   -0.2361 H       1  LIG1        0.1425
     25 O          -5.1504   -2.7128    0.7352 O.3     1  LIG1       -0.4911
     26 C          -5.5634   -3.4837   -0.3922 C.3     1  LIG1        0.0790
     27 H          -6.3202   -4.1797   -0.0353 H       1  LIG1        0.0660
     28 H          -5.9783   -2.8282   -1.1608 H       1  LIG1        0.0660
     29 H          -4.7175   -4.0364   -0.8049 H       1  LIG1        0.0660
     30 C          -5.6679    0.2872    0.1573 C.ar    1  LIG1        0.0912
     31 C          -5.8998    1.6060   -0.1618 C.ar    1  LIG1        0.0940
     32 C          -7.2918    1.8323    0.0452 C.ar    1  LIG1        0.1585
     33 C          -7.8557    0.6553    0.4840 C.ar    1  LIG1        0.0463
     34 N          -6.8452   -0.2765    0.5367 N.ar    1  LIG1       -0.3549
     35 H          -6.9014   -1.2190    0.8944 H       1  LIG1        0.1655
     36 H          -8.8652    0.4062    0.7558 H       1  LIG1        0.0845
     37 N          -4.8954    2.5242   -0.5969 N.pl3   1  LIG1       -0.3535
     38 H          -5.0708    2.8156   -1.5552 H       1  LIG1        0.1425
     39 H          -4.9203    3.3625   -0.0220 H       1  LIG1        0.1425
     40 O          -7.8662    3.0435   -0.1830 O.3     1  LIG1       -0.4918
     41 C          -9.2538    3.0937    0.0765 C.3     1  LIG1        0.0789
     42 H          -9.5772    4.1077   -0.1430 H       1  LIG1        0.0660
     43 H          -9.7850    2.3853   -0.5656 H       1  LIG1        0.0660
     44 H          -9.4523    2.8569    1.1260 H       1  LIG1        0.0660
@<TRIPOS>BOND
     1    10     8    1
     2    38    37    1
     3    28    26    1
     4     9     8    1
     5     8     2    1
     6    29    26    1
     7    11     3    1
     8    11    12    1
     9    37    31    1
    10    37    39    1
    11     2     3   ar
    12     2     1   ar
    13    43    41    1
    14     3     4   ar
    15    21    20    1
    16    26    27    1
    17    26    25    1
    18     1     7    1
    19     1     5   ar
    20    24    22    1
    21     4     5   ar
    22     4    16    1
    23    40    32    1
    24    40    41    1
    25    31    32   ar
    26    31    30   ar
    27    42    41    1
    28    20    16   ar
    29    20    19   ar
    30     5     6    1
    31    16    17   ar
    32    32    33   ar
    33    13    12    1
    34    41    44    1
    35    19    30    1
    36    19    18   ar
    37    30    34   ar
    38    17    18   ar
    39    17    22    1
    40    12    15    1
    41    12    14    1
    42    18    25    1
    43    33    34   ar
    44    33    36    1
    45    22    23    1
    46    34    35    1
