@<TRIPOS>MOLECULE
mol_data/opt/m06hf/geoms/mol2/13hl6ff-6ld4ie.out
 56 59 0 0 0
SMALL
GASTEIGER

@<TRIPOS>ATOM
      1 C           1.5109   -0.1163   -0.4153 C.ar    1  LIG1        0.0267
      2 C           1.0970    1.1117    0.0535 C.ar    1  LIG1        0.0850
      3 C          -0.3038    1.0156    0.2421 C.ar    1  LIG1        0.1659
      4 C          -0.7081   -0.2608   -0.1152 C.ar    1  LIG1        0.0958
      5 N           0.4170   -0.9251   -0.5128 N.ar    1  LIG1       -0.3559
      6 H           0.4000   -1.8793   -0.8400 H       1  LIG1        0.1655
      7 H           2.4925   -0.4613   -0.6892 H       1  LIG1        0.0827
      8 N           1.8302    2.2987    0.2734 N.pl3   1  LIG1       -0.3540
      9 H           1.5432    2.7350    1.1442 H       1  LIG1        0.1425
     10 H           2.8298    2.1361    0.2908 H       1  LIG1        0.1425
     11 O          -1.0924    2.0373    0.6990 O.3     1  LIG1       -0.4911
     12 C          -1.3284    3.0278   -0.3074 C.3     1  LIG1        0.0790
     13 H          -1.8969    3.8224    0.1706 H       1  LIG1        0.0660
     14 H          -0.3759    3.4075   -0.6801 H       1  LIG1        0.0660
     15 H          -1.9034    2.5905   -1.1263 H       1  LIG1        0.0660
     16 C          -2.3347   -2.1440   -0.5740 C.ar    1  LIG1        0.2225
     17 C          -2.0485   -0.8499   -0.0823 C.ar    1  LIG1        0.0667
     18 C          -3.1248   -0.1529    0.4504 C.ar    1  LIG1       -0.0037
     19 C          -4.3971   -0.7268    0.4590 C.ar    1  LIG1        0.1438
     20 C          -4.5598   -2.0022   -0.0693 C.ar    1  LIG1        0.1212
     21 N          -3.5228   -2.6874   -0.5667 N.ar    1  LIG1       -0.2086
     22 H          -2.9796    0.8327    0.8726 H       1  LIG1        0.0663
     23 O          -1.3237   -2.8928   -1.0970 O.3     1  LIG1       -0.4919
     24 H          -1.7145   -3.7296   -1.3837 H       1  LIG1        0.2937
     25 O          -5.4222   -0.0019    0.9846 O.3     1  LIG1       -0.5046
     26 H          -6.1804   -0.5743    1.1533 H       1  LIG1        0.2922
     27 C          -6.1531   -3.8938    0.5090 C.ar    1  LIG1        0.2246
     28 C          -5.9048   -2.6428   -0.1122 C.ar    1  LIG1        0.0668
     29 C          -6.9660   -2.0642   -0.7773 C.ar    1  LIG1       -0.0278
     30 C          -8.2128   -2.7119   -0.8090 C.ar    1  LIG1        0.0785
     31 C          -8.3571   -3.9341   -0.1523 C.ar    1  LIG1        0.0924
     32 N          -7.3234   -4.5018    0.4797 N.ar    1  LIG1       -0.2110
     33 H          -6.8336   -1.1214   -1.2951 H       1  LIG1        0.0639
     34 O          -5.1506   -4.4625    1.1663 O.3     1  LIG1       -0.4792
     35 C          -5.4070   -5.7168    1.8010 C.3     1  LIG1        0.0804
     36 H          -4.4685   -5.9876    2.2748 H       1  LIG1        0.0660
     37 H          -6.2025   -5.6083    2.5367 H       1  LIG1        0.0660
     38 H          -5.7004   -6.4582    1.0590 H       1  LIG1        0.0660
     39 N         -10.1472   -1.6439   -2.1621 N.1     1  LIG1       -0.1908
     40 C          -9.2999   -2.1310   -1.5599 C.1     1  LIG1        0.1013
     41 C         -10.8465   -4.1905    0.3093 C.ar    1  LIG1       -0.0412
     42 C         -11.9764   -5.0144    0.2518 C.ar    1  LIG1       -0.0571
     43 C          -9.6338   -4.7126   -0.1585 C.ar    1  LIG1        0.0058
     44 C         -11.9141   -6.3075   -0.2412 C.ar    1  LIG1       -0.0460
     45 H         -12.9211   -4.6272    0.6139 H       1  LIG1        0.0621
     46 C          -9.5542   -6.0246   -0.6287 C.ar    1  LIG1       -0.0369
     47 C         -10.6907   -6.8266   -0.6809 C.ar    1  LIG1        0.0253
     48 H          -8.6008   -6.4181   -0.9553 H       1  LIG1        0.0636
     49 H         -12.7984   -6.9291   -0.2794 H       1  LIG1        0.0630
     50 C         -10.9875   -2.8041    0.9133 C.3     1  LIG1       -0.0391
     51 H         -11.6545   -2.8548    1.7742 H       1  LIG1        0.0278
     52 H         -11.4099   -2.1149    0.1803 H       1  LIG1        0.0278
     53 H         -10.0251   -2.4141    1.2436 H       1  LIG1        0.0278
     54 C         -10.6044   -8.1809   -1.1764 C.1     1  LIG1       -0.0696
     55 C         -10.5340   -9.3078   -1.5871 C.1     1  LIG1       -0.1139
     56 H         -10.4703  -10.3061   -1.9529 H       1  LIG1        0.1232
@<TRIPOS>BOND
     1    39    40    3
     2    56    55    1
     3    55    54    3
     4    40    30    1
     5    24    23    1
     6    33    29    1
     7    54    47    1
     8    15    12    1
     9    23    16    1
    10    48    46    1
    11     6     5    1
    12    30    29   ar
    13    30    31   ar
    14    29    28   ar
    15     7     1    1
    16    47    46   ar
    17    47    44   ar
    18    14    12    1
    19    46    43   ar
    20    16    21   ar
    21    16    17   ar
    22    21    20   ar
    23     5     1   ar
    24     5     4   ar
    25     1     2   ar
    26    12    13    1
    27    12    11    1
    28    49    44    1
    29    44    42   ar
    30    43    31    1
    31    43    41   ar
    32    31    32   ar
    33     4    17    1
    34     4     3   ar
    35    28    20    1
    36    28    27   ar
    37    17    18   ar
    38    20    19   ar
    39     2     3   ar
    40     2     8    1
    41    52    50    1
    42     3    11    1
    43    42    41   ar
    44    42    45    1
    45     8    10    1
    46     8     9    1
    47    41    50    1
    48    18    19   ar
    49    18    22    1
    50    19    25    1
    51    32    27   ar
    52    27    34    1
    53    50    53    1
    54    50    51    1
    55    25    26    1
    56    38    35    1
    57    34    35    1
    58    35    36    1
    59    35    37    1
