@<TRIPOS>MOLECULE
mol_data/opt/m06hf/geoms/mol2/13hl6ii4ee12he-.out
 56 59 0 0 0
SMALL
GASTEIGER

@<TRIPOS>ATOM
      1 C           0.9916    0.6074   -1.7640 C.ar    1  LIG1        0.0267
      2 C           0.8680    1.4045   -0.6509 C.ar    1  LIG1        0.0850
      3 C          -0.3878    1.0852   -0.0672 C.ar    1  LIG1        0.1658
      4 C          -0.9888    0.0957   -0.8205 C.ar    1  LIG1        0.0923
      5 N          -0.1289   -0.1804   -1.8461 N.ar    1  LIG1       -0.3560
      6 H          -0.3402   -0.7978   -2.6112 H       1  LIG1        0.1655
      7 H           1.7834    0.5364   -2.4885 H       1  LIG1        0.0827
      8 N           1.7730    2.3242   -0.0842 N.pl3   1  LIG1       -0.3540
      9 H           2.3729    2.7593   -0.7742 H       1  LIG1        0.1425
     10 H           1.2645    3.0376    0.4276 H       1  LIG1        0.1425
     11 O          -0.8768    1.6767    1.0669 O.3     1  LIG1       -0.4911
     12 C          -0.4959    0.9789    2.2542 C.3     1  LIG1        0.0790
     13 H          -0.8864    1.5528    3.0920 H       1  LIG1        0.0660
     14 H          -0.9300   -0.0225    2.2484 H       1  LIG1        0.0660
     15 H           0.5923    0.9139    2.3114 H       1  LIG1        0.0660
     16 C          -2.5704   -1.8887   -0.9038 C.ar    1  LIG1        0.0481
     17 C          -2.3030   -0.5386   -0.6185 C.ar    1  LIG1        0.0232
     18 C          -3.3311    0.2237   -0.0595 C.ar    1  LIG1       -0.0459
     19 C          -4.5892   -0.3232    0.1662 C.ar    1  LIG1       -0.0238
     20 C          -4.7621   -1.6613   -0.2129 C.ar    1  LIG1        0.0754
     21 N          -3.7767   -2.4129   -0.7003 N.ar    1  LIG1       -0.2509
     22 H          -3.1241    1.2514    0.2165 H       1  LIG1        0.0628
     23 C          -1.5217   -2.8530   -1.4258 C.3     1  LIG1       -0.0217
     24 H          -0.5435   -2.6395   -0.9952 H       1  LIG1        0.0293
     25 H          -1.4533   -2.7995   -2.5166 H       1  LIG1        0.0293
     26 H          -1.8395   -3.8594   -1.1631 H       1  LIG1        0.0293
     27 C          -5.6829    0.4968    0.8217 C.3     1  LIG1       -0.0377
     28 H          -6.3161   -0.1359    1.4441 H       1  LIG1        0.0278
     29 H          -6.3092    0.9676    0.0633 H       1  LIG1        0.0278
     30 H          -5.2339    1.2712    1.4433 H       1  LIG1        0.0278
     31 C          -7.2442   -1.9782   -0.6679 C.ar    1  LIG1        0.0346
     32 C          -8.4374   -2.6636   -0.4287 C.ar    1  LIG1       -0.0338
     33 C          -6.0662   -2.3715   -0.0161 C.ar    1  LIG1        0.0172
     34 C          -8.4798   -3.7594    0.4330 C.ar    1  LIG1        0.0357
     35 H          -9.3474   -2.3314   -0.9141 H       1  LIG1        0.0637
     36 C          -6.1064   -3.4768    0.8271 C.ar    1  LIG1       -0.0353
     37 C          -7.2908   -4.1792    1.0586 C.ar    1  LIG1        0.0361
     38 H          -5.1938   -3.8091    1.3037 H       1  LIG1        0.0637
     39 C          -7.2492   -0.8884   -1.6168 C.1     1  LIG1       -0.0690
     40 C          -7.2808    0.0016   -2.4243 C.1     1  LIG1       -0.1139
     41 H          -7.2990    0.7883   -3.1423 H       1  LIG1        0.1232
     42 C          -7.2412   -5.3408    1.9144 C.1     1  LIG1       -0.0689
     43 C          -7.1435   -6.3083    2.6198 C.1     1  LIG1       -0.1139
     44 H          -7.0677   -7.1677    3.2448 H       1  LIG1        0.1232
     45 C          -9.7666   -4.4356    0.6248 C.ar    1  LIG1        0.1578
     46 C         -10.8108   -4.6186   -0.2338 C.ar    1  LIG1        0.0866
     47 C         -11.8281   -5.3084    0.5254 C.ar    1  LIG1        0.0836
     48 C         -11.3069   -5.4785    1.7722 C.ar    1  LIG1        0.1098
     49 O         -10.0803   -4.9653    1.8407 O.2     1  LIG1       -0.4597
     50 H         -11.7031   -5.9374    2.6607 H       1  LIG1        0.1043
     51 N         -10.9394   -4.2153   -1.5626 N.pl3   1  LIG1       -0.3541
     52 H         -10.0787   -4.2916   -2.0925 H       1  LIG1        0.1425
     53 H         -11.7055   -4.6864   -2.0289 H       1  LIG1        0.1425
     54 C         -13.1000   -5.7254    0.0195 C.1     1  LIG1       -0.0646
     55 C         -14.1527   -6.0634   -0.4522 C.1     1  LIG1       -0.1138
     56 H         -15.0903   -6.3652   -0.8579 H       1  LIG1        0.1232
@<TRIPOS>BOND
     1    41    40    1
     2     6     5    1
     3    25    23    1
     4     7     1    1
     5    40    39    3
     6    52    51    1
     7    53    51    1
     8     5     1   ar
     9     5     4   ar
    10     1     2   ar
    11    39    31    1
    12    51    46    1
    13    23    26    1
    14    23    24    1
    15    23    16    1
    16    35    32    1
    17    16    21   ar
    18    16    17   ar
    19    56    55    1
    20     4    17    1
    21     4     3   ar
    22     9     8    1
    23    21    20   ar
    24    31    32   ar
    25    31    33   ar
    26     2     8    1
    27     2     3   ar
    28    17    18   ar
    29    55    54    3
    30    32    34   ar
    31    46    47   ar
    32    46    45   ar
    33    20    33    1
    34    20    19   ar
    35     8    10    1
    36     3    11    1
    37    18    19   ar
    38    18    22    1
    39    33    36   ar
    40    54    47    1
    41    29    27    1
    42    19    27    1
    43    34    45    1
    44    34    37   ar
    45    47    48   ar
    46    45    49   ar
    47    27    30    1
    48    27    28    1
    49    36    37   ar
    50    36    38    1
    51    37    42    1
    52    11    12    1
    53    48    49   ar
    54    48    50    1
    55    42    43    3
    56    14    12    1
    57    12    15    1
    58    12    13    1
    59    43    44    1
