@<TRIPOS>MOLECULE
mol_data/opt/m06hf/geoms/mol2/13hl13hl-13hl-13hl.out
 58 61 0 0 0
SMALL
GASTEIGER

@<TRIPOS>ATOM
      1 C           1.3712   -1.1241   -0.9407 C.ar    1  LIG1        0.0267
      2 C           1.0096   -0.1280   -1.8227 C.ar    1  LIG1        0.0851
      3 C          -0.3767    0.1098   -1.6123 C.ar    1  LIG1        0.1673
      4 C          -0.8058   -0.7418   -0.6195 C.ar    1  LIG1        0.1089
      5 N           0.2642   -1.4798   -0.2201 N.ar    1  LIG1       -0.3549
      6 H           0.1749   -2.1657    0.5217 H       1  LIG1        0.1655
      7 H           2.3277   -1.5884   -0.7757 H       1  LIG1        0.0827
      8 N           1.8028    0.6036   -2.7430 N.pl3   1  LIG1       -0.3540
      9 H           2.7695    0.2995   -2.7316 H       1  LIG1        0.1425
     10 H           1.4363    0.5111   -3.6856 H       1  LIG1        0.1425
     11 O          -1.1697    1.0219   -2.2659 O.3     1  LIG1       -0.4911
     12 C          -0.8242    2.3698   -1.9300 C.3     1  LIG1        0.0790
     13 H          -1.4558    3.0121   -2.5408 H       1  LIG1        0.0660
     14 H          -1.0189    2.5433   -0.8692 H       1  LIG1        0.0660
     15 H           0.2298    2.5439   -2.1506 H       1  LIG1        0.0660
     16 C          -2.1244   -0.8982   -0.0340 C.ar    1  LIG1        0.0916
     17 C          -2.5459   -1.7420    0.9736 C.ar    1  LIG1        0.0947
     18 C          -3.9276   -1.4741    1.1754 C.ar    1  LIG1        0.1679
     19 C          -4.3098   -0.4927    0.2816 C.ar    1  LIG1        0.1094
     20 N          -3.1882   -0.1622   -0.4441 N.ar    1  LIG1       -0.3473
     21 H          -3.1389    0.5012   -1.2061 H       1  LIG1        0.1662
     22 N          -1.6969   -2.6696    1.6593 N.pl3   1  LIG1       -0.3534
     23 H          -1.7450   -2.4998    2.6611 H       1  LIG1        0.1425
     24 H          -2.0243   -3.6206    1.5068 H       1  LIG1        0.1425
     25 O          -4.7040   -2.0786    2.1189 O.3     1  LIG1       -0.4911
     26 C          -5.5819   -3.0710    1.5847 C.3     1  LIG1        0.0790
     27 H          -6.1816   -3.4273    2.4198 H       1  LIG1        0.0660
     28 H          -6.2183   -2.6455    0.8054 H       1  LIG1        0.0660
     29 H          -4.9972   -3.8976    1.1693 H       1  LIG1        0.0660
     30 C          -5.6107    0.1492    0.0701 C.ar    1  LIG1        0.0917
     31 C          -6.7155   -0.3065   -0.6281 C.ar    1  LIG1        0.0947
     32 C          -7.6996    0.7095   -0.5387 C.ar    1  LIG1        0.1679
     33 C          -7.1731    1.7454    0.2081 C.ar    1  LIG1        0.1094
     34 N          -5.9136    1.3966    0.5590 N.ar    1  LIG1       -0.3473
     35 H          -5.3259    2.0040    1.1206 H       1  LIG1        0.1662
     36 N          -6.8683   -1.5619   -1.2525 N.pl3   1  LIG1       -0.3534
     37 H          -7.7529   -1.6260   -1.7422 H       1  LIG1        0.1425
     38 H          -6.0949   -1.7914   -1.8655 H       1  LIG1        0.1425
     39 O          -8.9482    0.7002   -1.1212 O.3     1  LIG1       -0.4911
     40 C          -8.9184    1.2033   -2.4579 C.3     1  LIG1        0.0790
     41 H          -9.9343    1.1329   -2.8423 H       1  LIG1        0.0660
     42 H          -8.5821    2.2422   -2.4573 H       1  LIG1        0.0660
     43 H          -8.2430    0.6036   -3.0709 H       1  LIG1        0.0660
     44 C          -7.7861    2.9962    0.6173 C.ar    1  LIG1        0.0912
     45 C          -7.2353    4.0602    1.2939 C.ar    1  LIG1        0.0940
     46 C          -8.2777    5.0179    1.4584 C.ar    1  LIG1        0.1585
     47 C          -9.4206    4.5074    0.8843 C.ar    1  LIG1        0.0463
     48 N          -9.0935    3.2742    0.3708 N.ar    1  LIG1       -0.3549
     49 H          -9.7194    2.6009   -0.0471 H       1  LIG1        0.1655
     50 H         -10.4152    4.9053    0.7999 H       1  LIG1        0.0845
     51 N          -5.8789    4.1255    1.7386 N.pl3   1  LIG1       -0.3535
     52 H          -5.3965    4.8981    1.2864 H       1  LIG1        0.1425
     53 H          -5.8533    4.3058    2.7394 H       1  LIG1        0.1425
     54 O          -8.0713    6.2019    2.0932 O.3     1  LIG1       -0.4918
     55 C          -9.2182    7.0200    2.2005 C.3     1  LIG1        0.0789
     56 H          -8.9136    7.9180    2.7315 H       1  LIG1        0.0660
     57 H          -9.5903    7.2838    1.2062 H       1  LIG1        0.0660
     58 H         -10.0019    6.5019    2.7605 H       1  LIG1        0.0660
@<TRIPOS>BOND
     1    10     8    1
     2    43    40    1
     3    41    40    1
     4     8     9    1
     5     8     2    1
     6    13    12    1
     7    40    42    1
     8    40    39    1
     9    11    12    1
    10    11     3    1
    11    15    12    1
    12    12    14    1
    13    38    36    1
    14     2     3   ar
    15     2     1   ar
    16    37    36    1
    17     3     4   ar
    18    36    31    1
    19    21    20    1
    20    39    32    1
    21     1     7    1
    22     1     5   ar
    23    31    32   ar
    24    31    30   ar
    25     4     5   ar
    26     4    16    1
    27    32    33   ar
    28    20    16   ar
    29    20    19   ar
    30     5     6    1
    31    49    48    1
    32    16    17   ar
    33    30    19    1
    34    30    34   ar
    35    33    34   ar
    36    33    44    1
    37    19    18   ar
    38    48    44   ar
    39    48    47   ar
    40    34    35    1
    41    44    45   ar
    42    50    47    1
    43    28    26    1
    44    47    46   ar
    45    17    18   ar
    46    17    22    1
    47    29    26    1
    48    18    25    1
    49    57    55    1
    50    52    51    1
    51    45    46   ar
    52    45    51    1
    53    46    54    1
    54    24    22    1
    55    26    25    1
    56    26    27    1
    57    22    23    1
    58    51    53    1
    59    54    55    1
    60    55    56    1
    61    55    58    1
