@<TRIPOS>MOLECULE
mol_data/opt/m06hf/geoms/mol2/13hl13hl13hl-13hl-.out
 58 61 0 0 0
SMALL
GASTEIGER

@<TRIPOS>ATOM
      1 C           1.2749   -0.0898    0.8527 C.ar    1  LIG1        0.0267
      2 C           1.0401    1.0550    0.1344 C.ar    1  LIG1        0.0851
      3 C          -0.3292    1.0174   -0.2653 C.ar    1  LIG1        0.1673
      4 C          -0.8869   -0.1474    0.2162 C.ar    1  LIG1        0.1089
      5 N           0.1050   -0.8088    0.8908 N.ar    1  LIG1       -0.3549
      6 H          -0.0552   -1.6176    1.4677 H       1  LIG1        0.1655
      7 H           2.1695   -0.4399    1.3372 H       1  LIG1        0.0827
      8 N           1.9093    2.1263   -0.1748 N.pl3   1  LIG1       -0.3540
      9 H           2.8720    1.9177    0.0609 H       1  LIG1        0.1425
     10 H           1.8465    2.3628   -1.1602 H       1  LIG1        0.1425
     11 O          -0.9384    1.9818   -1.0259 O.3     1  LIG1       -0.4911
     12 C          -1.1088    3.2066   -0.2965 C.3     1  LIG1        0.0790
     13 H          -1.5066    3.9304   -1.0065 H       1  LIG1        0.0660
     14 H          -1.8164    3.0417    0.5167 H       1  LIG1        0.0660
     15 H          -0.1447    3.5422    0.0876 H       1  LIG1        0.0660
     16 C          -2.2274   -0.7018    0.0873 C.ar    1  LIG1        0.0916
     17 C          -3.4412   -0.0657   -0.1084 C.ar    1  LIG1        0.0947
     18 C          -4.4296   -1.0848   -0.1146 C.ar    1  LIG1        0.1679
     19 C          -3.8022   -2.2953    0.0830 C.ar    1  LIG1        0.1094
     20 N          -2.4699   -2.0508    0.1948 N.ar    1  LIG1       -0.3473
     21 H          -1.8063   -2.8181    0.2303 H       1  LIG1        0.1662
     22 N          -3.6682    1.3171   -0.2263 N.pl3   1  LIG1       -0.3534
     23 H          -3.1077    1.7241   -0.9684 H       1  LIG1        0.1425
     24 H          -4.6545    1.5203   -0.3361 H       1  LIG1        0.1425
     25 O          -5.7821   -0.9105   -0.3008 O.3     1  LIG1       -0.4911
     26 C          -6.1360   -0.8994   -1.6850 C.3     1  LIG1        0.0790
     27 H          -7.2072   -0.7132   -1.7324 H       1  LIG1        0.0660
     28 H          -5.5927   -0.1081   -2.2049 H       1  LIG1        0.0660
     29 H          -5.8954   -1.8633   -2.1385 H       1  LIG1        0.0660
     30 C          -4.3571   -3.6310    0.1810 C.ar    1  LIG1        0.0917
     31 C          -3.7094   -4.8487    0.2320 C.ar    1  LIG1        0.0947
     32 C          -4.7181   -5.8406    0.3715 C.ar    1  LIG1        0.1679
     33 C          -5.9458   -5.2058    0.3863 C.ar    1  LIG1        0.1094
     34 N          -5.6934   -3.8582    0.2599 N.ar    1  LIG1       -0.3473
     35 H          -6.3816   -3.1172    0.2730 H       1  LIG1        0.1662
     36 N          -2.2876   -5.0112    0.1861 N.pl3   1  LIG1       -0.3534
     37 H          -1.9992   -5.6578    0.9162 H       1  LIG1        0.1425
     38 H          -2.0079   -5.4248   -0.7005 H       1  LIG1        0.1425
     39 O          -4.4699   -7.1733    0.5089 O.3     1  LIG1       -0.4911
     40 C          -4.7647   -7.9382   -0.6617 C.3     1  LIG1        0.0790
     41 H          -4.5165   -8.9693   -0.4199 H       1  LIG1        0.0660
     42 H          -5.8197   -7.8486   -0.9287 H       1  LIG1        0.0660
     43 H          -4.1440   -7.5928   -1.4940 H       1  LIG1        0.0660
     44 C          -7.2991   -5.7467    0.5420 C.ar    1  LIG1        0.0912
     45 C          -8.1078   -6.3944   -0.3649 C.ar    1  LIG1        0.0940
     46 C          -9.3227   -6.6965    0.3084 C.ar    1  LIG1        0.1585
     47 C          -9.2275   -6.2248    1.5991 C.ar    1  LIG1        0.0463
     48 N          -7.9990   -5.6433    1.7207 N.ar    1  LIG1       -0.3549
     49 H          -7.6044   -5.2738    2.5690 H       1  LIG1        0.1655
     50 H          -9.9241   -6.2552    2.4174 H       1  LIG1        0.0845
     51 N          -7.8129   -6.7542   -1.6957 N.pl3   1  LIG1       -0.3535
     52 H          -8.6613   -7.0106   -2.1886 H       1  LIG1        0.1425
     53 H          -7.3270   -6.0136   -2.1889 H       1  LIG1        0.1425
     54 O         -10.3466   -7.3293   -0.3295 O.3     1  LIG1       -0.4918
     55 C         -11.4832   -7.5755    0.4722 C.3     1  LIG1        0.0789
     56 H         -12.2036   -8.0920   -0.1567 H       1  LIG1        0.0660
     57 H         -11.2153   -8.2047    1.3262 H       1  LIG1        0.0660
     58 H         -11.9082   -6.6326    0.8288 H       1  LIG1        0.0660
@<TRIPOS>BOND
     1    28    26    1
     2    53    51    1
     3    52    51    1
     4    29    26    1
     5    27    26    1
     6    51    45    1
     7    26    25    1
     8    43    40    1
     9    10     8    1
    10    11    12    1
    11    11     3    1
    12    13    12    1
    13    23    22    1
    14    42    40    1
    15    38    36    1
    16    40    41    1
    17    40    39    1
    18    45    46   ar
    19    45    44   ar
    20    24    22    1
    21    54    46    1
    22    54    55    1
    23    25    18    1
    24    12    15    1
    25    12    14    1
    26     3     2   ar
    27     3     4   ar
    28    22    17    1
    29     8     9    1
    30     8     2    1
    31    56    55    1
    32    18    17   ar
    33    18    19   ar
    34    17    16   ar
    35    19    30    1
    36    19    20   ar
    37    16    20   ar
    38    16     4    1
    39     2     1   ar
    40    30    31   ar
    41    30    34   ar
    42    36    31    1
    43    36    37    1
    44    20    21    1
    45     4     5   ar
    46    31    32   ar
    47    34    35    1
    48    34    33   ar
    49    46    47   ar
    50    32    33   ar
    51    32    39    1
    52    33    44    1
    53    55    58    1
    54    55    57    1
    55    44    48   ar
    56     1     5   ar
    57     1     7    1
    58     5     6    1
    59    47    48   ar
    60    47    50    1
    61    48    49    1
