@<TRIPOS>MOLECULE
mol_data/opt/m06hf/geoms/mol2/13ia13ia13ia.out
 35 37 0 0 0
SMALL
GASTEIGER

@<TRIPOS>ATOM
      1 C           0.8195    0.0694    1.2680 C.ar    1  LIG1        0.0051
      2 C           0.8461    0.9096    0.1812 C.ar    1  LIG1       -0.0325
      3 C          -0.3908    0.7226   -0.5068 C.ar    1  LIG1       -0.0321
      4 C          -1.1209   -0.2163    0.1862 C.ar    1  LIG1        0.0634
      5 N          -0.3667   -0.6097    1.2615 N.ar    1  LIG1       -0.3593
      6 H          -0.7019   -1.2130    1.9953 H       1  LIG1        0.1654
      7 H           1.5531   -0.0901    2.0401 H       1  LIG1        0.0809
      8 C           1.9729    1.8337   -0.2124 C.3     1  LIG1       -0.0383
      9 H           1.6288    2.8683   -0.2441 H       1  LIG1        0.0278
     10 H           2.3603    1.5721   -1.1982 H       1  LIG1        0.0278
     11 H           2.7886    1.7638    0.5076 H       1  LIG1        0.0278
     12 H          -0.7046    1.1985   -1.4221 H       1  LIG1        0.0642
     13 C          -2.4497   -0.7829   -0.0662 C.ar    1  LIG1        0.0663
     14 C          -3.6623   -0.1654   -0.2966 C.ar    1  LIG1       -0.0231
     15 C          -4.6233   -1.2038   -0.4671 C.ar    1  LIG1       -0.0314
     16 C          -3.9744   -2.4117   -0.3288 C.ar    1  LIG1        0.0639
     17 N          -2.6554   -2.1390   -0.0872 N.ar    1  LIG1       -0.3517
     18 H          -1.9413   -2.8340    0.0661 H       1  LIG1        0.1660
     19 C          -3.9052    1.3223   -0.3494 C.3     1  LIG1       -0.0376
     20 H          -4.8063    1.5779    0.2095 H       1  LIG1        0.0278
     21 H          -4.0350    1.6605   -1.3792 H       1  LIG1        0.0278
     22 H          -3.0564    1.8513    0.0841 H       1  LIG1        0.0278
     23 H          -5.6733   -1.0877   -0.6834 H       1  LIG1        0.0642
     24 C          -4.4655   -3.7916   -0.4131 C.ar    1  LIG1        0.0658
     25 C          -5.5123   -4.4176    0.2288 C.ar    1  LIG1       -0.0238
     26 C          -5.5199   -5.7702   -0.2266 C.ar    1  LIG1       -0.0409
     27 C          -4.4867   -5.9171   -1.1187 C.ar    1  LIG1        0.0025
     28 N          -3.8497   -4.7160   -1.2215 N.ar    1  LIG1       -0.3593
     29 H          -3.1161   -4.4927   -1.8749 H       1  LIG1        0.1654
     30 H          -4.1588   -6.7734   -1.6820 H       1  LIG1        0.0807
     31 C          -6.4448   -3.7882    1.2338 C.3     1  LIG1       -0.0377
     32 H          -6.5508   -4.4321    2.1078 H       1  LIG1        0.0278
     33 H          -7.4352   -3.6334    0.8016 H       1  LIG1        0.0278
     34 H          -6.0510   -2.8225    1.5512 H       1  LIG1        0.0278
     35 H          -6.2042   -6.5433    0.0826 H       1  LIG1        0.0635
@<TRIPOS>BOND
     1    29    28    1
     2    30    27    1
     3    12     3    1
     4    21    19    1
     5    28    27   ar
     6    28    24   ar
     7    10     8    1
     8    27    26   ar
     9    23    15    1
    10     3     2   ar
    11     3     4   ar
    12    15    16   ar
    13    15    14   ar
    14    24    16    1
    15    24    25   ar
    16    19    14    1
    17    19    22    1
    18    19    20    1
    19    16    17   ar
    20    14    13   ar
    21     9     8    1
    22    26    35    1
    23    26    25   ar
    24     8     2    1
    25     8    11    1
    26    17    13   ar
    27    17    18    1
    28    13     4    1
    29     2     1   ar
    30     4     5   ar
    31    25    31    1
    32    33    31    1
    33    31    34    1
    34    31    32    1
    35     5     1   ar
    36     5     6    1
    37     1     7    1
