@<TRIPOS>MOLECULE
mol_data/opt/m06hf/geoms/mol2/13ia13ia-.out
 24 25 0 0 0
SMALL
GASTEIGER

@<TRIPOS>ATOM
      1 C           1.0988   -0.1932   -0.5652 C.ar    1  LIG1        0.0051
      2 C           0.7535    0.9966    0.0297 C.ar    1  LIG1       -0.0325
      3 C          -0.6455    0.9249    0.2991 C.ar    1  LIG1       -0.0321
      4 C          -1.0969   -0.2994   -0.1462 C.ar    1  LIG1        0.0634
      5 N          -0.0235   -0.9655   -0.6675 N.ar    1  LIG1       -0.3593
      6 H          -0.0872   -1.8662   -1.1136 H       1  LIG1        0.1654
      7 H           2.0544   -0.5415   -0.9186 H       1  LIG1        0.0809
      8 C           1.6807    2.1440    0.3490 C.3     1  LIG1       -0.0383
      9 H           1.6798    2.3550    1.4196 H       1  LIG1        0.0278
     10 H           1.3717    3.0484   -0.1773 H       1  LIG1        0.0278
     11 H           2.7000    1.9018    0.0473 H       1  LIG1        0.0278
     12 H          -1.2458    1.6700    0.7970 H       1  LIG1        0.0642
     13 C          -2.4391   -0.8869   -0.1453 C.ar    1  LIG1        0.0658
     14 C          -2.8789   -2.1623    0.1492 C.ar    1  LIG1       -0.0238
     15 C          -4.2958   -2.1513   -0.0131 C.ar    1  LIG1       -0.0409
     16 C          -4.6632   -0.8826   -0.3903 C.ar    1  LIG1        0.0025
     17 N          -3.5314   -0.1282   -0.4675 N.ar    1  LIG1       -0.3593
     18 H          -3.4734    0.8325   -0.7649 H       1  LIG1        0.1654
     19 H          -5.6303   -0.4634   -0.6071 H       1  LIG1        0.0807
     20 C          -2.0259   -3.3258    0.5960 C.3     1  LIG1       -0.0377
     21 H          -1.0845   -2.9667    1.0145 H       1  LIG1        0.0278
     22 H          -1.8069   -4.0030   -0.2336 H       1  LIG1        0.0278
     23 H          -2.5469   -3.8971    1.3648 H       1  LIG1        0.0278
     24 H          -4.9618   -2.9834    0.1468 H       1  LIG1        0.0635
@<TRIPOS>BOND
     1     6     5    1
     2     7     1    1
     3    18    17    1
     4     5     1   ar
     5     5     4   ar
     6    19    16    1
     7     1     2   ar
     8    17    16   ar
     9    17    13   ar
    10    16    15   ar
    11    22    20    1
    12    10     8    1
    13     4    13    1
    14     4     3   ar
    15    13    14   ar
    16    15    24    1
    17    15    14   ar
    18     2     3   ar
    19     2     8    1
    20    11     8    1
    21    14    20    1
    22     3    12    1
    23     8     9    1
    24    20    21    1
    25    20    23    1
