@<TRIPOS>MOLECULE
mol_data/opt/m06hf/geoms/mol2/13ia12hd6hi4ie-.out
 52 55 0 0 0
SMALL
GASTEIGER

@<TRIPOS>ATOM
      1 C           1.0795    0.0832   -0.3814 C.ar    1  LIG1        0.0052
      2 C           0.7358    1.2303    0.2969 C.ar    1  LIG1       -0.0325
      3 C          -0.6480    1.1160    0.6150 C.ar    1  LIG1       -0.0305
      4 C          -1.0876   -0.0902    0.1149 C.ar    1  LIG1        0.0824
      5 N          -0.0275   -0.7066   -0.4855 N.ar    1  LIG1       -0.3580
      6 H          -0.0859   -1.5997   -0.9482 H       1  LIG1        0.1654
      7 H           2.0267   -0.2223   -0.7924 H       1  LIG1        0.0809
      8 C           1.6525    2.3788    0.6412 C.3     1  LIG1       -0.0383
      9 H           1.6960    2.5269    1.7211 H       1  LIG1        0.0278
     10 H           1.3013    3.3041    0.1826 H       1  LIG1        0.0278
     11 H           2.6612    2.1774    0.2804 H       1  LIG1        0.0278
     12 H          -1.2478    1.8267    1.1603 H       1  LIG1        0.0642
     13 C          -2.4004   -0.7186    0.1327 C.ar    1  LIG1        0.1530
     14 C          -3.6574   -0.2603    0.3467 C.ar    1  LIG1        0.0017
     15 C          -4.5287   -1.4051    0.2318 C.ar    1  LIG1        0.0726
     16 C          -3.7238   -2.4667   -0.0706 C.ar    1  LIG1        0.1708
     17 O          -2.4331   -2.0549   -0.1225 O.2     1  LIG1       -0.4505
     18 H          -3.9548    0.7527    0.5545 H       1  LIG1        0.0668
     19 C          -5.9429   -1.4167    0.4501 C.1     1  LIG1       -0.0658
     20 C          -7.1246   -1.3774    0.6660 C.1     1  LIG1       -0.1138
     21 H          -8.1727   -1.3452    0.8534 H       1  LIG1        0.1232
     22 C          -3.9598   -3.8782   -0.3006 C.ar    1  LIG1        0.1297
     23 C          -5.0458   -4.5360   -0.8457 C.ar    1  LIG1        0.1904
     24 C          -4.7336   -5.9218   -0.8372 C.ar    1  LIG1        0.1851
     25 C          -3.4738   -6.0711   -0.2942 C.ar    1  LIG1        0.0932
     26 N          -3.0096   -4.8175   -0.0062 N.ar    1  LIG1       -0.3458
     27 H          -2.1382   -4.6218    0.4608 H       1  LIG1        0.1662
     28 O          -6.1503   -3.9441   -1.3597 O.3     1  LIG1       -0.4894
     29 C          -7.3720   -4.3998   -0.7807 C.3     1  LIG1        0.0791
     30 H          -8.1616   -3.8162   -1.2481 H       1  LIG1        0.0660
     31 H          -7.5107   -5.4616   -0.9873 H       1  LIG1        0.0660
     32 H          -7.3595   -4.2172    0.2955 H       1  LIG1        0.0660
     33 O          -5.5526   -6.8993   -1.3342 O.3     1  LIG1       -0.5019
     34 H          -5.0095   -7.6227   -1.6714 H       1  LIG1        0.2924
     35 C          -3.1714   -8.3974    0.5974 C.ar    1  LIG1       -0.0410
     36 C          -2.3627   -9.5243    0.6975 C.ar    1  LIG1       -0.0548
     37 C          -2.6603   -7.2928   -0.1151 C.ar    1  LIG1        0.0084
     38 C          -1.0806   -9.5795    0.1480 C.ar    1  LIG1       -0.0197
     39 H          -2.7322  -10.3880    1.2374 H       1  LIG1        0.0622
     40 C          -1.3818   -7.3312   -0.6630 C.ar    1  LIG1       -0.0105
     41 C          -0.5814   -8.4670   -0.5252 C.ar    1  LIG1        0.1207
     42 H          -0.9943   -6.4927   -1.2276 H       1  LIG1        0.0661
     43 H          -0.4923  -10.4790    0.2616 H       1  LIG1        0.0654
     44 C          -4.5227   -8.3411    1.2883 C.3     1  LIG1       -0.0391
     45 H          -4.6890   -9.2602    1.8495 H       1  LIG1        0.0278
     46 H          -5.3347   -8.2076    0.5725 H       1  LIG1        0.0278
     47 H          -4.5484   -7.4954    1.9781 H       1  LIG1        0.0278
     48 O           0.6522   -8.3968   -1.0885 O.3     1  LIG1       -0.4951
     49 C           1.4650   -9.5534   -1.0469 C.3     1  LIG1        0.0788
     50 H           2.3820   -9.2918   -1.5677 H       1  LIG1        0.0660
     51 H           1.6944   -9.8297   -0.0147 H       1  LIG1        0.0660
     52 H           0.9754  -10.3882   -1.5546 H       1  LIG1        0.0660
@<TRIPOS>BOND
     1    34    33    1
     2    50    49    1
     3    52    49    1
     4    28    23    1
     5    28    29    1
     6    33    24    1
     7    30    29    1
     8    42    40    1
     9    48    49    1
    10    48    41    1
    11    49    51    1
    12    31    29    1
    13     6     5    1
    14    23    24   ar
    15    23    22   ar
    16    24    25   ar
    17     7     1    1
    18    29    32    1
    19    40    41   ar
    20    40    37   ar
    21    41    38   ar
    22     5     1   ar
    23     5     4   ar
    24     1     2   ar
    25    22    16    1
    26    22    26   ar
    27    25    37    1
    28    25    26   ar
    29    17    16   ar
    30    17    13   ar
    31    37    35   ar
    32    16    15   ar
    33    26    27    1
    34     4    13    1
    35     4     3   ar
    36    13    14   ar
    37    38    43    1
    38    38    36   ar
    39    10     8    1
    40    15    14   ar
    41    15    19    1
    42    11     8    1
    43     2     3   ar
    44     2     8    1
    45    14    18    1
    46    19    20    3
    47    46    44    1
    48    35    36   ar
    49    35    44    1
    50     3    12    1
    51     8     9    1
    52    20    21    1
    53    36    39    1
    54    44    45    1
    55    44    47    1
