@<TRIPOS>MOLECULE
mol_data/opt/m06hf/geoms/mol2/13ia13ia-13ia.out
 35 37 0 0 0
SMALL
GASTEIGER

@<TRIPOS>ATOM
      1 C           1.1262   -0.3027   -0.7916 C.ar    1  LIG1        0.0051
      2 C           0.8604    0.9268   -0.2384 C.ar    1  LIG1       -0.0325
      3 C          -0.5046    0.8996    0.1758 C.ar    1  LIG1       -0.0321
      4 C          -1.0153   -0.3403   -0.1435 C.ar    1  LIG1        0.0634
      5 N          -0.0106   -1.0584   -0.7300 N.ar    1  LIG1       -0.3593
      6 H          -0.1332   -1.9814   -1.1143 H       1  LIG1        0.1654
      7 H           2.0352   -0.6898   -1.2195 H       1  LIG1        0.0809
      8 C           1.8323    2.0715   -0.0845 C.3     1  LIG1       -0.0383
      9 H           1.9695    2.3230    0.9681 H       1  LIG1        0.0278
     10 H           1.4676    2.9592   -0.6032 H       1  LIG1        0.0278
     11 H           2.8024    1.8025   -0.5029 H       1  LIG1        0.0278
     12 H          -1.0418    1.6855    0.6836 H       1  LIG1        0.0642
     13 C          -2.3589   -0.8964    0.0298 C.ar    1  LIG1        0.0663
     14 C          -2.7883   -2.1385    0.4586 C.ar    1  LIG1       -0.0231
     15 C          -4.2117   -2.1042    0.4407 C.ar    1  LIG1       -0.0314
     16 C          -4.6000   -0.8528    0.0066 C.ar    1  LIG1        0.0639
     17 N          -3.4642   -0.1380   -0.2388 N.ar    1  LIG1       -0.3517
     18 H          -3.4389    0.7787   -0.6580 H       1  LIG1        0.1660
     19 C          -1.9140   -3.2796    0.9215 C.3     1  LIG1       -0.0376
     20 H          -0.9205   -2.9113    1.1802 H       1  LIG1        0.0278
     21 H          -1.8157   -4.0468    0.1496 H       1  LIG1        0.0278
     22 H          -2.3478   -3.7466    1.8061 H       1  LIG1        0.0278
     23 H          -4.8776   -2.8892    0.7630 H       1  LIG1        0.0642
     24 C          -5.9290   -0.2796   -0.2142 C.ar    1  LIG1        0.0658
     25 C          -6.4465    0.9636    0.0909 C.ar    1  LIG1       -0.0238
     26 C          -7.8015    0.9590   -0.3534 C.ar    1  LIG1       -0.0409
     27 C          -8.0580   -0.2743   -0.9017 C.ar    1  LIG1        0.0025
     28 N          -6.9171   -1.0140   -0.8124 N.ar    1  LIG1       -0.3593
     29 H          -6.7792   -1.9457   -1.1689 H       1  LIG1        0.1654
     30 H          -8.9526   -0.6769   -1.3436 H       1  LIG1        0.0807
     31 C          -5.7257    2.0878    0.7966 C.3     1  LIG1       -0.0377
     32 H          -6.3962    2.5736    1.5061 H       1  LIG1        0.0278
     33 H          -5.3790    2.8452    0.0895 H       1  LIG1        0.0278
     34 H          -4.8659    1.7006    1.3452 H       1  LIG1        0.0278
     35 H          -8.5045    1.7709   -0.2627 H       1  LIG1        0.0635
@<TRIPOS>BOND
     1    30    27    1
     2     7     1    1
     3    29    28    1
     4     6     5    1
     5    27    28   ar
     6    27    26   ar
     7    28    24   ar
     8     1     5   ar
     9     1     2   ar
    10     5     4   ar
    11    18    17    1
    12    10     8    1
    13    11     8    1
    14    26    35    1
    15    26    25   ar
    16    17    16   ar
    17    17    13   ar
    18     2     8    1
    19     2     3   ar
    20    24    16    1
    21    24    25   ar
    22     4    13    1
    23     4     3   ar
    24     8     9    1
    25    16    15   ar
    26    13    14   ar
    27    33    31    1
    28    25    31    1
    29    21    19    1
    30     3    12    1
    31    15    14   ar
    32    15    23    1
    33    14    19    1
    34    31    34    1
    35    31    32    1
    36    19    20    1
    37    19    22    1
