@<TRIPOS>MOLECULE
mol_data/opt/m06hf/geoms/mol2/13ia13ia13ia-13ia.out
 46 49 0 0 0
SMALL
GASTEIGER

@<TRIPOS>ATOM
      1 C           1.2378   -0.0575    0.0420 C.ar    1  LIG1        0.0051
      2 C           0.8025    0.9715   -0.7574 C.ar    1  LIG1       -0.0325
      3 C          -0.6195    0.8637   -0.8200 C.ar    1  LIG1       -0.0321
      4 C          -0.9935   -0.2191   -0.0564 C.ar    1  LIG1        0.0634
      5 N           0.1500   -0.7742    0.4562 N.ar    1  LIG1       -0.3593
      6 H           0.1598   -1.5231    1.1295 H       1  LIG1        0.1654
      7 H           2.2359   -0.3283    0.3436 H       1  LIG1        0.0809
      8 C           1.6640    2.0012   -1.4473 C.3     1  LIG1       -0.0383
      9 H           1.3866    3.0080   -1.1322 H       1  LIG1        0.0278
     10 H           1.5482    1.9378   -2.5303 H       1  LIG1        0.0278
     11 H           2.7144    1.8412   -1.2033 H       1  LIG1        0.0278
     12 H          -1.2954    1.4881   -1.3822 H       1  LIG1        0.0642
     13 C          -2.3129   -0.7889    0.2289 C.ar    1  LIG1        0.0663
     14 C          -3.4851   -0.1864    0.6365 C.ar    1  LIG1       -0.0231
     15 C          -4.4522   -1.2247    0.7694 C.ar    1  LIG1       -0.0314
     16 C          -3.8428   -2.4165    0.4384 C.ar    1  LIG1        0.0639
     17 N          -2.5438   -2.1379    0.1198 N.ar    1  LIG1       -0.3517
     18 H          -1.9105   -2.7964   -0.3070 H       1  LIG1        0.1660
     19 C          -3.6805    1.2816    0.9217 C.3     1  LIG1       -0.0376
     20 H          -4.2485    1.4152    1.8430 H       1  LIG1        0.0278
     21 H          -4.2256    1.7666    0.1097 H       1  LIG1        0.0278
     22 H          -2.7117    1.7698    1.0286 H       1  LIG1        0.0278
     23 H          -5.4682   -1.1159    1.1155 H       1  LIG1        0.0642
     24 C          -4.3782   -3.7759    0.3658 C.ar    1  LIG1        0.0663
     25 C          -3.8256   -4.9983    0.7013 C.ar    1  LIG1       -0.0231
     26 C          -4.8178   -5.9813    0.4261 C.ar    1  LIG1       -0.0314
     27 C          -5.9332   -5.3321   -0.0629 C.ar    1  LIG1        0.0639
     28 N          -5.6465   -3.9983   -0.0920 N.ar    1  LIG1       -0.3517
     29 H          -6.2408   -3.2908   -0.4958 H       1  LIG1        0.1660
     30 C          -2.4593   -5.2342    1.2996 C.3     1  LIG1       -0.0376
     31 H          -2.1008   -4.3273    1.7887 H       1  LIG1        0.0278
     32 H          -1.7349   -5.5339    0.5381 H       1  LIG1        0.0278
     33 H          -2.5112   -6.0286    2.0446 H       1  LIG1        0.0278
     34 H          -4.7428   -7.0408    0.6151 H       1  LIG1        0.0642
     35 C          -7.2262   -5.8479   -0.5174 C.ar    1  LIG1        0.0658
     36 C          -8.5135   -5.4057   -0.2855 C.ar    1  LIG1       -0.0238
     37 C          -9.3808   -6.3023   -0.9763 C.ar    1  LIG1       -0.0409
     38 C          -8.5986   -7.2492   -1.5921 C.ar    1  LIG1        0.0025
     39 N          -7.2976   -6.9634   -1.3073 N.ar    1  LIG1       -0.3593
     40 H          -6.4891   -7.4517   -1.6563 H       1  LIG1        0.1654
     41 H          -8.8654   -8.0936   -2.2035 H       1  LIG1        0.0807
     42 C          -8.9169   -4.2289    0.5707 C.3     1  LIG1       -0.0377
     43 H          -9.8072   -4.4772    1.1492 H       1  LIG1        0.0278
     44 H          -9.1460   -3.3512   -0.0384 H       1  LIG1        0.0278
     45 H          -8.1148   -3.9744    1.2650 H       1  LIG1        0.0278
     46 H         -10.4573   -6.2566   -1.0000 H       1  LIG1        0.0635
@<TRIPOS>BOND
     1    10     8    1
     2    41    38    1
     3    40    39    1
     4    38    39   ar
     5    38    37   ar
     6     8    11    1
     7     8     9    1
     8     8     2    1
     9    12     3    1
    10    39    35   ar
    11    46    37    1
    12    37    36   ar
    13     3     2   ar
    14     3     4   ar
    15     2     1   ar
    16    35    36   ar
    17    35    27    1
    18    29    28    1
    19    18    17    1
    20    36    42    1
    21    28    27   ar
    22    28    24   ar
    23    27    26   ar
    24     4    13    1
    25     4     5   ar
    26    44    42    1
    27     1     7    1
    28     1     5   ar
    29    21    19    1
    30    17    13   ar
    31    17    16   ar
    32    13    14   ar
    33    24    16    1
    34    24    25   ar
    35    26    34    1
    36    26    25   ar
    37    16    15   ar
    38     5     6    1
    39    32    30    1
    40    42    43    1
    41    42    45    1
    42    14    15   ar
    43    14    19    1
    44    25    30    1
    45    15    23    1
    46    19    22    1
    47    19    20    1
    48    30    31    1
    49    30    33    1
