@<TRIPOS>MOLECULE
mol_data/opt/m06hf/geoms/mol2/13ia13ia13ia13ia.out
 46 49 0 0 0
SMALL
GASTEIGER

@<TRIPOS>ATOM
      1 C           0.4207    0.3711    1.9021 C.ar    1  LIG1        0.0051
      2 C           0.7791    0.9555    0.7117 C.ar    1  LIG1       -0.0325
      3 C          -0.2386    0.6159   -0.2302 C.ar    1  LIG1       -0.0321
      4 C          -1.1752   -0.1545    0.4210 C.ar    1  LIG1        0.0634
      5 N          -0.7551   -0.3014    1.7179 N.ar    1  LIG1       -0.3593
      6 H          -1.3080   -0.7266    2.4449 H       1  LIG1        0.1654
      7 H           0.9127    0.3884    2.8599 H       1  LIG1        0.0809
      8 C           2.0166    1.7803    0.4530 C.3     1  LIG1       -0.0383
      9 H           1.7479    2.7775    0.1018 H       1  LIG1        0.0278
     10 H           2.6441    1.3083   -0.3045 H       1  LIG1        0.0278
     11 H           2.6002    1.8832    1.3681 H       1  LIG1        0.0278
     12 H          -0.2736    0.8819   -1.2746 H       1  LIG1        0.0642
     13 C          -2.4200   -0.7677   -0.0529 C.ar    1  LIG1        0.0663
     14 C          -3.4853   -0.2240   -0.7418 C.ar    1  LIG1       -0.0231
     15 C          -4.4325   -1.2729   -0.9221 C.ar    1  LIG1       -0.0314
     16 C          -3.9238   -2.4119   -0.3367 C.ar    1  LIG1        0.0639
     17 N          -2.7002   -2.0892    0.1852 N.ar    1  LIG1       -0.3517
     18 H          -2.0937   -2.7284    0.6745 H       1  LIG1        0.1660
     19 C          -3.6088    1.2068   -1.2029 C.3     1  LIG1       -0.0376
     20 H          -4.6167    1.5779   -1.0135 H       1  LIG1        0.0278
     21 H          -3.4091    1.2903   -2.2731 H       1  LIG1        0.0278
     22 H          -2.8936    1.8319   -0.6683 H       1  LIG1        0.0278
     23 H          -5.3795   -1.2114   -1.4342 H       1  LIG1        0.0642
     24 C          -4.4722   -3.7678   -0.2261 C.ar    1  LIG1        0.0663
     25 C          -5.6908   -4.2069    0.2500 C.ar    1  LIG1       -0.0231
     26 C          -5.6836   -5.6272    0.1417 C.ar    1  LIG1       -0.0314
     27 C          -4.4688   -6.0084   -0.3850 C.ar    1  LIG1        0.0639
     28 N          -3.7444   -4.8681   -0.6035 N.ar    1  LIG1       -0.3517
     29 H          -2.8114   -4.8436   -0.9839 H       1  LIG1        0.1660
     30 C          -6.8047   -3.3401    0.7820 C.3     1  LIG1       -0.0376
     31 H          -7.1961   -3.7566    1.7108 H       1  LIG1        0.0278
     32 H          -7.6247   -3.2774    0.0642 H       1  LIG1        0.0278
     33 H          -6.4339   -2.3328    0.9732 H       1  LIG1        0.0278
     34 H          -6.4826   -6.3021    0.4038 H       1  LIG1        0.0642
     35 C          -3.9283   -7.3326   -0.7104 C.ar    1  LIG1        0.0658
     36 C          -3.8257   -8.4754    0.0530 C.ar    1  LIG1       -0.0238
     37 C          -3.2077   -9.4627   -0.7715 C.ar    1  LIG1       -0.0409
     38 C          -2.9563   -8.8897   -1.9935 C.ar    1  LIG1        0.0025
     39 N          -3.3895   -7.5978   -1.9462 N.ar    1  LIG1       -0.3593
     40 H          -3.4304   -6.9629   -2.7269 H       1  LIG1        0.1654
     41 H          -2.5106   -9.2965   -2.8845 H       1  LIG1        0.0807
     42 C          -4.2654   -8.6310    1.4875 C.3     1  LIG1       -0.0377
     43 H          -3.4844   -9.1182    2.0725 H       1  LIG1        0.0278
     44 H          -5.1696   -9.2391    1.5529 H       1  LIG1        0.0278
     45 H          -4.4739   -7.6524    1.9204 H       1  LIG1        0.0278
     46 H          -2.9689  -10.4738   -0.4852 H       1  LIG1        0.0635
@<TRIPOS>BOND
     1    41    38    1
     2    40    39    1
     3    21    19    1
     4    38    39   ar
     5    38    37   ar
     6    39    35   ar
     7    23    15    1
     8    12     3    1
     9    19    20    1
    10    19    14    1
    11    19    22    1
    12    29    28    1
    13    15    14   ar
    14    15    16   ar
    15    37    46    1
    16    37    36   ar
    17    14    13   ar
    18    35    27    1
    19    35    36   ar
    20    28    27   ar
    21    28    24   ar
    22    27    26   ar
    23    16    24    1
    24    16    17   ar
    25    10     8    1
    26     3     4   ar
    27     3     2   ar
    28    24    25   ar
    29    13    17   ar
    30    13     4    1
    31    36    42    1
    32    32    30    1
    33     9     8    1
    34    26    25   ar
    35    26    34    1
    36    17    18    1
    37    25    30    1
    38     4     5   ar
    39     8     2    1
    40     8    11    1
    41     2     1   ar
    42    30    33    1
    43    30    31    1
    44    42    44    1
    45    42    45    1
    46    42    43    1
    47     5     1   ar
    48     5     6    1
    49     1     7    1
