@<TRIPOS>MOLECULE
mol_data/opt/m06hf/geoms/mol2/13ia13ia13ia-13ia-.out
 46 49 0 0 0
SMALL
GASTEIGER

@<TRIPOS>ATOM
      1 C           1.1478    0.0571   -0.3469 C.ar    1  LIG1        0.0051
      2 C           0.5693    1.2484   -0.7123 C.ar    1  LIG1       -0.0325
      3 C          -0.8352    1.0981   -0.5079 C.ar    1  LIG1       -0.0321
      4 C          -1.0562   -0.1716   -0.0229 C.ar    1  LIG1        0.0634
      5 N           0.1612   -0.7952    0.0632 N.ar    1  LIG1       -0.3593
      6 H           0.3022   -1.7025    0.4775 H       1  LIG1        0.1654
      7 H           2.1823   -0.2421   -0.3486 H       1  LIG1        0.0809
      8 C           1.2844    2.4685   -1.2395 C.3     1  LIG1       -0.0383
      9 H           1.1249    3.3234   -0.5808 H       1  LIG1        0.0278
     10 H           0.9199    2.7303   -2.2339 H       1  LIG1        0.0278
     11 H           2.3562    2.2790   -1.3049 H       1  LIG1        0.0278
     12 H          -1.6040    1.8237   -0.7204 H       1  LIG1        0.0642
     13 C          -2.2910   -0.8602    0.3596 C.ar    1  LIG1        0.0663
     14 C          -3.3534   -0.4421    1.1346 C.ar    1  LIG1       -0.0231
     15 C          -4.2675   -1.5337    1.1961 C.ar    1  LIG1       -0.0314
     16 C          -3.7369   -2.5737    0.4623 C.ar    1  LIG1        0.0639
     17 N          -2.5356   -2.1520   -0.0341 N.ar    1  LIG1       -0.3517
     18 H          -2.0027   -2.6543   -0.7278 H       1  LIG1        0.1660
     19 C          -3.4855    0.8965    1.8173 C.3     1  LIG1       -0.0376
     20 H          -3.8936    0.7691    2.8205 H       1  LIG1        0.0278
     21 H          -4.1519    1.5567    1.2588 H       1  LIG1        0.0278
     22 H          -2.5077    1.3732    1.8900 H       1  LIG1        0.0278
     23 H          -5.1862   -1.5705    1.7608 H       1  LIG1        0.0642
     24 C          -4.2579   -3.9104    0.1718 C.ar    1  LIG1        0.0663
     25 C          -3.6373   -5.1453    0.1471 C.ar    1  LIG1       -0.0231
     26 C          -4.6421   -6.0986   -0.1823 C.ar    1  LIG1       -0.0314
     27 C          -5.8346   -5.4237   -0.3365 C.ar    1  LIG1        0.0639
     28 N          -5.5800   -4.0968   -0.1246 N.ar    1  LIG1       -0.3517
     29 H          -6.2714   -3.3625   -0.1214 H       1  LIG1        0.1660
     30 C          -2.1835   -5.4260    0.4429 C.3     1  LIG1       -0.0376
     31 H          -1.7553   -4.6131    1.0311 H       1  LIG1        0.0278
     32 H          -1.6030   -5.5407   -0.4758 H       1  LIG1        0.0278
     33 H          -2.0924   -6.3496    1.0149 H       1  LIG1        0.0278
     34 H          -4.5118   -7.1616   -0.3082 H       1  LIG1        0.0642
     35 C          -7.1784   -5.9051   -0.6699 C.ar    1  LIG1        0.0658
     36 C          -7.9232   -6.9330   -0.1328 C.ar    1  LIG1       -0.0238
     37 C          -9.1645   -6.9474   -0.8365 C.ar    1  LIG1       -0.0409
     38 C          -9.1314   -5.9367   -1.7651 C.ar    1  LIG1        0.0025
     39 N          -7.9270   -5.3071   -1.6541 N.ar    1  LIG1       -0.3593
     40 H          -7.5799   -4.5889   -2.2690 H       1  LIG1        0.1654
     41 H          -9.8626   -5.6200   -2.4885 H       1  LIG1        0.0807
     42 C          -7.5054   -7.8416    0.9966 C.3     1  LIG1       -0.0377
     43 H          -6.6437   -7.4194    1.5138 H       1  LIG1        0.0278
     44 H          -7.2347   -8.8305    0.6216 H       1  LIG1        0.0278
     45 H          -8.3230   -7.9588    1.7091 H       1  LIG1        0.0278
     46 H          -9.9884   -7.6201   -0.6625 H       1  LIG1        0.0635
@<TRIPOS>BOND
     1    41    38    1
     2    40    39    1
     3    10     8    1
     4    38    39   ar
     5    38    37   ar
     6    39    35   ar
     7    11     8    1
     8     8     2    1
     9     8     9    1
    10    37    46    1
    11    37    36   ar
    12    18    17    1
    13    12     3    1
    14     2     3   ar
    15     2     1   ar
    16    35    27    1
    17    35    36   ar
    18     3     4   ar
    19    32    30    1
    20     7     1    1
    21     1     5   ar
    22    27    26   ar
    23    27    28   ar
    24    34    26    1
    25    26    25   ar
    26    36    42    1
    27    28    29    1
    28    28    24   ar
    29    17    13   ar
    30    17    16   ar
    31     4     5   ar
    32     4    13    1
    33     5     6    1
    34    25    24   ar
    35    25    30    1
    36    24    16    1
    37    13    14   ar
    38    30    33    1
    39    30    31    1
    40    16    15   ar
    41    44    42    1
    42    42    43    1
    43    42    45    1
    44    14    15   ar
    45    14    19    1
    46    15    23    1
    47    21    19    1
    48    19    22    1
    49    19    20    1
