@<TRIPOS>MOLECULE
mol_data/opt/m06hf/geoms/mol2/13ia13ia.out
 24 25 0 0 0
SMALL
GASTEIGER

@<TRIPOS>ATOM
      1 C           1.0480   -0.1897    0.6632 C.ar    1  LIG1        0.0051
      2 C           0.8004    0.9376   -0.0817 C.ar    1  LIG1       -0.0325
      3 C          -0.5600    0.8537   -0.5060 C.ar    1  LIG1       -0.0321
      4 C          -1.0880   -0.3128   -0.0011 C.ar    1  LIG1        0.0634
      5 N          -0.0934   -0.9410    0.7028 N.ar    1  LIG1       -0.3593
      6 H          -0.2351   -1.7686    1.2589 H       1  LIG1        0.1654
      7 H           1.9471   -0.5065    1.1644 H       1  LIG1        0.0809
      8 C           1.7826    2.0389   -0.3974 C.3     1  LIG1       -0.0383
      9 H           1.4327    2.9928   -0.0001 H       1  LIG1        0.0278
     10 H           1.9115    2.1446   -1.4756 H       1  LIG1        0.0278
     11 H           2.7545    1.8179    0.0447 H       1  LIG1        0.0278
     12 H          -1.0905    1.5525   -1.1330 H       1  LIG1        0.0642
     13 C          -2.4267   -0.9001   -0.1203 C.ar    1  LIG1        0.0658
     14 C          -3.6724   -0.3576    0.1106 C.ar    1  LIG1       -0.0238
     15 C          -4.6222   -1.3900   -0.1538 C.ar    1  LIG1       -0.0409
     16 C          -3.9269   -2.5123   -0.5301 C.ar    1  LIG1        0.0025
     17 N          -2.5977   -2.2086   -0.5014 N.ar    1  LIG1       -0.3593
     18 H          -1.8502   -2.8039   -0.8190 H       1  LIG1        0.1654
     19 H          -4.2704   -3.4920   -0.8140 H       1  LIG1        0.0807
     20 C          -3.9594    1.0483    0.5759 C.3     1  LIG1       -0.0377
     21 H          -4.7055    1.0383    1.3715 H       1  LIG1        0.0278
     22 H          -4.3427    1.6592   -0.2438 H       1  LIG1        0.0278
     23 H          -3.0458    1.5087    0.9525 H       1  LIG1        0.0278
     24 H          -5.6931   -1.3099   -0.0635 H       1  LIG1        0.0635
@<TRIPOS>BOND
     1    10     8    1
     2    12     3    1
     3    18    17    1
     4    19    16    1
     5    16    17   ar
     6    16    15   ar
     7     3     2   ar
     8     3     4   ar
     9    17    13   ar
    10     8     2    1
    11     8     9    1
    12     8    11    1
    13    22    20    1
    14    15    24    1
    15    15    14   ar
    16    13     4    1
    17    13    14   ar
    18     2     1   ar
    19     4     5   ar
    20    14    20    1
    21    20    23    1
    22    20    21    1
    23     1     5   ar
    24     1     7    1
    25     5     6    1
