@<TRIPOS>MOLECULE
mol_data/opt/m06hf/geoms/mol2/13ia13ia-13ia13ia-.out
 46 49 0 0 0
SMALL
GASTEIGER

@<TRIPOS>ATOM
      1 C           1.0610   -0.1975   -1.1624 C.ar    1  LIG1        0.0051
      2 C           0.8553    1.0067   -0.5326 C.ar    1  LIG1       -0.0325
      3 C          -0.4472    0.9450    0.0462 C.ar    1  LIG1       -0.0321
      4 C          -0.9824   -0.2889   -0.2565 C.ar    1  LIG1        0.0634
      5 N          -0.0525   -0.9704   -0.9909 N.ar    1  LIG1       -0.3593
      6 H          -0.2129   -1.8792   -1.3937 H       1  LIG1        0.1654
      7 H           1.9140   -0.5551   -1.7141 H       1  LIG1        0.0809
      8 C           1.8287    2.1578   -0.4566 C.3     1  LIG1       -0.0383
      9 H           2.0632    2.3963    0.5818 H       1  LIG1        0.0278
     10 H           1.4102    3.0494   -0.9261 H       1  LIG1        0.0278
     11 H           2.7566    1.9023   -0.9685 H       1  LIG1        0.0278
     12 H          -0.9234    1.7028    0.6483 H       1  LIG1        0.0642
     13 C          -2.2888   -0.8695    0.0592 C.ar    1  LIG1        0.0663
     14 C          -2.6537   -2.1417    0.4580 C.ar    1  LIG1       -0.0231
     15 C          -4.0666   -2.1234    0.6315 C.ar    1  LIG1       -0.0314
     16 C          -4.5128   -0.8511    0.3363 C.ar    1  LIG1        0.0639
     17 N          -3.4222   -0.1074   -0.0089 N.ar    1  LIG1       -0.3517
     18 H          -3.4533    0.8334   -0.3698 H       1  LIG1        0.1660
     19 C          -1.7251   -3.3030    0.7218 C.3     1  LIG1       -0.0376
     20 H          -0.7120   -2.9420    0.9038 H       1  LIG1        0.0278
     21 H          -1.7062   -3.9991   -0.1204 H       1  LIG1        0.0278
     22 H          -2.0570   -3.8522    1.6032 H       1  LIG1        0.0278
     23 H          -4.6814   -2.9367    0.9846 H       1  LIG1        0.0642
     24 C          -5.8635   -0.2894    0.3324 C.ar    1  LIG1        0.0663
     25 C          -6.3425    0.9443    0.7327 C.ar    1  LIG1       -0.0231
     26 C          -7.7491    0.9228    0.5139 C.ar    1  LIG1       -0.0314
     27 C          -8.0790   -0.3119   -0.0072 C.ar    1  LIG1        0.0639
     28 N          -6.9236   -1.0304   -0.1103 N.ar    1  LIG1       -0.3517
     29 H          -6.8458   -1.9362   -0.5464 H       1  LIG1        0.1660
     30 C          -5.5389    2.0693    1.3403 C.3     1  LIG1       -0.0376
     31 H          -6.1185    2.5593    2.1230 H       1  LIG1        0.0278
     32 H          -5.2780    2.8231    0.5932 H       1  LIG1        0.0278
     33 H          -4.6205    1.6829    1.7844 H       1  LIG1        0.0278
     34 H          -8.4491    1.7057    0.7610 H       1  LIG1        0.0642
     35 C          -9.3673   -0.8678   -0.4261 C.ar    1  LIG1        0.0658
     36 C          -9.9313   -2.1111   -0.2195 C.ar    1  LIG1       -0.0238
     37 C         -11.2096   -2.0862   -0.8513 C.ar    1  LIG1       -0.0409
     38 C         -11.3765   -0.8415   -1.4086 C.ar    1  LIG1        0.0025
     39 N         -10.2553   -0.1142   -1.1448 N.ar    1  LIG1       -0.3593
     40 H         -10.0617    0.8216   -1.4621 H       1  LIG1        0.1654
     41 H         -12.1972   -0.4233   -1.9652 H       1  LIG1        0.0807
     42 C          -9.3261   -3.2535    0.5612 C.3     1  LIG1       -0.0377
     43 H          -8.5624   -2.8811    1.2454 H       1  LIG1        0.0278
     44 H          -8.8730   -3.9952   -0.1012 H       1  LIG1        0.0278
     45 H         -10.0979   -3.7541    1.1465 H       1  LIG1        0.0278
     46 H         -11.9242   -2.8927   -0.8759 H       1  LIG1        0.0635
@<TRIPOS>BOND
     1    41    38    1
     2     7     1    1
     3    40    39    1
     4    38    39   ar
     5    38    37   ar
     6     6     5    1
     7     1     5   ar
     8     1     2   ar
     9    39    35   ar
    10     5     4   ar
    11    11     8    1
    12    10     8    1
    13    46    37    1
    14    37    36   ar
    15    29    28    1
    16     2     8    1
    17     2     3   ar
    18     8     9    1
    19    35    36   ar
    20    35    27    1
    21    18    17    1
    22     4     3   ar
    23     4    13    1
    24    36    42    1
    25    21    19    1
    26    28    27   ar
    27    28    24   ar
    28    44    42    1
    29    17    13   ar
    30    17    16   ar
    31    27    26   ar
    32     3    12    1
    33    13    14   ar
    34    24    16    1
    35    24    25   ar
    36    16    15   ar
    37    14    15   ar
    38    14    19    1
    39    26    25   ar
    40    26    34    1
    41    42    45    1
    42    42    43    1
    43    32    30    1
    44    15    23    1
    45    19    20    1
    46    19    22    1
    47    25    30    1
    48    30    33    1
    49    30    31    1
