@<TRIPOS>MOLECULE
mol_data/opt/m06hf/geoms/mol2/13ia13ia-13ia-13ia-.out
 46 49 0 0 0
SMALL
GASTEIGER

@<TRIPOS>ATOM
      1 C           1.1379    0.2697   -0.2130 C.ar    1  LIG1        0.0051
      2 C           0.7981    0.7665    1.0228 C.ar    1  LIG1       -0.0325
      3 C          -0.5677    0.4151    1.2393 C.ar    1  LIG1       -0.0321
      4 C          -1.0051   -0.2750    0.1291 C.ar    1  LIG1        0.0634
      5 N           0.0452   -0.3552   -0.7427 N.ar    1  LIG1       -0.3593
      6 H          -0.0200   -0.7601   -1.6625 H       1  LIG1        0.1654
      7 H           2.0725    0.3153   -0.7461 H       1  LIG1        0.0809
      8 C           1.7024    1.5161    1.9707 C.3     1  LIG1       -0.0383
      9 H           1.7929    0.9831    2.9182 H       1  LIG1        0.0278
     10 H           1.3073    2.5123    2.1753 H       1  LIG1        0.0278
     11 H           2.6980    1.6228    1.5398 H       1  LIG1        0.0278
     12 H          -1.1514    0.6112    2.1251 H       1  LIG1        0.0642
     13 C          -2.3166   -0.8423   -0.1950 C.ar    1  LIG1        0.0663
     14 C          -2.6772   -2.0646   -0.7300 C.ar    1  LIG1       -0.0231
     15 C          -4.0987   -2.0680   -0.8146 C.ar    1  LIG1       -0.0314
     16 C          -4.5569   -0.8645   -0.3222 C.ar    1  LIG1        0.0639
     17 N          -3.4611   -0.1316    0.0426 N.ar    1  LIG1       -0.3517
     18 H          -3.4828    0.7740    0.4850 H       1  LIG1        0.1660
     19 C          -1.7426   -3.1870   -1.1137 C.3     1  LIG1       -0.0376
     20 H          -0.7737   -3.0526   -0.6312 H       1  LIG1        0.0278
     21 H          -1.5946   -3.2330   -2.1954 H       1  LIG1        0.0278
     22 H          -2.1574   -4.1422   -0.7911 H       1  LIG1        0.0278
     23 H          -4.7237   -2.8559   -1.2032 H       1  LIG1        0.0642
     24 C          -5.9169   -0.3358   -0.1802 C.ar    1  LIG1        0.0663
     25 C          -7.0453   -0.8933    0.3861 C.ar    1  LIG1       -0.0231
     26 C          -8.0867    0.0699    0.2530 C.ar    1  LIG1       -0.0314
     27 C          -7.5640    1.1785   -0.3768 C.ar    1  LIG1        0.0639
     28 N          -6.2463    0.9158   -0.6351 N.ar    1  LIG1       -0.3517
     29 H          -5.6099    1.5556   -1.0843 H       1  LIG1        0.1660
     30 C          -7.1406   -2.2551    1.0275 C.3     1  LIG1       -0.0376
     31 H          -6.1414   -2.6457    1.2217 H       1  LIG1        0.0278
     32 H          -7.6684   -2.9565    0.3785 H       1  LIG1        0.0278
     33 H          -7.6836   -2.1891    1.9710 H       1  LIG1        0.0278
     34 H          -9.1122   -0.0354    0.5690 H       1  LIG1        0.0642
     35 C          -8.1823    2.4497   -0.7701 C.ar    1  LIG1        0.0658
     36 C          -8.9088    3.3629   -0.0369 C.ar    1  LIG1       -0.0238
     37 C          -9.2551    4.4202   -0.9309 C.ar    1  LIG1       -0.0409
     38 C          -8.7303    4.1159   -2.1625 C.ar    1  LIG1        0.0025
     39 N          -8.0765    2.9242   -2.0548 N.ar    1  LIG1       -0.3593
     40 H          -7.6737    2.4034   -2.8171 H       1  LIG1        0.1654
     41 H          -8.7713    4.6483   -3.0968 H       1  LIG1        0.0807
     42 C          -9.2448    3.2632    1.4301 C.3     1  LIG1       -0.0377
     43 H          -8.6820    2.4479    1.8849 H       1  LIG1        0.0278
     44 H         -10.3100    3.0726    1.5720 H       1  LIG1        0.0278
     45 H          -8.9942    4.1939    1.9412 H       1  LIG1        0.0278
     46 H          -9.8184    5.3052   -0.6839 H       1  LIG1        0.0635
@<TRIPOS>BOND
     1    41    38    1
     2    40    39    1
     3    21    19    1
     4    38    39   ar
     5    38    37   ar
     6    39    35   ar
     7     6     5    1
     8    23    15    1
     9    19    22    1
    10    19    14    1
    11    19    20    1
    12    29    28    1
    13    37    46    1
    14    37    36   ar
    15    15    14   ar
    16    15    16   ar
    17    35    27    1
    18    35    36   ar
    19     7     1    1
    20     5     1   ar
    21     5     4   ar
    22    14    13   ar
    23    28    27   ar
    24    28    24   ar
    25    27    26   ar
    26    16    24    1
    27    16    17   ar
    28     1     2   ar
    29    13    17   ar
    30    13     4    1
    31    24    25   ar
    32    36    42    1
    33    17    18    1
    34     4     3   ar
    35    26    25   ar
    36    26    34    1
    37    32    30    1
    38    25    30    1
    39     2     3   ar
    40     2     8    1
    41    30    31    1
    42    30    33    1
    43     3    12    1
    44    42    44    1
    45    42    43    1
    46    42    45    1
    47    11     8    1
    48     8    10    1
    49     8     9    1
