@<TRIPOS>MOLECULE
mol_data/opt/m06hf/geoms/mol2/13ia13ia13ia13ia-.out
 46 49 0 0 0
SMALL
GASTEIGER

@<TRIPOS>ATOM
      1 C           0.6667    0.5256    1.3749 C.ar    1  LIG1        0.0051
      2 C           0.7942    1.1040    0.1351 C.ar    1  LIG1       -0.0325
      3 C          -0.3630    0.7258   -0.6104 C.ar    1  LIG1       -0.0321
      4 C          -1.1487   -0.0607    0.2012 C.ar    1  LIG1        0.0634
      5 N          -0.5036   -0.1797    1.4053 N.ar    1  LIG1       -0.3593
      6 H          -0.9070   -0.6131    2.2202 H       1  LIG1        0.1654
      7 H           1.3190    0.5681    2.2309 H       1  LIG1        0.0809
      8 C           1.9435    1.9562   -0.3452 C.3     1  LIG1       -0.0383
      9 H           1.5917    2.9449   -0.6432 H       1  LIG1        0.0278
     10 H           2.4336    1.4944   -1.2036 H       1  LIG1        0.0278
     11 H           2.6813    2.0780    0.4483 H       1  LIG1        0.0278
     12 H          -0.5878    0.9769   -1.6346 H       1  LIG1        0.0642
     13 C          -2.4385   -0.7162   -0.0399 C.ar    1  LIG1        0.0663
     14 C          -3.6335   -0.2110   -0.5099 C.ar    1  LIG1       -0.0231
     15 C          -4.5581   -1.2949   -0.5240 C.ar    1  LIG1       -0.0314
     16 C          -3.9062   -2.4163   -0.0583 C.ar    1  LIG1        0.0639
     17 N          -2.6199   -2.0494    0.2301 N.ar    1  LIG1       -0.3517
     18 H          -1.9089   -2.6669    0.5894 H       1  LIG1        0.1660
     19 C          -3.8982    1.2169   -0.9167 C.3     1  LIG1       -0.0376
     20 H          -4.8233    1.5733   -0.4620 H       1  LIG1        0.0278
     21 H          -3.9962    1.3009   -2.0008 H       1  LIG1        0.0278
     22 H          -3.0757    1.8539   -0.5915 H       1  LIG1        0.0278
     23 H          -5.5845   -1.2678   -0.8541 H       1  LIG1        0.0642
     24 C          -4.3697   -3.7928    0.1335 C.ar    1  LIG1        0.0663
     25 C          -5.5038   -4.2816    0.7487 C.ar    1  LIG1       -0.0231
     26 C          -5.4330   -5.7020    0.6637 C.ar    1  LIG1       -0.0314
     27 C          -4.2679   -6.0306    0.0034 C.ar    1  LIG1        0.0639
     28 N          -3.6310   -4.8628   -0.3068 N.ar    1  LIG1       -0.3517
     29 H          -2.8291   -4.8008   -0.9154 H       1  LIG1        0.1660
     30 C          -6.5813   -3.4629    1.4147 C.3     1  LIG1       -0.0376
     31 H          -6.8622   -3.9125    2.3677 H       1  LIG1        0.0278
     32 H          -7.4728   -3.4080    0.7869 H       1  LIG1        0.0278
     33 H          -6.2212   -2.4494    1.5934 H       1  LIG1        0.0278
     34 H          -6.1330   -6.4065    1.0843 H       1  LIG1        0.0642
     35 C          -3.7152   -7.3309   -0.3811 C.ar    1  LIG1        0.0658
     36 C          -2.4280   -7.8284   -0.3276 C.ar    1  LIG1       -0.0238
     37 C          -2.4875   -9.1620   -0.8284 C.ar    1  LIG1       -0.0409
     38 C          -3.7943   -9.4257   -1.1603 C.ar    1  LIG1        0.0025
     39 N          -4.5264   -8.3107   -0.8852 N.ar    1  LIG1       -0.3593
     40 H          -5.5087   -8.1819   -1.0673 H       1  LIG1        0.1654
     41 H          -4.2530  -10.3095   -1.5680 H       1  LIG1        0.0807
     42 C          -1.2074   -7.1103    0.1969 C.3     1  LIG1       -0.0377
     43 H          -1.5043   -6.2939    0.8571 H       1  LIG1        0.0278
     44 H          -0.6034   -6.7024   -0.6173 H       1  LIG1        0.0278
     45 H          -0.5831   -7.8009    0.7642 H       1  LIG1        0.0278
     46 H          -1.6607   -9.8477   -0.9185 H       1  LIG1        0.0635
@<TRIPOS>BOND
     1    21    19    1
     2    12     3    1
     3    41    38    1
     4    10     8    1
     5    38    39   ar
     6    38    37   ar
     7    40    39    1
     8    46    37    1
     9    19    22    1
    10    19    14    1
    11    19    20    1
    12    29    28    1
    13    39    35   ar
    14    23    15    1
    15    37    36   ar
    16     9     8    1
    17    44    42    1
    18     3     2   ar
    19     3     4   ar
    20    15    14   ar
    21    15    16   ar
    22    14    13   ar
    23    35    36   ar
    24    35    27    1
    25     8     2    1
    26     8    11    1
    27    36    42    1
    28    28    27   ar
    29    28    24   ar
    30    16    24    1
    31    16    17   ar
    32    13     4    1
    33    13    17   ar
    34    27    26   ar
    35    24    25   ar
    36     2     1   ar
    37    42    45    1
    38    42    43    1
    39     4     5   ar
    40    17    18    1
    41    26    25   ar
    42    26    34    1
    43    25    30    1
    44    32    30    1
    45     1     5   ar
    46     1     7    1
    47     5     6    1
    48    30    33    1
    49    30    31    1
