@<TRIPOS>MOLECULE
mol_data/opt/m06hf/geoms/mol2/13ia13ia-4ia13ia.out
 48 51 0 0 0
SMALL
GASTEIGER

@<TRIPOS>ATOM
      1 C           1.1727   -0.7351   -1.0635 C.ar    1  LIG1        0.0051
      2 C           1.0284    0.6106   -0.8250 C.ar    1  LIG1       -0.0325
      3 C          -0.2825    0.7899   -0.2916 C.ar    1  LIG1       -0.0321
      4 C          -0.8834   -0.4492   -0.2294 C.ar    1  LIG1        0.0634
      5 N           0.0157   -1.3645   -0.7011 N.ar    1  LIG1       -0.3593
      6 H          -0.1928   -2.3421   -0.8236 H       1  LIG1        0.1654
      7 H           2.0102   -1.2837   -1.4596 H       1  LIG1        0.0809
      8 C           2.0648    1.6815   -1.0654 C.3     1  LIG1       -0.0383
      9 H           2.3293    2.1799   -0.1316 H       1  LIG1        0.0278
     10 H           1.6882    2.4339   -1.7599 H       1  LIG1        0.0278
     11 H           2.9686    1.2436   -1.4893 H       1  LIG1        0.0278
     12 H          -0.7230    1.7155    0.0443 H       1  LIG1        0.0642
     13 C          -2.2246   -0.8460    0.2041 C.ar    1  LIG1        0.0663
     14 C          -2.6608   -1.9113    0.9687 C.ar    1  LIG1       -0.0232
     15 C          -4.0766   -1.7916    1.0578 C.ar    1  LIG1       -0.0329
     16 C          -4.4554   -0.6629    0.3612 C.ar    1  LIG1        0.0475
     17 N          -3.3174   -0.1025   -0.1461 N.ar    1  LIG1       -0.3528
     18 H          -3.2859    0.6764   -0.7853 H       1  LIG1        0.1660
     19 C          -1.7944   -2.9586    1.6267 C.3     1  LIG1       -0.0376
     20 H          -0.7669   -2.6016    1.7078 H       1  LIG1        0.0278
     21 H          -1.7989   -3.8941    1.0619 H       1  LIG1        0.0278
     22 H          -2.1641   -3.1713    2.6301 H       1  LIG1        0.0278
     23 H          -4.7444   -2.4355    1.6080 H       1  LIG1        0.0641
     24 C          -6.0926    1.2592    0.3649 C.ar    1  LIG1       -0.0407
     25 C          -7.3848    1.7200    0.1165 C.ar    1  LIG1       -0.0491
     26 C          -5.8018   -0.0945    0.1254 C.ar    1  LIG1        0.0013
     27 C          -8.3994    0.8701   -0.3300 C.ar    1  LIG1       -0.0012
     28 H          -7.6125    2.7689    0.2673 H       1  LIG1        0.0627
     29 C          -6.8137   -0.9491   -0.3227 C.ar    1  LIG1       -0.0518
     30 C          -8.1019   -0.4807   -0.5377 C.ar    1  LIG1       -0.0520
     31 H          -6.5726   -1.9893   -0.4994 H       1  LIG1        0.0624
     32 C          -5.0449    2.2223    0.8991 C.3     1  LIG1       -0.0391
     33 H          -5.5337    3.0384    1.4304 H       1  LIG1        0.0278
     34 H          -4.4572    2.6577    0.0865 H       1  LIG1        0.0278
     35 H          -4.3653    1.7084    1.5793 H       1  LIG1        0.0278
     36 H          -8.8841   -1.1635   -0.8464 H       1  LIG1        0.0624
     37 C          -9.7582    1.3908   -0.5784 C.ar    1  LIG1        0.0494
     38 C         -10.5438    2.2695    0.1420 C.ar    1  LIG1       -0.0252
     39 C         -11.7768    2.3890   -0.5642 C.ar    1  LIG1       -0.0409
     40 C         -11.7002    1.5903   -1.6785 C.ar    1  LIG1        0.0024
     41 N         -10.4796    0.9849   -1.6715 N.ar    1  LIG1       -0.3604
     42 H         -10.1122    0.3949   -2.4003 H       1  LIG1        0.1653
     43 H         -12.4100    1.4085   -2.4667 H       1  LIG1        0.0807
     44 C         -10.1969    2.9348    1.4528 C.3     1  LIG1       -0.0377
     45 H         -11.0848    2.9926    2.0831 H       1  LIG1        0.0278
     46 H          -9.8250    3.9502    1.2974 H       1  LIG1        0.0278
     47 H          -9.4333    2.3634    1.9814 H       1  LIG1        0.0278
     48 H         -12.6233    2.9879   -0.2698 H       1  LIG1        0.0635
@<TRIPOS>BOND
     1    43    40    1
     2    42    41    1
     3    10     8    1
     4    40    41   ar
     5    40    39   ar
     6    41    37   ar
     7    11     8    1
     8     7     1    1
     9     8     2    1
    10     8     9    1
    11     1     2   ar
    12     1     5   ar
    13    36    30    1
    14     2     3   ar
    15     6     5    1
    16    18    17    1
    17     5     4   ar
    18    37    27    1
    19    37    38   ar
    20    39    48    1
    21    39    38   ar
    22    30    27   ar
    23    30    29   ar
    24    31    29    1
    25    27    25   ar
    26    29    26   ar
    27     3     4   ar
    28     3    12    1
    29     4    13    1
    30    17    13   ar
    31    17    16   ar
    32    34    32    1
    33    25    28    1
    34    25    24   ar
    35    26    16    1
    36    26    24   ar
    37    38    44    1
    38    13    14   ar
    39    16    15   ar
    40    24    32    1
    41    32    33    1
    42    32    35    1
    43    14    15   ar
    44    14    19    1
    45    15    23    1
    46    21    19    1
    47    46    44    1
    48    44    47    1
    49    44    45    1
    50    19    20    1
    51    19    22    1
