@<TRIPOS>MOLECULE
mol_data/opt/m06hf/geoms/mol2/13ia13ia-13ia-13ia.out
 46 49 0 0 0
SMALL
GASTEIGER

@<TRIPOS>ATOM
      1 C           1.1635    0.0370   -0.7199 C.ar    1  LIG1        0.0051
      2 C           0.9870    0.6639    0.4907 C.ar    1  LIG1       -0.0325
      3 C          -0.3574    0.4025    0.8903 C.ar    1  LIG1       -0.0321
      4 C          -0.9456   -0.3665   -0.0911 C.ar    1  LIG1        0.0634
      5 N          -0.0062   -0.5800   -1.0612 N.ar    1  LIG1       -0.3593
      6 H          -0.1922   -1.0654   -1.9238 H       1  LIG1        0.1654
      7 H           2.0314   -0.0137   -1.3552 H       1  LIG1        0.0809
      8 C           2.0223    1.4530    1.2548 C.3     1  LIG1       -0.0383
      9 H           2.1948    1.0108    2.2370 H       1  LIG1        0.0278
     10 H           1.6953    2.4842    1.3968 H       1  LIG1        0.0278
     11 H           2.9675    1.4636    0.7117 H       1  LIG1        0.0278
     12 H          -0.8280    0.7091    1.8113 H       1  LIG1        0.0642
     13 C          -2.3059   -0.8984   -0.2078 C.ar    1  LIG1        0.0663
     14 C          -2.7714   -2.1473   -0.5735 C.ar    1  LIG1       -0.0231
     15 C          -4.1920   -2.0917   -0.4929 C.ar    1  LIG1       -0.0314
     16 C          -4.5442   -0.8263   -0.0731 C.ar    1  LIG1        0.0639
     17 N          -3.3877   -0.1150    0.0879 N.ar    1  LIG1       -0.3517
     18 H          -3.3260    0.8314    0.4297 H       1  LIG1        0.1660
     19 C          -1.9312   -3.3437   -0.9509 C.3     1  LIG1       -0.0376
     20 H          -0.9060   -3.2097   -0.6037 H       1  LIG1        0.0278
     21 H          -1.9201   -3.4995   -2.0324 H       1  LIG1        0.0278
     22 H          -2.3360   -4.2434   -0.4867 H       1  LIG1        0.0278
     23 H          -4.8862   -2.8822   -0.7286 H       1  LIG1        0.0642
     24 C          -5.8553   -0.2227    0.1761 C.ar    1  LIG1        0.0663
     25 C          -6.9411   -0.6889    0.8882 C.ar    1  LIG1       -0.0231
     26 C          -7.9427    0.3214    0.8119 C.ar    1  LIG1       -0.0314
     27 C          -7.4393    1.3622    0.0596 C.ar    1  LIG1        0.0639
     28 N          -6.1710    1.0204   -0.3135 N.ar    1  LIG1       -0.3517
     29 H          -5.6243    1.5316   -0.9896 H       1  LIG1        0.1660
     30 C          -7.0226   -1.9953    1.6376 C.3     1  LIG1       -0.0376
     31 H          -6.0232   -2.4101    1.7713 H       1  LIG1        0.0278
     32 H          -7.6297   -2.7209    1.0926 H       1  LIG1        0.0278
     33 H          -7.4748   -1.8397    2.6177 H       1  LIG1        0.0278
     34 H          -8.9059    0.3086    1.2970 H       1  LIG1        0.0642
     35 C          -8.0475    2.6254   -0.3627 C.ar    1  LIG1        0.0658
     36 C          -7.5334    3.9045   -0.4478 C.ar    1  LIG1       -0.0238
     37 C          -8.5896    4.7354   -0.9243 C.ar    1  LIG1       -0.0409
     38 C          -9.6967    3.9422   -1.1046 C.ar    1  LIG1        0.0025
     39 N          -9.3554    2.6686   -0.7619 N.ar    1  LIG1       -0.3593
     40 H          -9.9425    1.8538   -0.8363 H       1  LIG1        0.1654
     41 H         -10.6878    4.1821   -1.4477 H       1  LIG1        0.0807
     42 C          -6.1377    4.3412   -0.0702 C.3     1  LIG1       -0.0377
     43 H          -6.1721    5.3133    0.4222 H       1  LIG1        0.0278
     44 H          -5.4962    4.4337   -0.9501 H       1  LIG1        0.0278
     45 H          -5.6895    3.6229    0.6179 H       1  LIG1        0.0278
     46 H          -8.5360    5.7975   -1.0989 H       1  LIG1        0.0635
@<TRIPOS>BOND
     1    21    19    1
     2     6     5    1
     3    41    38    1
     4     7     1    1
     5    38    37   ar
     6    38    39   ar
     7    46    37    1
     8     5     1   ar
     9     5     4   ar
    10    29    28    1
    11    19    20    1
    12    19    14    1
    13    19    22    1
    14    44    42    1
    15    37    36   ar
    16    40    39    1
    17    39    35   ar
    18    23    15    1
    19     1     2   ar
    20    14    15   ar
    21    14    13   ar
    22    15    16   ar
    23    36    35   ar
    24    36    42    1
    25    35    27    1
    26    28    27   ar
    27    28    24   ar
    28    13     4    1
    29    13    17   ar
    30     4     3   ar
    31    16    17   ar
    32    16    24    1
    33    42    43    1
    34    42    45    1
    35    27    26   ar
    36    17    18    1
    37    24    25   ar
    38     2     3   ar
    39     2     8    1
    40    11     8    1
    41    26    25   ar
    42    26    34    1
    43    25    30    1
    44     3    12    1
    45    32    30    1
    46     8    10    1
    47     8     9    1
    48    30    31    1
    49    30    33    1
