@<TRIPOS>MOLECULE
mol_data/opt/m06hf/geoms/mol2/13id12ef6fe-12hh-.out
 47 50 0 0 0
SMALL
GASTEIGER

@<TRIPOS>ATOM
      1 C           0.9813   -0.1021    1.2266 C.ar    1  LIG1        0.0064
      2 C           0.8199    1.1029    0.5913 C.ar    1  LIG1       -0.0151
      3 C          -0.4878    1.0738    0.0169 C.ar    1  LIG1        0.0829
      4 C          -1.0687   -0.1437    0.3335 C.ar    1  LIG1        0.1013
      5 N          -0.1565   -0.8393    1.0629 N.ar    1  LIG1       -0.3569
      6 H          -0.3249   -1.7632    1.4318 H       1  LIG1        0.1655
      7 H           1.8225   -0.4860    1.7776 H       1  LIG1        0.0810
      8 C           1.8032    2.2396    0.4851 C.3     1  LIG1       -0.0371
      9 H           1.3876    3.1415    0.9355 H       1  LIG1        0.0278
     10 H           2.0244    2.4505   -0.5617 H       1  LIG1        0.0278
     11 H           2.7290    1.9824    0.9975 H       1  LIG1        0.0278
     12 N          -1.3826    2.9847   -1.4686 N.1     1  LIG1       -0.1908
     13 C          -1.0239    2.1178   -0.8058 C.1     1  LIG1        0.1016
     14 C          -2.3578   -0.7405    0.0276 C.ar    1  LIG1        0.1720
     15 C          -3.6072   -0.2469   -0.2105 C.ar    1  LIG1        0.1139
     16 C          -4.4425   -1.4052   -0.4227 C.ar    1  LIG1        0.1792
     17 C          -3.6614   -2.5041   -0.2610 C.ar    1  LIG1        0.1833
     18 O          -2.3780   -2.0968   -0.0001 O.2     1  LIG1       -0.4481
     19 C          -4.0320    1.1145   -0.2098 C.1     1  LIG1       -0.0621
     20 C          -4.3820    2.2622   -0.2068 C.1     1  LIG1       -0.1137
     21 H          -4.6697    3.2883   -0.2196 H       1  LIG1        0.1232
     22 O          -5.7589   -1.3295   -0.7120 O.3     1  LIG1       -0.5024
     23 H          -6.0392   -2.1158   -1.1974 H       1  LIG1        0.2923
     24 C          -3.0446   -4.8646   -0.9032 C.ar    1  LIG1        0.2241
     25 C          -3.9562   -3.9348   -0.3377 C.ar    1  LIG1        0.0834
     26 C          -5.1764   -4.4324    0.0882 C.ar    1  LIG1       -0.0282
     27 C          -5.4753   -5.7913   -0.0530 C.ar    1  LIG1        0.0546
     28 C          -4.4748   -6.6327   -0.5743 C.ar    1  LIG1        0.1270
     29 N          -3.3009   -6.1475   -0.9966 N.ar    1  LIG1       -0.2080
     30 H          -5.9102   -3.7677    0.5293 H       1  LIG1        0.0639
     31 O          -1.8474   -4.4800   -1.3659 O.3     1  LIG1       -0.4919
     32 H          -1.6978   -3.5388   -1.2128 H       1  LIG1        0.2938
     33 C          -6.8022   -6.2492    0.2581 C.1     1  LIG1       -0.0674
     34 C          -7.9305   -6.5861    0.5078 C.1     1  LIG1       -0.1138
     35 H          -8.9358   -6.8819    0.7027 H       1  LIG1        0.1232
     36 C          -4.6373   -8.0805   -0.6880 C.ar    1  LIG1        0.1766
     37 C          -5.2101   -9.0483    0.0988 C.ar    1  LIG1        0.0935
     38 C          -4.8814  -10.3067   -0.5306 C.ar    1  LIG1        0.0845
     39 C          -4.1422   -9.9969   -1.6249 C.ar    1  LIG1        0.1151
     40 O          -3.9867   -8.6751   -1.7336 O.2     1  LIG1       -0.4576
     41 H          -3.6955  -10.6040   -2.3941 H       1  LIG1        0.1049
     42 N          -5.8678   -9.0099    1.3085 N.pl3   1  LIG1       -0.3536
     43 H          -6.4529   -8.2026    1.4709 H       1  LIG1        0.1425
     44 H          -6.3212   -9.8965    1.5007 H       1  LIG1        0.1425
     45 N          -5.3302  -11.5461   -0.0007 N.pl3   1  LIG1       -0.3541
     46 H          -5.6338  -12.1859   -0.7257 H       1  LIG1        0.1425
     47 H          -4.6161  -11.9964    0.5631 H       1  LIG1        0.1425
@<TRIPOS>BOND
     1    41    39    1
     2    40    39   ar
     3    40    36   ar
     4    39    38   ar
     5    12    13    3
     6    31    32    1
     7    31    24    1
     8    23    22    1
     9    29    24   ar
    10    29    28   ar
    11    24    25   ar
    12    13     3    1
    13    46    45    1
    14    22    16    1
    15    36    28    1
    16    36    37   ar
    17    28    27   ar
    18    10     8    1
    19    38    45    1
    20    38    37   ar
    21    16    17   ar
    22    16    15   ar
    23    25    17    1
    24    25    26   ar
    25    17    18   ar
    26    21    20    1
    27    15    19    1
    28    15    14   ar
    29    19    20    3
    30    27    26   ar
    31    27    33    1
    32    45    47    1
    33    18    14   ar
    34     3     4   ar
    35     3     2   ar
    36    14     4    1
    37    26    30    1
    38    37    42    1
    39    33    34    3
    40     4     5   ar
    41     8     2    1
    42     8     9    1
    43     8    11    1
    44    34    35    1
    45     2     1   ar
    46     5     1   ar
    47     5     6    1
    48     1     7    1
    49    42    43    1
    50    42    44    1
