@<TRIPOS>MOLECULE
mol_data/opt/m06hf/geoms/mol2/13id13id13id-13id-.out
 50 53 0 0 0
SMALL
GASTEIGER

@<TRIPOS>ATOM
      1 C           1.0051    0.1576    1.3846 C.ar    1  LIG1        0.0064
      2 C           0.8680    1.0984    0.3980 C.ar    1  LIG1       -0.0151
      3 C          -0.4312    0.8875   -0.1605 C.ar    1  LIG1        0.0813
      4 C          -1.0320   -0.1628    0.5079 C.ar    1  LIG1        0.0810
      5 N          -0.1399   -0.5955    1.4396 N.ar    1  LIG1       -0.3582
      6 H          -0.3448   -1.2944    2.1370 H       1  LIG1        0.1654
      7 H           1.8296   -0.0291    2.0516 H       1  LIG1        0.0810
      8 C           1.8657    2.1391   -0.0404 C.3     1  LIG1       -0.0371
      9 H           1.4455    3.1382    0.0779 H       1  LIG1        0.0278
     10 H           2.1228    1.9972   -1.0905 H       1  LIG1        0.0278
     11 H           2.7722    2.0635    0.5585 H       1  LIG1        0.0278
     12 N          -1.5075    2.1878   -2.1145 N.1     1  LIG1       -0.1908
     13 C          -1.0258    1.6054   -1.2496 C.1     1  LIG1        0.1016
     14 C          -2.3487   -0.7681    0.3154 C.ar    1  LIG1        0.0688
     15 C          -3.5867   -0.1753    0.2175 C.ar    1  LIG1       -0.0057
     16 C          -4.5056   -1.2480    0.0169 C.ar    1  LIG1        0.0819
     17 C          -3.8036   -2.4468    0.0039 C.ar    1  LIG1        0.0815
     18 N          -2.5013   -2.1332    0.1904 N.ar    1  LIG1       -0.3506
     19 H          -1.7439   -2.8005    0.1867 H       1  LIG1        0.1660
     20 C          -3.9202    1.2916    0.2978 C.3     1  LIG1       -0.0364
     21 H          -4.8588    1.4282    0.8346 H       1  LIG1        0.0279
     22 H          -4.0159    1.7117   -0.7040 H       1  LIG1        0.0279
     23 H          -3.1250    1.8236    0.8192 H       1  LIG1        0.0279
     24 N          -7.0734   -1.2263   -0.2350 N.1     1  LIG1       -0.1908
     25 C          -5.9280   -1.1797   -0.1358 C.1     1  LIG1        0.1016
     26 C          -4.2964   -3.8041   -0.1901 C.ar    1  LIG1        0.0688
     27 C          -3.6899   -4.9336   -0.6999 C.ar    1  LIG1       -0.0057
     28 C          -4.7035   -5.9370   -0.7267 C.ar    1  LIG1        0.0819
     29 C          -5.8809   -5.3905   -0.2368 C.ar    1  LIG1        0.0815
     30 N          -5.6054   -4.1062    0.0892 N.ar    1  LIG1       -0.3506
     31 H          -6.2631   -3.4714    0.5228 H       1  LIG1        0.1660
     32 C          -2.2748   -5.0917   -1.1978 C.3     1  LIG1       -0.0364
     33 H          -1.5868   -5.2939   -0.3733 H       1  LIG1        0.0279
     34 H          -1.9542   -4.1935   -1.7289 H       1  LIG1        0.0279
     35 H          -2.2244   -5.9337   -1.8874 H       1  LIG1        0.0279
     36 N          -4.4021   -8.3129   -1.6880 N.1     1  LIG1       -0.1908
     37 C          -4.5522   -7.2588   -1.2572 C.1     1  LIG1        0.1016
     38 C          -7.2294   -5.9311   -0.1020 C.ar    1  LIG1        0.0684
     39 C          -7.6740   -7.1635    0.3189 C.ar    1  LIG1       -0.0064
     40 C          -9.0997   -7.0935    0.2570 C.ar    1  LIG1        0.0725
     41 C          -9.4612   -5.8386   -0.1874 C.ar    1  LIG1        0.0199
     42 N          -8.3226   -5.1439   -0.3979 N.ar    1  LIG1       -0.3581
     43 H          -8.2727   -4.2110   -0.7839 H       1  LIG1        0.1654
     44 H         -10.4358   -5.4180   -0.3628 H       1  LIG1        0.0820
     45 C          -6.8596   -8.3431    0.7831 C.3     1  LIG1       -0.0364
     46 H          -5.9062   -8.0055    1.1895 H       1  LIG1        0.0279
     47 H          -6.6592   -9.0209   -0.0473 H       1  LIG1        0.0279
     48 H          -7.4083   -8.8814    1.5558 H       1  LIG1        0.0279
     49 N         -10.7211   -8.9903    0.9259 N.1     1  LIG1       -0.1908
     50 C         -10.0078   -8.1429    0.6227 C.1     1  LIG1        0.1009
@<TRIPOS>BOND
     1    12    13    3
     2    35    32    1
     3    34    32    1
     4    36    37    3
     5    37    28    1
     6    13     3    1
     7    32    27    1
     8    32    33    1
     9    10     8    1
    10    43    42    1
    11    28    27   ar
    12    28    29   ar
    13    22    20    1
    14    27    26   ar
    15    42    41   ar
    16    42    38   ar
    17    44    41    1
    18    29    38    1
    19    29    30   ar
    20    24    25    3
    21    26    17    1
    22    26    30   ar
    23    41    40   ar
    24     3     2   ar
    25     3     4   ar
    26    25    16    1
    27    38    39   ar
    28    47    45    1
    29     8     9    1
    30     8     2    1
    31     8    11    1
    32    17    16   ar
    33    17    18   ar
    34    16    15   ar
    35    30    31    1
    36    19    18    1
    37    18    14   ar
    38    15    20    1
    39    15    14   ar
    40    40    39   ar
    41    40    50    1
    42    20    23    1
    43    20    21    1
    44    14     4    1
    45    39    45    1
    46     2     1   ar
    47     4     5   ar
    48    50    49    3
    49    45    46    1
    50    45    48    1
    51     1     5   ar
    52     1     7    1
    53     5     6    1
