@<TRIPOS>MOLECULE
mol_data/opt/m06hf/geoms/mol2/13id13id13id13id.out
 50 53 0 0 0
SMALL
GASTEIGER

@<TRIPOS>ATOM
      1 C           0.4455    0.4557    2.1377 C.ar    1  LIG1        0.0064
      2 C           0.7602    1.0534    0.9452 C.ar    1  LIG1       -0.0151
      3 C          -0.2918    0.6969    0.0444 C.ar    1  LIG1        0.0813
      4 C          -1.2013   -0.0938    0.7206 C.ar    1  LIG1        0.0810
      5 N          -0.7310   -0.2327    1.9900 N.ar    1  LIG1       -0.3582
      6 H          -1.2426   -0.6786    2.7361 H       1  LIG1        0.1654
      7 H           0.9678    0.4736    3.0787 H       1  LIG1        0.0810
      8 C           1.9626    1.9005    0.6172 C.3     1  LIG1       -0.0371
      9 H           1.6472    2.8839    0.2679 H       1  LIG1        0.0278
     10 H           2.5532    1.4302   -0.1696 H       1  LIG1        0.0278
     11 H           2.5861    2.0232    1.5018 H       1  LIG1        0.0278
     12 N          -0.4743    1.3559   -2.4457 N.1     1  LIG1       -0.1908
     13 C          -0.3934    1.0577   -1.3394 C.1     1  LIG1        0.1016
     14 C          -2.4452   -0.7079    0.2543 C.ar    1  LIG1        0.0688
     15 C          -3.5214   -0.1420   -0.3918 C.ar    1  LIG1       -0.0057
     16 C          -4.4445   -1.2091   -0.6046 C.ar    1  LIG1        0.0819
     17 C          -3.9083   -2.3744   -0.0854 C.ar    1  LIG1        0.0815
     18 N          -2.6949   -2.0498    0.4307 N.ar    1  LIG1       -0.3506
     19 H          -2.0672   -2.6995    0.8799 H       1  LIG1        0.1660
     20 C          -3.7015    1.2953   -0.8045 C.3     1  LIG1       -0.0364
     21 H          -4.7447    1.5849   -0.6795 H       1  LIG1        0.0279
     22 H          -3.4189    1.4253   -1.8497 H       1  LIG1        0.0279
     23 H          -3.0710    1.9406   -0.1932 H       1  LIG1        0.0279
     24 N          -6.7515   -1.0517   -1.7542 N.1     1  LIG1       -0.1908
     25 C          -5.7222   -1.1229   -1.2500 C.1     1  LIG1        0.1016
     26 C          -4.4554   -3.7314   -0.0612 C.ar    1  LIG1        0.0688
     27 C          -5.6681   -4.1825    0.4083 C.ar    1  LIG1       -0.0057
     28 C          -5.6700   -5.5902    0.1735 C.ar    1  LIG1        0.0819
     29 C          -4.4729   -5.9455   -0.4236 C.ar    1  LIG1        0.0815
     30 N          -3.7493   -4.8042   -0.5563 N.ar    1  LIG1       -0.3506
     31 H          -2.8291   -4.7548   -0.9674 H       1  LIG1        0.1660
     32 C          -6.7778   -3.3746    1.0279 C.3     1  LIG1       -0.0364
     33 H          -7.2330   -3.9369    1.8430 H       1  LIG1        0.0279
     34 H          -7.5408   -3.1505    0.2816 H       1  LIG1        0.0279
     35 H          -6.3835   -2.4337    1.4119 H       1  LIG1        0.0279
     36 N          -7.5708   -7.2367    0.7588 N.1     1  LIG1       -0.1908
     37 C          -6.7273   -6.5061    0.4880 C.1     1  LIG1        0.1016
     38 C          -3.9884   -7.2504   -0.8735 C.ar    1  LIG1        0.0684
     39 C          -3.9153   -8.4452   -0.1973 C.ar    1  LIG1       -0.0064
     40 C          -3.3545   -9.3763   -1.1255 C.ar    1  LIG1        0.0725
     41 C          -3.1150   -8.7214   -2.3147 C.ar    1  LIG1        0.0199
     42 N          -3.4972   -7.4352   -2.1485 N.ar    1  LIG1       -0.3581
     43 H          -3.5366   -6.7426   -2.8809 H       1  LIG1        0.1654
     44 H          -2.7132   -9.0899   -3.2421 H       1  LIG1        0.0820
     45 C          -4.3289   -8.7342    1.2219 C.3     1  LIG1       -0.0364
     46 H          -3.6157   -9.4172    1.6829 H       1  LIG1        0.0279
     47 H          -5.3189   -9.1917    1.2377 H       1  LIG1        0.0279
     48 H          -4.3679   -7.8084    1.7958 H       1  LIG1        0.0279
     49 N          -2.8251  -11.8534   -0.6185 N.1     1  LIG1       -0.1908
     50 C          -3.0623  -10.7553   -0.8562 C.1     1  LIG1        0.1009
@<TRIPOS>BOND
     1    44    41    1
     2    43    42    1
     3    12    13    3
     4    41    42   ar
     5    41    40   ar
     6    42    38   ar
     7    22    20    1
     8    24    25    3
     9    13     3    1
    10    25    16    1
    11    40    50    1
    12    40    39   ar
    13    31    30    1
    14    38    29    1
    15    38    39   ar
    16    50    49    3
    17    20    21    1
    18    20    15    1
    19    20    23    1
    20    16    15   ar
    21    16    17   ar
    22    30    29   ar
    23    30    26   ar
    24    29    28   ar
    25    15    14   ar
    26    39    45    1
    27    10     8    1
    28    17    26    1
    29    17    18   ar
    30    26    27   ar
    31     3     4   ar
    32     3     2   ar
    33    28    27   ar
    34    28    37    1
    35    14    18   ar
    36    14     4    1
    37     9     8    1
    38    34    32    1
    39    27    32    1
    40    18    19    1
    41    37    36    3
    42     8     2    1
    43     8    11    1
    44     4     5   ar
    45     2     1   ar
    46    32    35    1
    47    32    33    1
    48    45    47    1
    49    45    46    1
    50    45    48    1
    51     5     1   ar
    52     5     6    1
    53     1     7    1
