@<TRIPOS>MOLECULE
mol_data/opt/m06hf/geoms/mol2/13id13id-13id-13id-.out
 50 53 0 0 0
SMALL
GASTEIGER

@<TRIPOS>ATOM
      1 C           1.1474   -0.0466   -0.2725 C.ar    1  LIG1        0.0064
      2 C           0.5876    1.2020   -0.3111 C.ar    1  LIG1       -0.0151
      3 C          -0.8232    0.9927   -0.2046 C.ar    1  LIG1        0.0813
      4 C          -1.0621   -0.3739   -0.1087 C.ar    1  LIG1        0.0810
      5 N           0.1464   -0.9801   -0.1520 N.ar    1  LIG1       -0.3582
      6 H           0.2756   -1.9800   -0.1416 H       1  LIG1        0.1654
      7 H           2.1817   -0.3402   -0.3229 H       1  LIG1        0.0810
      8 C           1.2878    2.5310   -0.4298 C.3     1  LIG1       -0.0371
      9 H           1.0970    3.1408    0.4536 H       1  LIG1        0.0278
     10 H           0.9303    3.0707   -1.3074 H       1  LIG1        0.0278
     11 H           2.3617    2.3783   -0.5257 H       1  LIG1        0.0278
     12 N          -2.7788    2.6779   -0.2148 N.1     1  LIG1       -0.1908
     13 C          -1.8668    1.9741   -0.1979 C.1     1  LIG1        0.1016
     14 C          -2.3348   -1.0725    0.0246 C.ar    1  LIG1        0.0688
     15 C          -2.6824   -2.3078    0.5340 C.ar    1  LIG1       -0.0057
     16 C          -4.1103   -2.3555    0.4955 C.ar    1  LIG1        0.0819
     17 C          -4.5757   -1.1592   -0.0293 C.ar    1  LIG1        0.0815
     18 N          -3.4853   -0.4155   -0.3202 N.ar    1  LIG1       -0.3506
     19 H          -3.5221    0.4817   -0.7848 H       1  LIG1        0.1660
     20 C          -1.7764   -3.3801    1.0855 C.3     1  LIG1       -0.0364
     21 H          -0.9982   -2.9379    1.7105 H       1  LIG1        0.0279
     22 H          -1.3138   -3.9573    0.2815 H       1  LIG1        0.0279
     23 H          -2.3587   -4.0676    1.6980 H       1  LIG1        0.0279
     24 N          -5.5739   -4.2812    1.3954 N.1     1  LIG1       -0.1908
     25 C          -4.9310   -3.4183    0.9937 C.1     1  LIG1        0.1016
     26 C          -5.8932   -0.5601   -0.2040 C.ar    1  LIG1        0.0688
     27 C          -7.0969   -1.0451   -0.6555 C.ar    1  LIG1       -0.0057
     28 C          -7.9780    0.0821   -0.6766 C.ar    1  LIG1        0.0819
     29 C          -7.2875    1.1995   -0.2340 C.ar    1  LIG1        0.0815
     30 N          -6.0238    0.7909    0.0424 N.ar    1  LIG1       -0.3506
     31 H          -5.3404    1.3538    0.5332 H       1  LIG1        0.1660
     32 C          -7.4241   -2.4501   -1.0892 C.3     1  LIG1       -0.0364
     33 H          -7.8197   -3.0241   -0.2505 H       1  LIG1        0.0279
     34 H          -6.5253   -2.9481   -1.4528 H       1  LIG1        0.0279
     35 H          -8.1688   -2.4249   -1.8842 H       1  LIG1        0.0279
     36 N         -10.3986    0.0720   -1.5751 N.1     1  LIG1       -0.1908
     37 C          -9.3235    0.0834   -1.1704 C.1     1  LIG1        0.1016
     38 C          -7.6853    2.5934   -0.0643 C.ar    1  LIG1        0.0684
     39 C          -8.8480    3.1458    0.4248 C.ar    1  LIG1       -0.0064
     40 C          -8.6389    4.5595    0.3939 C.ar    1  LIG1        0.0725
     41 C          -7.3748    4.8081   -0.0983 C.ar    1  LIG1        0.0199
     42 N          -6.8072    3.6129   -0.3690 N.ar    1  LIG1       -0.3581
     43 H          -5.8933    3.4866   -0.7799 H       1  LIG1        0.1654
     44 H          -6.8645    5.7401   -0.2680 H       1  LIG1        0.0820
     45 C         -10.0797    2.4402    0.9302 C.3     1  LIG1       -0.0364
     46 H          -9.8170    1.4556    1.3174 H       1  LIG1        0.0279
     47 H         -10.8046    2.3111    0.1259 H       1  LIG1        0.0279
     48 H         -10.5330    3.0299    1.7267 H       1  LIG1        0.0279
     49 N         -10.3310    6.3338    1.2075 N.1     1  LIG1       -0.1908
     50 C          -9.5736    5.5540    0.8372 C.1     1  LIG1        0.1009
@<TRIPOS>BOND
     1    35    32    1
     2    36    37    3
     3    34    32    1
     4    10     8    1
     5    37    28    1
     6    32    27    1
     7    32    33    1
     8    19    18    1
     9    43    42    1
    10    28    27   ar
    11    28    29   ar
    12    27    26   ar
    13    11     8    1
    14     8     2    1
    15     8     9    1
    16    42    41   ar
    17    42    38   ar
    18     7     1    1
    19    18    17   ar
    20    18    14   ar
    21     2     1   ar
    22     2     3   ar
    23     1     5   ar
    24    44    41    1
    25    29    38    1
    26    29    30   ar
    27    12    13    3
    28     3    13    1
    29     3     4   ar
    30    26    17    1
    31    26    30   ar
    32     5     6    1
    33     5     4   ar
    34     4    14    1
    35    41    40   ar
    36    38    39   ar
    37    17    16   ar
    38    14    15   ar
    39    30    31    1
    40    47    45    1
    41    22    20    1
    42    40    39   ar
    43    40    50    1
    44    39    45    1
    45    16    15   ar
    46    16    25    1
    47    15    20    1
    48    50    49    3
    49    45    46    1
    50    45    48    1
    51    25    24    3
    52    20    23    1
    53    20    21    1
