@<TRIPOS>MOLECULE
mol_data/opt/m06hf/geoms/mol2/13id13id13id13id-.out
 50 53 0 0 0
SMALL
GASTEIGER

@<TRIPOS>ATOM
      1 C           0.5239    0.6103    1.9252 C.ar    1  LIG1        0.0064
      2 C           0.7309    1.1957    0.7039 C.ar    1  LIG1       -0.0151
      3 C          -0.3715    0.7898   -0.1118 C.ar    1  LIG1        0.0813
      4 C          -1.2033   -0.0163    0.6420 C.ar    1  LIG1        0.0810
      5 N          -0.6374   -0.1172    1.8755 N.ar    1  LIG1       -0.3582
      6 H          -1.0769   -0.5663    2.6641 H       1  LIG1        0.1654
      7 H           1.1137    0.6606    2.8243 H       1  LIG1        0.0810
      8 C           1.8771    2.0750    0.2749 C.3     1  LIG1       -0.0371
      9 H           1.5056    3.0482   -0.0471 H       1  LIG1        0.0278
     10 H           2.4120    1.6191   -0.5589 H       1  LIG1        0.0278
     11 H           2.5695    2.2179    1.1034 H       1  LIG1        0.0278
     12 N          -0.7533    1.4034   -2.5910 N.1     1  LIG1       -0.1908
     13 C          -0.5840    1.1239   -1.4898 C.1     1  LIG1        0.1016
     14 C          -2.4546   -0.6806    0.2770 C.ar    1  LIG1        0.0688
     15 C          -3.5837   -0.1692   -0.3225 C.ar    1  LIG1       -0.0057
     16 C          -4.4851   -1.2693   -0.4434 C.ar    1  LIG1        0.0819
     17 C          -3.8855   -2.3989    0.0857 C.ar    1  LIG1        0.0815
     18 N          -2.6539   -2.0216    0.5161 N.ar    1  LIG1       -0.3506
     19 H          -1.9810   -2.6376    0.9472 H       1  LIG1        0.1660
     20 C          -3.8329    1.2461   -0.7741 C.3     1  LIG1       -0.0364
     21 H          -4.8798    1.5032   -0.6135 H       1  LIG1        0.0279
     22 H          -3.5988    1.3505   -1.8342 H       1  LIG1        0.0279
     23 H          -3.2009    1.9333   -0.2118 H       1  LIG1        0.0279
     24 N          -6.8473   -1.2114   -1.4845 N.1     1  LIG1       -0.1908
     25 C          -5.7939   -1.2404   -1.0281 C.1     1  LIG1        0.1016
     26 C          -4.3818   -3.7690    0.1945 C.ar    1  LIG1        0.0688
     27 C          -5.5794   -4.2392    0.6770 C.ar    1  LIG1       -0.0057
     28 C          -5.5095   -5.6588    0.5465 C.ar    1  LIG1        0.0819
     29 C          -4.2831   -6.0034   -0.0069 C.ar    1  LIG1        0.0815
     30 N          -3.6144   -4.8423   -0.2086 N.ar    1  LIG1       -0.3506
     31 H          -2.7493   -4.7660   -0.7220 H       1  LIG1        0.1660
     32 C          -6.7305   -3.4465    1.2395 C.3     1  LIG1       -0.0364
     33 H          -7.1953   -3.9986    2.0563 H       1  LIG1        0.0279
     34 H          -7.4742   -3.2602    0.4639 H       1  LIG1        0.0279
     35 H          -6.3737   -2.4861    1.6113 H       1  LIG1        0.0279
     36 N          -7.2898   -7.4137    1.1846 N.1     1  LIG1       -0.1908
     37 C          -6.5149   -6.6063    0.9190 C.1     1  LIG1        0.1016
     38 C          -3.7236   -7.3058   -0.3478 C.ar    1  LIG1        0.0684
     39 C          -2.4370   -7.6595   -0.7047 C.ar    1  LIG1       -0.0064
     40 C          -2.4701   -9.0682   -0.9187 C.ar    1  LIG1        0.0725
     41 C          -3.7553   -9.5137   -0.6837 C.ar    1  LIG1        0.0199
     42 N          -4.4971   -8.4413   -0.3430 N.ar    1  LIG1       -0.3581
     43 H          -5.4782   -8.4686   -0.0944 H       1  LIG1        0.1654
     44 H          -4.1691  -10.5056   -0.7373 H       1  LIG1        0.0820
     45 C          -1.2160   -6.7832   -0.8383 C.3     1  LIG1       -0.0364
     46 H          -1.1008   -6.1430    0.0393 H       1  LIG1        0.0279
     47 H          -1.2658   -6.1667   -1.7401 H       1  LIG1        0.0279
     48 H          -0.3298   -7.4119   -0.9178 H       1  LIG1        0.0279
     49 N          -0.4269  -10.4932   -1.5978 N.1     1  LIG1       -0.1908
     50 C          -1.3481   -9.8765   -1.2980 C.1     1  LIG1        0.1009
@<TRIPOS>BOND
     1    12    13    3
     2    22    20    1
     3    47    45    1
     4    49    50    3
     5    13     3    1
     6    24    25    3
     7    50    40    1
     8    25    16    1
     9    40    39   ar
    10    40    41   ar
    11    48    45    1
    12    45    39    1
    13    45    46    1
    14    20    21    1
    15    20    15    1
    16    20    23    1
    17    44    41    1
    18    31    30    1
    19    39    38   ar
    20    41    42   ar
    21    10     8    1
    22    16    15   ar
    23    16    17   ar
    24    38    42   ar
    25    38    29    1
    26    42    43    1
    27    15    14   ar
    28    30    29   ar
    29    30    26   ar
    30     3     4   ar
    31     3     2   ar
    32     9     8    1
    33    29    28   ar
    34    17    26    1
    35    17    18   ar
    36    26    27   ar
    37     8     2    1
    38     8    11    1
    39    14    18   ar
    40    14     4    1
    41    34    32    1
    42    18    19    1
    43    28    27   ar
    44    28    37    1
    45     4     5   ar
    46    27    32    1
    47     2     1   ar
    48    37    36    3
    49    32    35    1
    50    32    33    1
    51     5     1   ar
    52     5     6    1
    53     1     7    1
