@<TRIPOS>MOLECULE
mol_data/opt/m06hf/geoms/mol2/13id13id-13id-13id.out
 50 53 0 0 0
SMALL
GASTEIGER

@<TRIPOS>ATOM
      1 C           1.2301   -0.2924    0.4869 C.ar    1  LIG1        0.0064
      2 C           0.7891    1.0028    0.4302 C.ar    1  LIG1       -0.0151
      3 C          -0.6245    0.9176    0.2366 C.ar    1  LIG1        0.0813
      4 C          -0.9855   -0.4215    0.1876 C.ar    1  LIG1        0.0810
      5 N           0.1550   -1.1350    0.3419 N.ar    1  LIG1       -0.3582
      6 H           0.1884   -2.1413    0.3940 H       1  LIG1        0.1654
      7 H           2.2264   -0.6765    0.6235 H       1  LIG1        0.0810
      8 C           1.6010    2.2676    0.5372 C.3     1  LIG1       -0.0371
      9 H           1.2632    2.8640    1.3854 H       1  LIG1        0.0278
     10 H           1.4939    2.8642   -0.3691 H       1  LIG1        0.0278
     11 H           2.6533    2.0244    0.6759 H       1  LIG1        0.0278
     12 N          -2.4054    2.7732    0.0326 N.1     1  LIG1       -0.1908
     13 C          -1.5706    1.9848    0.1110 C.1     1  LIG1        0.1016
     14 C          -2.3042   -1.0157    0.0017 C.ar    1  LIG1        0.0688
     15 C          -2.6983   -2.2298   -0.5210 C.ar    1  LIG1       -0.0057
     16 C          -4.1250   -2.2057   -0.5206 C.ar    1  LIG1        0.0819
     17 C          -4.5464   -0.9906   -0.0013 C.ar    1  LIG1        0.0815
     18 N          -3.4286   -0.2955    0.3147 N.ar    1  LIG1       -0.3506
     19 H          -3.4231    0.6115    0.7627 H       1  LIG1        0.1660
     20 C          -1.8340   -3.3454   -1.0532 C.3     1  LIG1       -0.0364
     21 H          -1.5057   -4.0080   -0.2489 H       1  LIG1        0.0279
     22 H          -0.9622   -2.9387   -1.5685 H       1  LIG1        0.0279
     23 H          -2.4073   -3.9404   -1.7636 H       1  LIG1        0.0279
     24 N          -5.6365   -4.0604   -1.4882 N.1     1  LIG1       -0.1908
     25 C          -4.9763   -3.2264   -1.0542 C.1     1  LIG1        0.1016
     26 C          -5.8710   -0.4027    0.1600 C.ar    1  LIG1        0.0688
     27 C          -7.0604   -0.9471    0.5827 C.ar    1  LIG1       -0.0057
     28 C          -7.9997    0.1262    0.5464 C.ar    1  LIG1        0.0819
     29 C          -7.3560    1.2799    0.1136 C.ar    1  LIG1        0.0815
     30 N          -6.0664    0.9358   -0.1126 N.ar    1  LIG1       -0.3506
     31 H          -5.3740    1.5486   -0.5216 H       1  LIG1        0.1660
     32 C          -7.3360   -2.3592    1.0304 C.3     1  LIG1       -0.0364
     33 H          -6.4214   -2.8158    1.4088 H       1  LIG1        0.0279
     34 H          -7.7022   -2.9603    0.1975 H       1  LIG1        0.0279
     35 H          -8.0856   -2.3516    1.8214 H       1  LIG1        0.0279
     36 N         -10.5057    0.0667    1.1554 N.1     1  LIG1       -0.1908
     37 C          -9.3843    0.0629    0.8994 C.1     1  LIG1        0.1016
     38 C          -7.8616    2.6299   -0.1003 C.ar    1  LIG1        0.0684
     39 C          -7.1839    3.8077   -0.3500 C.ar    1  LIG1       -0.0064
     40 C          -8.1914    4.8086   -0.4757 C.ar    1  LIG1        0.0725
     41 C          -9.4240    4.2131   -0.2958 C.ar    1  LIG1        0.0199
     42 N          -9.2089    2.9019   -0.0725 N.ar    1  LIG1       -0.3581
     43 H          -9.9314    2.2180    0.1138 H       1  LIG1        0.1654
     44 H         -10.4117    4.6395   -0.3125 H       1  LIG1        0.0820
     45 C          -5.6967    4.0397   -0.4577 C.3     1  LIG1       -0.0364
     46 H          -5.4994    5.1112   -0.4686 H       1  LIG1        0.0279
     47 H          -5.2915    3.6226   -1.3837 H       1  LIG1        0.0279
     48 H          -5.1643    3.6088    0.3921 H       1  LIG1        0.0279
     49 N          -7.7356    7.3061   -0.9488 N.1     1  LIG1       -0.1908
     50 C          -7.9564    6.1989   -0.7378 C.1     1  LIG1        0.1009
@<TRIPOS>BOND
     1    23    20    1
     2    22    20    1
     3    24    25    3
     4    47    45    1
     5    25    16    1
     6    20    15    1
     7    20    21    1
     8    49    50    3
     9    50    40    1
    10    31    30    1
    11    15    16   ar
    12    15    14   ar
    13    16    17   ar
    14    40    39   ar
    15    40    41   ar
    16    46    45    1
    17    45    39    1
    18    45    48    1
    19    10     8    1
    20    39    38   ar
    21    44    41    1
    22    41    42   ar
    23    30    29   ar
    24    30    26   ar
    25    38    42   ar
    26    38    29    1
    27    42    43    1
    28    17    26    1
    29    17    18   ar
    30    14     4    1
    31    14    18   ar
    32    12    13    3
    33    13     3    1
    34    29    28   ar
    35    26    27   ar
    36     4     3   ar
    37     4     5   ar
    38    34    32    1
    39     3     2   ar
    40    18    19    1
    41     5     6    1
    42     5     1   ar
    43     2     1   ar
    44     2     8    1
    45     1     7    1
    46     8    11    1
    47     8     9    1
    48    28    27   ar
    49    28    37    1
    50    27    32    1
    51    37    36    3
    52    32    33    1
    53    32    35    1
