@<TRIPOS>MOLECULE
mol_data/opt/m06hf/geoms/mol2/13id13id-13id.out
 38 40 0 0 0
SMALL
GASTEIGER

@<TRIPOS>ATOM
      1 C           1.2399   -0.2890   -0.2939 C.ar    1  LIG1        0.0064
      2 C           0.8602    0.9905    0.0078 C.ar    1  LIG1       -0.0151
      3 C          -0.5609    0.9431    0.1608 C.ar    1  LIG1        0.0813
      4 C          -0.9893   -0.3592   -0.0528 C.ar    1  LIG1        0.0810
      5 N           0.1225   -1.0859   -0.3283 N.ar    1  LIG1       -0.3582
      6 H           0.1141   -2.0625   -0.5767 H       1  LIG1        0.1654
      7 H           2.2182   -0.6932   -0.4884 H       1  LIG1        0.0810
      8 C           1.7295    2.2116    0.1593 C.3     1  LIG1       -0.0371
      9 H           1.6221    2.6306    1.1602 H       1  LIG1        0.0278
     10 H           1.4416    2.9737   -0.5657 H       1  LIG1        0.0278
     11 H           2.7736    1.9480   -0.0025 H       1  LIG1        0.0278
     12 N          -2.1835    2.8786    0.6861 N.1     1  LIG1       -0.1908
     13 C          -1.4328    2.0348    0.4656 C.1     1  LIG1        0.1016
     14 C          -2.3288   -0.9355   -0.0192 C.ar    1  LIG1        0.0688
     15 C          -2.7360   -2.2520    0.0213 C.ar    1  LIG1       -0.0057
     16 C          -4.1592   -2.2122    0.0361 C.ar    1  LIG1        0.0819
     17 C          -4.5726   -0.8843    0.0144 C.ar    1  LIG1        0.0815
     18 N          -3.4474   -0.1354   -0.0200 N.ar    1  LIG1       -0.3506
     19 H          -3.4294    0.8774   -0.0006 H       1  LIG1        0.1660
     20 C          -1.8940   -3.5031    0.0640 C.3     1  LIG1       -0.0364
     21 H          -1.0850   -3.3974    0.7896 H       1  LIG1        0.0279
     22 H          -1.4779   -3.7352   -0.9200 H       1  LIG1        0.0279
     23 H          -2.5123   -4.3468    0.3685 H       1  LIG1        0.0279
     24 N          -5.7850   -4.2130    0.1288 N.1     1  LIG1       -0.1908
     25 C          -5.0397   -3.3377    0.0812 C.1     1  LIG1        0.1016
     26 C          -5.9099   -0.3046    0.0284 C.ar    1  LIG1        0.0684
     27 C          -6.3146    1.0097   -0.1047 C.ar    1  LIG1       -0.0064
     28 C          -7.7373    0.9815   -0.0145 C.ar    1  LIG1        0.0725
     29 C          -8.1389   -0.3272    0.1647 C.ar    1  LIG1        0.0199
     30 N          -7.0274   -1.0893    0.1888 N.ar    1  LIG1       -0.3581
     31 H          -7.0154   -2.0950    0.3031 H       1  LIG1        0.1654
     32 H          -9.1250   -0.7437    0.2729 H       1  LIG1        0.0820
     33 C          -5.4709    2.2440   -0.3089 C.3     1  LIG1       -0.0364
     34 H          -6.1233    3.0998   -0.4791 H       1  LIG1        0.0279
     35 H          -4.8233    2.1361   -1.1828 H       1  LIG1        0.0279
     36 H          -4.8562    2.4615    0.5678 H       1  LIG1        0.0279
     37 N          -9.2745    3.0507   -0.1699 N.1     1  LIG1       -0.1908
     38 C          -8.6029    2.1219   -0.0992 C.1     1  LIG1        0.1009
@<TRIPOS>BOND
     1    35    33    1
     2    22    20    1
     3     6     5    1
     4    10     8    1
     5     7     1    1
     6    34    33    1
     7     5     1   ar
     8     5     4   ar
     9    33    27    1
    10    33    36    1
    11     1     2   ar
    12    37    38    3
    13    27    28   ar
    14    27    26   ar
    15    38    28    1
    16     4    14    1
    17     4     3   ar
    18    18    14   ar
    19    18    19    1
    20    18    17   ar
    21    14    15   ar
    22    28    29   ar
    23    11     8    1
    24     2     8    1
    25     2     3   ar
    26    17    26    1
    27    17    16   ar
    28    15    16   ar
    29    15    20    1
    30    26    30   ar
    31    16    25    1
    32    20    23    1
    33    20    21    1
    34    25    24    3
    35     8     9    1
    36     3    13    1
    37    29    30   ar
    38    29    32    1
    39    30    31    1
    40    13    12    3
