@<TRIPOS>MOLECULE
mol_data/opt/m06hf/geoms/mol2/13id13id-4id13id.out
 52 55 0 0 0
SMALL
GASTEIGER

@<TRIPOS>ATOM
      1 C           1.3413   -0.5881   -0.5969 C.ar    1  LIG1        0.0064
      2 C           1.0037    0.7199   -0.8175 C.ar    1  LIG1       -0.0151
      3 C          -0.4017    0.8000   -0.5673 C.ar    1  LIG1        0.0813
      4 C          -0.8626   -0.4585   -0.2077 C.ar    1  LIG1        0.0810
      5 N           0.2137   -1.2823   -0.2344 N.ar    1  LIG1       -0.3582
      6 H           0.1743   -2.2729   -0.0527 H       1  LIG1        0.1654
      7 H           2.2964   -1.0780   -0.6740 H       1  LIG1        0.0810
      8 C           1.9019    1.8557   -1.2341 C.3     1  LIG1       -0.0371
      9 H           1.9091    2.6343   -0.4705 H       1  LIG1        0.0278
     10 H           1.5498    2.2921   -2.1692 H       1  LIG1        0.0278
     11 H           2.9188    1.4927   -1.3764 H       1  LIG1        0.0278
     12 N          -1.9810    2.8297   -0.7653 N.1     1  LIG1       -0.1908
     13 C          -1.2424    1.9521   -0.6731 C.1     1  LIG1        0.1016
     14 C          -2.2063   -0.9075    0.1393 C.ar    1  LIG1        0.0688
     15 C          -2.6371   -2.0505    0.7836 C.ar    1  LIG1       -0.0057
     16 C          -4.0559   -1.9443    0.8461 C.ar    1  LIG1        0.0805
     17 C          -4.4404   -0.7498    0.2550 C.ar    1  LIG1        0.0651
     18 N          -3.3055   -0.1454   -0.1651 N.ar    1  LIG1       -0.3517
     19 H          -3.2766    0.7371   -0.6611 H       1  LIG1        0.1660
     20 C          -1.8135   -3.1800    1.3504 C.3     1  LIG1       -0.0364
     21 H          -0.9501   -2.7918    1.8945 H       1  LIG1        0.0279
     22 H          -1.4758   -3.8581    0.5622 H       1  LIG1        0.0279
     23 H          -2.4228   -3.7578    2.0446 H       1  LIG1        0.0279
     24 N          -5.6155   -3.6856    1.9419 N.1     1  LIG1       -0.1908
     25 C          -4.9352   -2.8987    1.4549 C.1     1  LIG1        0.1016
     26 C          -6.0770    1.1652    0.3816 C.ar    1  LIG1       -0.0406
     27 C          -7.3672    1.6388    0.1494 C.ar    1  LIG1       -0.0478
     28 C          -5.7868   -0.1719    0.0576 C.ar    1  LIG1        0.0037
     29 C          -8.3896    0.8338   -0.3570 C.ar    1  LIG1        0.0162
     30 H          -7.5860    2.6779    0.3585 H       1  LIG1        0.0627
     31 C          -6.7843   -0.9949   -0.4611 C.ar    1  LIG1       -0.0343
     32 C          -8.0700   -0.5007   -0.6605 C.ar    1  LIG1        0.0615
     33 H          -6.5645   -2.0240   -0.7131 H       1  LIG1        0.0637
     34 C          -5.0405    2.1021    0.9776 C.3     1  LIG1       -0.0391
     35 H          -5.5437    2.8801    1.5499 H       1  LIG1        0.0278
     36 H          -4.4476    2.5879    0.1983 H       1  LIG1        0.0278
     37 H          -4.3653    1.5597    1.6401 H       1  LIG1        0.0278
     38 N          -9.8482   -2.0778   -1.7058 N.1     1  LIG1       -0.1908
     39 C          -9.0648   -1.3939   -1.2188 C.1     1  LIG1        0.0998
     40 C          -9.7372    1.4061   -0.5315 C.ar    1  LIG1        0.0519
     41 C         -10.3894    2.3485    0.2409 C.ar    1  LIG1       -0.0078
     42 C         -11.6545    2.5555   -0.3833 C.ar    1  LIG1        0.0725
     43 C         -11.7309    1.7400   -1.4938 C.ar    1  LIG1        0.0199
     44 N         -10.5729    1.0560   -1.5684 N.ar    1  LIG1       -0.3592
     45 H         -10.3651    0.3539   -2.2642 H       1  LIG1        0.1654
     46 H         -12.5250    1.6089   -2.2080 H       1  LIG1        0.0820
     47 C          -9.9392    3.0136    1.5181 C.3     1  LIG1       -0.0365
     48 H         -10.8103    3.2174    2.1406 H       1  LIG1        0.0279
     49 H          -9.4421    3.9640    1.3119 H       1  LIG1        0.0279
     50 H          -9.2569    2.3658    2.0683 H       1  LIG1        0.0279
     51 N         -13.4815    4.1672    0.4731 N.1     1  LIG1       -0.1908
     52 C         -12.6783    3.4467    0.0798 C.1     1  LIG1        0.1009
@<TRIPOS>BOND
     1    45    44    1
     2    46    43    1
     3    10     8    1
     4    38    39    3
     5    44    43   ar
     6    44    40   ar
     7    43    42   ar
     8    11     8    1
     9     8     2    1
    10     8     9    1
    11    39    32    1
    12     2     1   ar
    13     2     3   ar
    14    12    13    3
    15    33    31    1
    16     7     1    1
    17    13     3    1
    18    19    18    1
    19    32    31   ar
    20    32    29   ar
    21     1     5   ar
    22     3     4   ar
    23    40    29    1
    24    40    41   ar
    25    31    28   ar
    26    42    52    1
    27    42    41   ar
    28    29    27   ar
    29     5     4   ar
    30     5     6    1
    31     4    14    1
    32    18    14   ar
    33    18    17   ar
    34    28    17    1
    35    28    26   ar
    36    52    51    3
    37    14    15   ar
    38    27    30    1
    39    27    26   ar
    40    36    34    1
    41    41    47    1
    42    17    16   ar
    43    26    34    1
    44    22    20    1
    45    15    16   ar
    46    15    20    1
    47    16    25    1
    48    34    35    1
    49    34    37    1
    50    49    47    1
    51    20    21    1
    52    20    23    1
    53    25    24    3
    54    47    50    1
    55    47    48    1
