@<TRIPOS>MOLECULE
mol_data/opt/m06hf/geoms/mol2/13id13id13id-13id.out
 50 53 0 0 0
SMALL
GASTEIGER

@<TRIPOS>ATOM
      1 C           1.2329    0.0203    0.5889 C.ar    1  LIG1        0.0064
      2 C           0.8862    1.0651   -0.2269 C.ar    1  LIG1       -0.0151
      3 C          -0.5167    0.9220   -0.4654 C.ar    1  LIG1        0.0813
      4 C          -0.9670   -0.1932    0.2157 C.ar    1  LIG1        0.0810
      5 N           0.1137   -0.7296    0.8450 N.ar    1  LIG1       -0.3582
      6 H           0.0630   -1.4979    1.4963 H       1  LIG1        0.1654
      7 H           2.1896   -0.2430    1.0063 H       1  LIG1        0.0810
      8 C           1.7751    2.1463   -0.7850 C.3     1  LIG1       -0.0371
      9 H           1.4237    3.1268   -0.4627 H       1  LIG1        0.0278
     10 H           1.7638    2.1193   -1.8752 H       1  LIG1        0.0278
     11 H           2.7980    2.0057   -0.4386 H       1  LIG1        0.0278
     12 N          -1.9756    2.4432   -1.9577 N.1     1  LIG1       -0.1908
     13 C          -1.3300    1.7604   -1.2967 C.1     1  LIG1        0.1016
     14 C          -2.3043   -0.7754    0.3036 C.ar    1  LIG1        0.0688
     15 C          -3.5149   -0.1804    0.5661 C.ar    1  LIG1       -0.0057
     16 C          -4.4715   -1.2396    0.5379 C.ar    1  LIG1        0.0819
     17 C          -3.8187   -2.4343    0.2627 C.ar    1  LIG1        0.0815
     18 N          -2.5050   -2.1286    0.1279 N.ar    1  LIG1       -0.3506
     19 H          -1.7992   -2.7679   -0.2038 H       1  LIG1        0.1660
     20 C          -3.7949    1.2738    0.8421 C.3     1  LIG1       -0.0364
     21 H          -4.5972    1.3633    1.5743 H       1  LIG1        0.0279
     22 H          -4.0889    1.7828   -0.0767 H       1  LIG1        0.0279
     23 H          -2.8976    1.7560    1.2298 H       1  LIG1        0.0279
     24 N          -7.0176   -1.0996    0.9335 N.1     1  LIG1       -0.1908
     25 C          -5.8797   -1.1304    0.7663 C.1     1  LIG1        0.1016
     26 C          -4.3357   -3.7890    0.1208 C.ar    1  LIG1        0.0688
     27 C          -3.6693   -4.9925    0.0157 C.ar    1  LIG1       -0.0057
     28 C          -4.6841   -5.9839   -0.0974 C.ar    1  LIG1        0.0819
     29 C          -5.9273   -5.3611   -0.0531 C.ar    1  LIG1        0.0815
     30 N          -5.6879   -4.0379    0.0784 N.ar    1  LIG1       -0.3506
     31 H          -6.4082   -3.3319    0.1794 H       1  LIG1        0.1660
     32 C          -2.1843   -5.2584    0.0233 C.3     1  LIG1       -0.0364
     33 H          -1.7052   -4.7492    0.8623 H       1  LIG1        0.0279
     34 H          -1.7213   -4.9413   -0.9151 H       1  LIG1        0.0279
     35 H          -2.0074   -6.3278    0.1336 H       1  LIG1        0.0279
     36 N          -4.3703   -8.5376   -0.2818 N.1     1  LIG1       -0.1908
     37 C          -4.4843   -7.3949   -0.2112 C.1     1  LIG1        0.1016
     38 C          -7.2713   -5.9201   -0.1176 C.ar    1  LIG1        0.0684
     39 C          -8.4950   -5.2910   -0.2424 C.ar    1  LIG1       -0.0064
     40 C          -9.4622   -6.3381   -0.2525 C.ar    1  LIG1        0.0725
     41 C          -8.8021   -7.5453   -0.1385 C.ar    1  LIG1        0.0199
     42 N          -7.4840   -7.2772   -0.0576 N.ar    1  LIG1       -0.3581
     43 H          -6.7530   -7.9728    0.0242 H       1  LIG1        0.1654
     44 H          -9.1885   -8.5490   -0.1134 H       1  LIG1        0.0820
     45 C          -8.7950   -3.8163   -0.3555 C.3     1  LIG1       -0.0364
     46 H          -9.8458   -3.6844   -0.6110 H       1  LIG1        0.0279
     47 H          -8.1961   -3.3528   -1.1432 H       1  LIG1        0.0279
     48 H          -8.6128   -3.2943    0.5869 H       1  LIG1        0.0279
     49 N         -12.0130   -5.9974   -0.4661 N.1     1  LIG1       -0.1908
     50 C         -10.8810   -6.1636   -0.3697 C.1     1  LIG1        0.1009
@<TRIPOS>BOND
     1    12    13    3
     2    10     8    1
     3    13     3    1
     4    47    45    1
     5    34    32    1
     6     8     9    1
     7     8    11    1
     8     8     2    1
     9    46    45    1
    10    49    50    3
    11     3     2   ar
    12     3     4   ar
    13    50    40    1
    14    45    39    1
    15    45    48    1
    16    36    37    3
    17    40    39   ar
    18    40    41   ar
    19    39    38   ar
    20     2     1   ar
    21    37    28    1
    22    19    18    1
    23    41    44    1
    24    41    42   ar
    25    38    42   ar
    26    38    29    1
    27    28    29   ar
    28    28    27   ar
    29    22    20    1
    30    42    43    1
    31    29    30   ar
    32    27    32    1
    33    27    26   ar
    34    32    35    1
    35    32    33    1
    36    30    26   ar
    37    30    31    1
    38    26    17    1
    39    18    17   ar
    40    18    14   ar
    41     4    14    1
    42     4     5   ar
    43    17    16   ar
    44    14    15   ar
    45    16    15   ar
    46    16    25    1
    47    15    20    1
    48     1     5   ar
    49     1     7    1
    50    25    24    3
    51    20    23    1
    52    20    21    1
    53     5     6    1
