@<TRIPOS>MOLECULE
mol_data/opt/m06hf/geoms/mol2/13id13id.out
 26 27 0 0 0
SMALL
GASTEIGER

@<TRIPOS>ATOM
      1 C           1.0949   -0.2498    0.6753 C.ar    1  LIG1        0.0064
      2 C           0.8277    0.9458    0.0623 C.ar    1  LIG1       -0.0151
      3 C          -0.5463    0.8822   -0.3305 C.ar    1  LIG1        0.0813
      4 C          -1.0603   -0.3395    0.0620 C.ar    1  LIG1        0.0810
      5 N          -0.0446   -1.0134    0.6666 N.ar    1  LIG1       -0.3582
      6 H          -0.1579   -1.8992    1.1344 H       1  LIG1        0.1654
      7 H           2.0073   -0.6108    1.1183 H       1  LIG1        0.0810
      8 C           1.7666    2.0998   -0.1767 C.3     1  LIG1       -0.0371
      9 H           1.3723    3.0069    0.2823 H       1  LIG1        0.0278
     10 H           1.8813    2.2801   -1.2461 H       1  LIG1        0.0278
     11 H           2.7440    1.8828    0.2523 H       1  LIG1        0.0278
     12 N          -1.8526    2.7093   -1.6040 N.1     1  LIG1       -0.1908
     13 C          -1.2757    1.8904   -1.0417 C.1     1  LIG1        0.1016
     14 C          -2.4020   -0.8993   -0.0969 C.ar    1  LIG1        0.0684
     15 C          -3.6308   -0.3493    0.1832 C.ar    1  LIG1       -0.0064
     16 C          -4.5888   -1.3497   -0.1734 C.ar    1  LIG1        0.0725
     17 C          -3.9148   -2.4539   -0.6494 C.ar    1  LIG1        0.0199
     18 N          -2.5938   -2.1710   -0.5939 N.ar    1  LIG1       -0.3581
     19 H          -1.8586   -2.7539   -0.9633 H       1  LIG1        0.1654
     20 H          -4.2919   -3.3921   -1.0172 H       1  LIG1        0.0820
     21 C          -3.9288    1.0122    0.7539 C.3     1  LIG1       -0.0364
     22 H          -4.7633    0.9442    1.4516 H       1  LIG1        0.0279
     23 H          -4.1901    1.7069   -0.0451 H       1  LIG1        0.0279
     24 H          -3.0520    1.3984    1.2735 H       1  LIG1        0.0279
     25 N          -7.1512   -1.1319    0.0731 N.1     1  LIG1       -0.1908
     26 C          -6.0133   -1.2356   -0.0415 C.1     1  LIG1        0.1009
@<TRIPOS>BOND
     1    12    13    3
     2    10     8    1
     3    13     3    1
     4    20    17    1
     5    19    18    1
     6    17    18   ar
     7    17    16   ar
     8    18    14   ar
     9     3     4   ar
    10     3     2   ar
    11     8     2    1
    12     8    11    1
    13     8     9    1
    14    16    26    1
    15    16    15   ar
    16    14     4    1
    17    14    15   ar
    18    23    21    1
    19    26    25    3
    20     4     5   ar
    21     2     1   ar
    22    15    21    1
    23     5     1   ar
    24     5     6    1
    25     1     7    1
    26    21    24    1
    27    21    22    1
