@<TRIPOS>MOLECULE
mol_data/opt/m06hf/geoms/mol2/13id13id13id.out
 38 40 0 0 0
SMALL
GASTEIGER

@<TRIPOS>ATOM
      1 C           0.8970    0.0062    1.3616 C.ar    1  LIG1        0.0064
      2 C           0.8567    0.9553    0.3739 C.ar    1  LIG1       -0.0151
      3 C          -0.4145    0.7987   -0.2623 C.ar    1  LIG1        0.0813
      4 C          -1.0953   -0.2296    0.3617 C.ar    1  LIG1        0.0810
      5 N          -0.2780   -0.7004    1.3425 N.ar    1  LIG1       -0.3582
      6 H          -0.5546   -1.3919    2.0229 H       1  LIG1        0.1654
      7 H           1.6716   -0.2153    2.0756 H       1  LIG1        0.0810
      8 C           1.9183    1.9587    0.0044 C.3     1  LIG1       -0.0371
      9 H           1.5243    2.9719    0.0879 H       1  LIG1        0.0278
     10 H           2.2469    1.8023   -1.0236 H       1  LIG1        0.0278
     11 H           2.7759    1.8572    0.6683 H       1  LIG1        0.0278
     12 N          -1.2986    2.1501   -2.2780 N.1     1  LIG1       -0.1908
     13 C          -0.9076    1.5449   -1.3831 C.1     1  LIG1        0.1016
     14 C          -2.4264   -0.7769    0.1015 C.ar    1  LIG1        0.0688
     15 C          -3.6385   -0.1345   -0.0119 C.ar    1  LIG1       -0.0057
     16 C          -4.5970   -1.1636   -0.2560 C.ar    1  LIG1        0.0819
     17 C          -3.9462   -2.3849   -0.2783 C.ar    1  LIG1        0.0815
     18 N          -2.6302   -2.1288   -0.0611 N.ar    1  LIG1       -0.3506
     19 H          -1.9078   -2.8326   -0.0231 H       1  LIG1        0.1660
     20 C          -3.9144    1.3427    0.0880 C.3     1  LIG1       -0.0364
     21 H          -4.8629    1.5063    0.5993 H       1  LIG1        0.0279
     22 H          -3.9672    1.7838   -0.9079 H       1  LIG1        0.0279
     23 H          -3.1142    1.8337    0.6415 H       1  LIG1        0.0279
     24 N          -7.1365   -0.8379   -0.5948 N.1     1  LIG1       -0.1908
     25 C          -6.0064   -0.9868   -0.4535 C.1     1  LIG1        0.1016
     26 C          -4.4708   -3.7336   -0.4892 C.ar    1  LIG1        0.0684
     27 C          -5.5199   -4.3764    0.1249 C.ar    1  LIG1       -0.0064
     28 C          -5.5736   -5.6751   -0.4699 C.ar    1  LIG1        0.0725
     29 C          -4.5707   -5.7697   -1.4107 C.ar    1  LIG1        0.0199
     30 N          -3.9064   -4.5918   -1.4089 N.ar    1  LIG1       -0.3581
     31 H          -3.1863   -4.3307   -2.0649 H       1  LIG1        0.1654
     32 H          -4.3057   -6.5826   -2.0641 H       1  LIG1        0.0820
     33 C          -6.4305   -3.8451    1.2006 C.3     1  LIG1       -0.0364
     34 H          -6.6735   -4.6413    1.9041 H       1  LIG1        0.0279
     35 H          -7.3531   -3.4674    0.7585 H       1  LIG1        0.0279
     36 H          -5.9442   -3.0273    1.7323 H       1  LIG1        0.0279
     37 N          -7.2474   -7.5387    0.1608 N.1     1  LIG1       -0.1908
     38 C          -6.5012   -6.7160   -0.1300 C.1     1  LIG1        0.1009
@<TRIPOS>BOND
     1    12    13    3
     2    31    30    1
     3    32    29    1
     4    29    30   ar
     5    29    28   ar
     6    30    26   ar
     7    13     3    1
     8    10     8    1
     9    22    20    1
    10    24    25    3
    11    26    17    1
    12    26    27   ar
    13    28    38    1
    14    28    27   ar
    15    25    16    1
    16    17    16   ar
    17    17    18   ar
    18     3     4   ar
    19     3     2   ar
    20    16    15   ar
    21    38    37    3
    22    18    19    1
    23    18    14   ar
    24    15    20    1
    25    15    14   ar
    26     8     9    1
    27     8     2    1
    28     8    11    1
    29    20    21    1
    30    20    23    1
    31    14     4    1
    32    27    33    1
    33     4     5   ar
    34     2     1   ar
    35    35    33    1
    36    33    36    1
    37    33    34    1
    38     5     1   ar
    39     5     6    1
    40     1     7    1
