@<TRIPOS>MOLECULE
mol_data/opt/m06hf/geoms/mol2/13id13id-13id13id-.out
 50 53 0 0 0
SMALL
GASTEIGER

@<TRIPOS>ATOM
      1 C           1.3223   -0.2666    0.0551 C.ar    1  LIG1        0.0064
      2 C           0.9204    0.9901   -0.3080 C.ar    1  LIG1       -0.0151
      3 C          -0.5080    0.9426   -0.3351 C.ar    1  LIG1        0.0813
      4 C          -0.9191   -0.3372    0.0113 C.ar    1  LIG1        0.0810
      5 N           0.2111   -1.0504    0.2433 N.ar    1  LIG1       -0.3582
      6 H           0.2233   -2.0102    0.5487 H       1  LIG1        0.1654
      7 H           2.3138   -0.6611    0.1951 H       1  LIG1        0.0810
      8 C           1.7767    2.1896   -0.6208 C.3     1  LIG1       -0.0371
      9 H           1.5714    2.9965    0.0836 H       1  LIG1        0.0278
     10 H           1.5687    2.5503   -1.6284 H       1  LIG1        0.0278
     11 H           2.8303    1.9227   -0.5529 H       1  LIG1        0.0278
     12 N          -2.1708    2.8345   -0.8926 N.1     1  LIG1       -0.1908
     13 C          -1.4008    2.0128   -0.6550 C.1     1  LIG1        0.1016
     14 C          -2.2589   -0.9017    0.1312 C.ar    1  LIG1        0.0688
     15 C          -2.6726   -2.2083    0.2892 C.ar    1  LIG1       -0.0057
     16 C          -4.0941   -2.1555    0.3468 C.ar    1  LIG1        0.0819
     17 C          -4.5001   -0.8321    0.2172 C.ar    1  LIG1        0.0815
     18 N          -3.3729   -0.0970    0.0884 N.ar    1  LIG1       -0.3506
     19 H          -3.3529    0.9016   -0.0798 H       1  LIG1        0.1660
     20 C          -1.8389   -3.4628    0.3738 C.3     1  LIG1       -0.0364
     21 H          -1.2998   -3.5163    1.3232 H       1  LIG1        0.0279
     22 H          -1.1310   -3.5134   -0.4564 H       1  LIG1        0.0279
     23 H          -2.4892   -4.3350    0.3151 H       1  LIG1        0.0279
     24 N          -5.7365   -4.1292    0.5932 N.1     1  LIG1       -0.1908
     25 C          -4.9842   -3.2643    0.4945 C.1     1  LIG1        0.1016
     26 C          -5.8328   -0.2468    0.2067 C.ar    1  LIG1        0.0688
     27 C          -6.2282    1.0706    0.3123 C.ar    1  LIG1       -0.0057
     28 C          -7.6493    1.0455    0.2453 C.ar    1  LIG1        0.0819
     29 C          -8.0730   -0.2729    0.1072 C.ar    1  LIG1        0.0815
     30 N          -6.9563   -1.0326    0.0861 N.ar    1  LIG1       -0.3506
     31 H          -6.9519   -2.0433    0.0270 H       1  LIG1        0.1660
     32 C          -5.3747    2.3045    0.4763 C.3     1  LIG1       -0.0364
     33 H          -6.0075    3.1467    0.7538 H       1  LIG1        0.0279
     34 H          -4.8593    2.5633   -0.4516 H       1  LIG1        0.0279
     35 H          -4.6356    2.1616    1.2677 H       1  LIG1        0.0279
     36 N          -9.2753    3.0427    0.3927 N.1     1  LIG1       -0.1908
     37 C          -8.5262    2.1725    0.3222 C.1     1  LIG1        0.1016
     38 C          -9.4134   -0.8355   -0.0003 C.ar    1  LIG1        0.0684
     39 C          -9.8178   -2.1284   -0.2722 C.ar    1  LIG1       -0.0064
     40 C         -11.2428   -2.0943   -0.2557 C.ar    1  LIG1        0.0725
     41 C         -11.6463   -0.8027    0.0185 C.ar    1  LIG1        0.0199
     42 N         -10.5338   -0.0570    0.1697 N.ar    1  LIG1       -0.3581
     43 H         -10.5214    0.9346    0.3724 H       1  LIG1        0.1654
     44 H         -12.6351   -0.3890    0.1112 H       1  LIG1        0.0820
     45 C          -8.9709   -3.3476   -0.5433 C.3     1  LIG1       -0.0364
     46 H          -8.4169   -3.6589    0.3456 H       1  LIG1        0.0279
     47 H          -8.2672   -3.1630   -1.3589 H       1  LIG1        0.0279
     48 H          -9.6166   -4.1739   -0.8385 H       1  LIG1        0.0279
     49 N         -12.7729   -4.1320   -0.6750 N.1     1  LIG1       -0.1908
     50 C         -12.1063   -3.2158   -0.4872 C.1     1  LIG1        0.1009
@<TRIPOS>BOND
     1    10     8    1
     2    47    45    1
     3    12    13    3
     4    48    45    1
     5    49    50    3
     6    13     3    1
     7     8    11    1
     8     8     2    1
     9     8     9    1
    10    45    39    1
    11    45    46    1
    12    50    40    1
    13    22    20    1
    14    34    32    1
    15     3     2   ar
    16     3     4   ar
    17     2     1   ar
    18    39    40   ar
    19    39    38   ar
    20    40    41   ar
    21    19    18    1
    22    38    29    1
    23    38    42   ar
    24     4    14    1
    25     4     5   ar
    26    41    44    1
    27    41    42   ar
    28    31    30    1
    29     1     7    1
    30     1     5   ar
    31    30    29   ar
    32    30    26   ar
    33    18    14   ar
    34    18    17   ar
    35    29    28   ar
    36    14    15   ar
    37    42    43    1
    38    26    17    1
    39    26    27   ar
    40    17    16   ar
    41     5     6    1
    42    28    27   ar
    43    28    37    1
    44    15    16   ar
    45    15    20    1
    46    27    32    1
    47    23    20    1
    48    37    36    3
    49    16    25    1
    50    20    21    1
    51    32    33    1
    52    32    35    1
    53    25    24    3
