@<TRIPOS>MOLECULE
mol_data/opt/m06hf/geoms/mol2/13id13id-.out
 26 27 0 0 0
SMALL
GASTEIGER

@<TRIPOS>ATOM
      1 C           1.1867   -0.2984    0.0164 C.ar    1  LIG1        0.0064
      2 C           0.8127    1.0173   -0.0087 C.ar    1  LIG1       -0.0151
      3 C          -0.6170    1.0094   -0.0196 C.ar    1  LIG1        0.0813
      4 C          -1.0572   -0.3069   -0.0009 C.ar    1  LIG1        0.0810
      5 N           0.0578   -1.0793    0.0208 N.ar    1  LIG1       -0.3582
      6 H           0.0494   -2.0864    0.0376 H       1  LIG1        0.1654
      7 H           2.1687   -0.7382    0.0314 H       1  LIG1        0.0810
      8 C           1.6956    2.2381   -0.0224 C.3     1  LIG1       -0.0371
      9 H           1.4956    2.8605    0.8504 H       1  LIG1        0.0278
     10 H           1.5090    2.8309   -0.9185 H       1  LIG1        0.0278
     11 H           2.7429    1.9398   -0.0095 H       1  LIG1        0.0278
     12 N          -2.2246    3.0264   -0.0660 N.1     1  LIG1       -0.1908
     13 C          -1.4804    2.1491   -0.0455 C.1     1  LIG1        0.1016
     14 C          -2.4075   -0.8620   -0.0020 C.ar    1  LIG1        0.0684
     15 C          -2.8383   -2.1740    0.0169 C.ar    1  LIG1       -0.0064
     16 C          -4.2626   -2.1140    0.0048 C.ar    1  LIG1        0.0725
     17 C          -4.6418   -0.7875   -0.0208 C.ar    1  LIG1        0.0199
     18 N          -3.5142   -0.0481   -0.0245 N.ar    1  LIG1       -0.3581
     19 H          -3.4826    0.9641   -0.0414 H       1  LIG1        0.1654
     20 H          -5.6217   -0.3444   -0.0360 H       1  LIG1        0.0820
     21 C          -2.0203   -3.4418    0.0448 C.3     1  LIG1       -0.0364
     22 H          -1.4020   -3.4914    0.9448 H       1  LIG1        0.0279
     23 H          -1.3883   -3.5219   -0.8434 H       1  LIG1        0.0279
     24 H          -2.6899   -4.3012    0.0543 H       1  LIG1        0.0279
     25 N          -5.8104   -4.1808    0.0277 N.1     1  LIG1       -0.1908
     26 C          -5.1399   -3.2481    0.0172 C.1     1  LIG1        0.1009
@<TRIPOS>BOND
     1    10     8    1
     2    23    21    1
     3    12    13    3
     4    13     3    1
     5    19    18    1
     6    20    17    1
     7    18    17   ar
     8    18    14   ar
     9     8    11    1
    10     8     2    1
    11     8     9    1
    12    17    16   ar
    13     3     2   ar
    14     3     4   ar
    15     2     1   ar
    16    14     4    1
    17    14    15   ar
    18     4     5   ar
    19    16    15   ar
    20    16    26    1
    21     1     5   ar
    22     1     7    1
    23    15    21    1
    24    26    25    3
    25     5     6    1
    26    21    24    1
    27    21    22    1
