@<TRIPOS>MOLECULE
mol_data/opt/m06hf/geoms/mol2/13ie13ie13ie.out
 41 43 0 0 0
SMALL
GASTEIGER

@<TRIPOS>ATOM
      1 C           0.8816   -0.0892    1.4202 C.ar    1  LIG1        0.0063
      2 C           0.8181    0.9482    0.5275 C.ar    1  LIG1       -0.0171
      3 C          -0.4739    0.8719   -0.0887 C.ar    1  LIG1        0.0542
      4 C          -1.1420   -0.2066    0.4622 C.ar    1  LIG1        0.0790
      5 N          -0.3002   -0.7807    1.3702 N.ar    1  LIG1       -0.3583
      6 H          -0.5693   -1.5284    1.9900 H       1  LIG1        0.1654
      7 H           1.6759   -0.3835    2.0849 H       1  LIG1        0.0810
      8 C           1.8788    1.9723    0.2203 C.3     1  LIG1       -0.0371
      9 H           1.5036    2.9758    0.4241 H       1  LIG1        0.0278
     10 H           2.1593    1.9226   -0.8326 H       1  LIG1        0.0278
     11 H           2.7639    1.7946    0.8306 H       1  LIG1        0.0278
     12 C          -0.9720    1.7352   -1.1179 C.1     1  LIG1       -0.0672
     13 C          -1.3692    2.4738   -1.9802 C.1     1  LIG1       -0.1138
     14 H          -1.7223    3.1251   -2.7455 H       1  LIG1        0.1232
     15 C          -2.4820   -0.7324    0.2022 C.ar    1  LIG1        0.0687
     16 C          -3.7027   -0.0969    0.1892 C.ar    1  LIG1       -0.0077
     17 C          -4.6765   -1.1038   -0.1018 C.ar    1  LIG1        0.0549
     18 C          -4.0154   -2.3123   -0.2447 C.ar    1  LIG1        0.0795
     19 N          -2.6884   -2.0669   -0.0594 N.ar    1  LIG1       -0.3506
     20 H          -1.9634   -2.7662   -0.1091 H       1  LIG1        0.1660
     21 C          -3.9800    1.3620    0.4319 C.3     1  LIG1       -0.0365
     22 H          -4.8766    1.4674    1.0431 H       1  LIG1        0.0279
     23 H          -4.1385    1.8786   -0.5155 H       1  LIG1        0.0279
     24 H          -3.1327    1.8246    0.9373 H       1  LIG1        0.0279
     25 C          -6.0885   -0.9013   -0.2375 C.1     1  LIG1       -0.0672
     26 C          -7.2714   -0.7099   -0.3449 C.1     1  LIG1       -0.1138
     27 H          -8.3179   -0.5396   -0.4490 H       1  LIG1        0.1232
     28 C          -4.5279   -3.6499   -0.5429 C.ar    1  LIG1        0.0682
     29 C          -5.5242   -4.3756    0.0660 C.ar    1  LIG1       -0.0084
     30 C          -5.5884   -5.6272   -0.6283 C.ar    1  LIG1        0.0455
     31 C          -4.6333   -5.6078   -1.6229 C.ar    1  LIG1        0.0179
     32 N          -3.9942   -4.4132   -1.5582 N.ar    1  LIG1       -0.3581
     33 H          -3.3150   -4.0774   -2.2227 H       1  LIG1        0.1654
     34 H          -4.3820   -6.3548   -2.3550 H       1  LIG1        0.0819
     35 C          -6.3751   -3.9627    1.2364 C.3     1  LIG1       -0.0365
     36 H          -6.4793   -4.7982    1.9292 H       1  LIG1        0.0279
     37 H          -7.3672   -3.6652    0.8945 H       1  LIG1        0.0279
     38 H          -5.9214   -3.1140    1.7476 H       1  LIG1        0.0279
     39 C          -6.4728   -6.7144   -0.3260 C.1     1  LIG1       -0.0679
     40 C          -7.2172   -7.6187   -0.0546 C.1     1  LIG1       -0.1139
     41 H          -7.8741   -8.4219    0.1841 H       1  LIG1        0.1232
@<TRIPOS>BOND
     1    14    13    1
     2    34    31    1
     3    33    32    1
     4    13    12    3
     5    31    32   ar
     6    31    30   ar
     7    32    28   ar
     8    12     3    1
     9    10     8    1
    10    30    39    1
    11    30    29   ar
    12    28    18    1
    13    28    29   ar
    14    23    21    1
    15    27    26    1
    16    26    25    3
    17    39    40    3
    18    18    17   ar
    19    18    19   ar
    20    25    17    1
    21    20    19    1
    22    17    16   ar
    23     3     4   ar
    24     3     2   ar
    25    19    15   ar
    26    40    41    1
    27    29    35    1
    28    16    15   ar
    29    16    21    1
    30    15     4    1
    31     8     9    1
    32     8     2    1
    33     8    11    1
    34    21    24    1
    35    21    22    1
    36     4     5   ar
    37     2     1   ar
    38    37    35    1
    39    35    38    1
    40    35    36    1
    41     5     1   ar
    42     5     6    1
    43     1     7    1
