@<TRIPOS>MOLECULE
mol_data/opt/m06hf/geoms/mol2/13ie13ie-13ie-13ie-.out
 54 57 0 0 0
SMALL
GASTEIGER

@<TRIPOS>ATOM
      1 C           1.1791   -0.1783    0.7633 C.ar    1  LIG1        0.0063
      2 C           0.6983    1.1010    0.8412 C.ar    1  LIG1       -0.0171
      3 C          -0.7060    1.0179    0.5691 C.ar    1  LIG1        0.0542
      4 C          -1.0161   -0.3148    0.3369 C.ar    1  LIG1        0.0790
      5 N           0.1393   -1.0195    0.4595 N.ar    1  LIG1       -0.3583
      6 H           0.2000   -2.0216    0.3803 H       1  LIG1        0.1654
      7 H           2.1790   -0.5527    0.9020 H       1  LIG1        0.0810
      8 C           1.4612    2.3640    1.1426 C.3     1  LIG1       -0.0371
      9 H           1.0467    2.8548    2.0241 H       1  LIG1        0.0278
     10 H           1.3924    3.0567    0.3028 H       1  LIG1        0.0278
     11 H           2.5106    2.1366    1.3270 H       1  LIG1        0.0278
     12 C          -1.6272    2.1144    0.5499 C.1     1  LIG1       -0.0672
     13 C          -2.4012    3.0385    0.5494 C.1     1  LIG1       -0.1138
     14 H          -3.0642    3.8730    0.5532 H       1  LIG1        0.1232
     15 C          -2.2957   -0.9377    0.0234 C.ar    1  LIG1        0.0687
     16 C          -2.6120   -2.1917   -0.4620 C.ar    1  LIG1       -0.0077
     17 C          -4.0345   -2.2245   -0.5874 C.ar    1  LIG1        0.0549
     18 C          -4.5269   -0.9967   -0.1697 C.ar    1  LIG1        0.0795
     19 N          -3.4596   -0.2392    0.1940 N.ar    1  LIG1       -0.3506
     20 H          -3.5018    0.6895    0.5946 H       1  LIG1        0.1660
     21 C          -1.6766   -3.3125   -0.8393 C.3     1  LIG1       -0.0365
     22 H          -1.2757   -3.8139    0.0463 H       1  LIG1        0.0279
     23 H          -0.8513   -2.9416   -1.4513 H       1  LIG1        0.0279
     24 H          -2.2275   -4.0532   -1.4178 H       1  LIG1        0.0279
     25 C          -4.8086   -3.3049   -1.1203 C.1     1  LIG1       -0.0672
     26 C          -5.4395   -4.2206   -1.5792 C.1     1  LIG1       -0.1138
     27 H          -6.0058   -5.0239   -1.9895 H       1  LIG1        0.1232
     28 C          -5.8893   -0.4715   -0.1211 C.ar    1  LIG1        0.0687
     29 C          -7.0522   -1.0213    0.3686 C.ar    1  LIG1       -0.0077
     30 C          -8.0719   -0.0363    0.1766 C.ar    1  LIG1        0.0549
     31 C          -7.4902    1.0768   -0.4078 C.ar    1  LIG1        0.0795
     32 N          -6.1694    0.7938   -0.5816 N.ar    1  LIG1       -0.3506
     33 H          -5.4919    1.4286   -0.9764 H       1  LIG1        0.1660
     34 C          -7.2369   -2.3738    1.0016 C.3     1  LIG1       -0.0365
     35 H          -6.2748   -2.7699    1.3258 H       1  LIG1        0.0279
     36 H          -7.6730   -3.0730    0.2867 H       1  LIG1        0.0279
     37 H          -7.9055   -2.2864    1.8585 H       1  LIG1        0.0279
     38 C          -9.4560   -0.1760    0.5178 C.1     1  LIG1       -0.0672
     39 C         -10.6130   -0.3117    0.8158 C.1     1  LIG1       -0.1138
     40 H         -11.6399   -0.4290    1.0719 H       1  LIG1        0.1232
     41 C          -8.0741    2.3548   -0.8156 C.ar    1  LIG1        0.0682
     42 C          -8.8581    3.2391   -0.1136 C.ar    1  LIG1       -0.0084
     43 C          -9.1302    4.3269   -1.0055 C.ar    1  LIG1        0.0455
     44 C          -8.5012    4.0591   -2.2029 C.ar    1  LIG1        0.0179
     45 N          -7.8607    2.8703   -2.0756 N.ar    1  LIG1       -0.3581
     46 H          -7.4082    2.3680   -2.8229 H       1  LIG1        0.1654
     47 H          -8.4783    4.6290   -3.1149 H       1  LIG1        0.0819
     48 C          -9.3283    3.1207    1.3110 C.3     1  LIG1       -0.0365
     49 H          -8.7560    2.3532    1.8310 H       1  LIG1        0.0279
     50 H         -10.3824    2.8411    1.3383 H       1  LIG1        0.0279
     51 H          -9.2078    4.0782    1.8186 H       1  LIG1        0.0279
     52 C          -9.9047    5.4936   -0.6962 C.1     1  LIG1       -0.0679
     53 C         -10.5556    6.4655   -0.4160 C.1     1  LIG1       -0.1139
     54 H         -11.1354    7.3248   -0.1705 H       1  LIG1        0.1232
@<TRIPOS>BOND
     1    47    44    1
     2    46    45    1
     3    44    45   ar
     4    44    43   ar
     5    45    41   ar
     6    27    26    1
     7    26    25    3
     8    23    21    1
     9    24    21    1
    10    25    17    1
    11    43    52    1
    12    43    42   ar
    13    33    32    1
    14    21    16    1
    15    21    22    1
    16    41    31    1
    17    41    42   ar
    18    52    53    3
    19    17    16   ar
    20    17    18   ar
    21    32    31   ar
    22    32    28   ar
    23    16    15   ar
    24    53    54    1
    25    31    30   ar
    26    18    28    1
    27    18    19   ar
    28    28    29   ar
    29    42    48    1
    30    15    19   ar
    31    15     4    1
    32    30    29   ar
    33    30    38    1
    34    19    20    1
    35    36    34    1
    36    10     8    1
    37     4     5   ar
    38     4     3   ar
    39    29    34    1
    40     6     5    1
    41     5     1   ar
    42    38    39    3
    43    13    12    3
    44    13    14    1
    45    12     3    1
    46     3     2   ar
    47     1     2   ar
    48     1     7    1
    49    39    40    1
    50     2     8    1
    51    34    35    1
    52    34    37    1
    53     8    11    1
    54     8     9    1
    55    48    50    1
    56    48    51    1
    57    48    49    1
