@<TRIPOS>MOLECULE
mol_data/opt/m06hf/geoms/mol2/13ie13ie-13ie13ie-.out
 54 57 0 0 0
SMALL
GASTEIGER

@<TRIPOS>ATOM
      1 C           1.3101   -0.2910    0.3395 C.ar    1  LIG1        0.0063
      2 C           0.9251    1.0141    0.1970 C.ar    1  LIG1       -0.0171
      3 C          -0.4986    0.9966    0.0378 C.ar    1  LIG1        0.0542
      4 C          -0.9182   -0.3252    0.0900 C.ar    1  LIG1        0.0790
      5 N           0.1949   -1.0858    0.2731 N.ar    1  LIG1       -0.3583
      6 H           0.1836   -2.0860    0.3852 H       1  LIG1        0.1654
      7 H           2.2898   -0.7133    0.4828 H       1  LIG1        0.0810
      8 C           1.7923    2.2449    0.1970 C.3     1  LIG1       -0.0371
      9 H           1.4740    2.9306    0.9834 H       1  LIG1        0.0278
     10 H           1.7137    2.7636   -0.7593 H       1  LIG1        0.0278
     11 H           2.8336    1.9731    0.3662 H       1  LIG1        0.0278
     12 C          -1.3292    2.1496   -0.1367 C.1     1  LIG1       -0.0672
     13 C          -2.0053    3.1385   -0.2737 C.1     1  LIG1       -0.1138
     14 H          -2.5844    4.0236   -0.4053 H       1  LIG1        0.1232
     15 C          -2.2545   -0.9002   -0.0045 C.ar    1  LIG1        0.0687
     16 C          -2.6711   -2.2106   -0.1205 C.ar    1  LIG1       -0.0077
     17 C          -4.0970   -2.1724   -0.1582 C.ar    1  LIG1        0.0549
     18 C          -4.4954   -0.8425   -0.0697 C.ar    1  LIG1        0.0795
     19 N          -3.3655   -0.0976    0.0253 N.ar    1  LIG1       -0.3506
     20 H          -3.3209    0.9097    0.1157 H       1  LIG1        0.1660
     21 C          -1.8335   -3.4611   -0.2123 C.3     1  LIG1       -0.0365
     22 H          -1.3654   -3.6997    0.7471 H       1  LIG1        0.0279
     23 H          -1.0618   -3.3583   -0.9790 H       1  LIG1        0.0279
     24 H          -2.4735   -4.2994   -0.4853 H       1  LIG1        0.0279
     25 C          -4.9549   -3.3122   -0.2749 C.1     1  LIG1       -0.0672
     26 C          -5.6558   -4.2887   -0.3678 C.1     1  LIG1       -0.1138
     27 H          -6.2654   -5.1586   -0.4593 H       1  LIG1        0.1232
     28 C          -5.8300   -0.2592   -0.0601 C.ar    1  LIG1        0.0687
     29 C          -6.2417    1.0539   -0.1575 C.ar    1  LIG1       -0.0077
     30 C          -7.6656    1.0313   -0.0793 C.ar    1  LIG1        0.0549
     31 C          -8.0686   -0.2934    0.0582 C.ar    1  LIG1        0.0795
     32 N          -6.9446   -1.0497    0.0701 N.ar    1  LIG1       -0.3506
     33 H          -6.9127   -2.0565    0.1716 H       1  LIG1        0.1660
     34 C          -5.3956    2.2890   -0.3307 C.3     1  LIG1       -0.0365
     35 H          -6.0400    3.1291   -0.5884 H       1  LIG1        0.0279
     36 H          -4.6678    2.1524   -1.1340 H       1  LIG1        0.0279
     37 H          -4.8663    2.5391    0.5931 H       1  LIG1        0.0279
     38 C          -8.5258    2.1741   -0.1414 C.1     1  LIG1       -0.0672
     39 C          -9.2426    3.1419   -0.1869 C.1     1  LIG1       -0.1138
     40 H          -9.8626    4.0066   -0.2418 H       1  LIG1        0.1232
     41 C          -9.4053   -0.8616    0.1833 C.ar    1  LIG1        0.0682
     42 C          -9.8477   -2.1663    0.0942 C.ar    1  LIG1       -0.0084
     43 C         -11.2604   -2.1229    0.3044 C.ar    1  LIG1        0.0455
     44 C         -11.6141   -0.8028    0.5058 C.ar    1  LIG1        0.0179
     45 N         -10.4883   -0.0584    0.4316 N.ar    1  LIG1       -0.3581
     46 H         -10.4253    0.9473    0.5157 H       1  LIG1        0.1654
     47 H         -12.5803   -0.3675    0.6905 H       1  LIG1        0.0819
     48 C          -9.0393   -3.4074   -0.1832 C.3     1  LIG1       -0.0365
     49 H          -8.4526   -3.7026    0.6918 H       1  LIG1        0.0279
     50 H          -8.3651   -3.2521   -1.0291 H       1  LIG1        0.0279
     51 H          -9.7178   -4.2251   -0.4254 H       1  LIG1        0.0279
     52 C         -12.1486   -3.2477    0.2956 C.1     1  LIG1       -0.0679
     53 C         -12.8783   -4.2036    0.2837 C.1     1  LIG1       -0.1139
     54 H         -13.5298   -5.0459    0.2753 H       1  LIG1        0.1232
@<TRIPOS>BOND
     1    36    34    1
     2    50    48    1
     3    23    21    1
     4    10     8    1
     5    35    34    1
     6    24    21    1
     7    27    26    1
     8    51    48    1
     9    14    13    1
    10    26    25    3
    11    34    29    1
    12    34    37    1
    13    25    17    1
    14    13    12    3
    15    40    39    1
    16    21    16    1
    17    21    22    1
    18    39    38    3
    19    48    42    1
    20    48    49    1
    21    17    16   ar
    22    17    18   ar
    23    29    30   ar
    24    29    28   ar
    25    38    30    1
    26    12     3    1
    27    16    15   ar
    28    30    31   ar
    29    18    28    1
    30    18    19   ar
    31    28    32   ar
    32    15    19   ar
    33    15     4    1
    34    19    20    1
    35     3     4   ar
    36     3     2   ar
    37    31    32   ar
    38    31    41    1
    39    32    33    1
    40     4     5   ar
    41    42    41   ar
    42    42    43   ar
    43    41    45   ar
    44     8     2    1
    45     8    11    1
    46     8     9    1
    47     2     1   ar
    48     5     1   ar
    49     5     6    1
    50    54    53    1
    51    53    52    3
    52    52    43    1
    53    43    44   ar
    54     1     7    1
    55    45    44   ar
    56    45    46    1
    57    44    47    1
