@<TRIPOS>MOLECULE
mol_data/opt/m06hf/geoms/mol2/13ie13ie-13ie.out
 41 43 0 0 0
SMALL
GASTEIGER

@<TRIPOS>ATOM
      1 C           1.2428   -0.3230   -0.3171 C.ar    1  LIG1        0.0063
      2 C           0.8620    0.9765   -0.1185 C.ar    1  LIG1       -0.0171
      3 C          -0.5631    0.9578    0.0309 C.ar    1  LIG1        0.0542
      4 C          -0.9868   -0.3585   -0.0824 C.ar    1  LIG1        0.0790
      5 N           0.1235   -1.1149   -0.2941 N.ar    1  LIG1       -0.3583
      6 H           0.1070   -2.1069   -0.4653 H       1  LIG1        0.1654
      7 H           2.2211   -0.7439   -0.4738 H       1  LIG1        0.0810
      8 C           1.7353    2.2019   -0.0583 C.3     1  LIG1       -0.0371
      9 H           1.6339    2.6919    0.9108 H       1  LIG1        0.0278
     10 H           1.4424    2.9133   -0.8317 H       1  LIG1        0.0278
     11 H           2.7792    1.9280   -0.2080 H       1  LIG1        0.0278
     12 C          -1.3957    2.1017    0.2474 C.1     1  LIG1       -0.0672
     13 C          -2.0796    3.0795    0.4163 C.1     1  LIG1       -0.1138
     14 H          -2.6668    3.9543    0.5762 H       1  LIG1        0.1232
     15 C          -2.3250   -0.9333   -0.0200 C.ar    1  LIG1        0.0687
     16 C          -2.7426   -2.2420    0.1074 C.ar    1  LIG1       -0.0077
     17 C          -4.1692   -2.2067    0.0951 C.ar    1  LIG1        0.0549
     18 C          -4.5667   -0.8792   -0.0318 C.ar    1  LIG1        0.0795
     19 N          -3.4364   -0.1338   -0.1003 N.ar    1  LIG1       -0.3506
     20 H          -3.3940    0.8735   -0.1961 H       1  LIG1        0.1660
     21 C          -1.9043   -3.4859    0.2611 C.3     1  LIG1       -0.0365
     22 H          -1.1055   -3.3270    0.9889 H       1  LIG1        0.0279
     23 H          -1.4703   -3.7977   -0.6934 H       1  LIG1        0.0279
     24 H          -2.5344   -4.2996    0.6187 H       1  LIG1        0.0279
     25 C          -5.0319   -3.3441    0.2048 C.1     1  LIG1       -0.0672
     26 C          -5.7471   -4.3104    0.2932 C.1     1  LIG1       -0.1138
     27 H          -6.3616   -5.1758    0.3866 H       1  LIG1        0.1232
     28 C          -5.9025   -0.2991   -0.0990 C.ar    1  LIG1        0.0682
     29 C          -6.3269    1.0132   -0.0332 C.ar    1  LIG1       -0.0084
     30 C          -7.7501    0.9778   -0.1602 C.ar    1  LIG1        0.0455
     31 C          -8.1269   -0.3446   -0.2927 C.ar    1  LIG1        0.0179
     32 N          -7.0053   -1.0986   -0.2554 N.ar    1  LIG1       -0.3581
     33 H          -6.9575   -2.1074   -0.3111 H       1  LIG1        0.1654
     34 H          -9.1057   -0.7760   -0.4068 H       1  LIG1        0.0819
     35 C          -5.4948    2.2562    0.1515 C.3     1  LIG1       -0.0365
     36 H          -6.1575    3.0967    0.3570 H       1  LIG1        0.0279
     37 H          -4.9223    2.4902   -0.7505 H       1  LIG1        0.0279
     38 H          -4.8063    2.1431    0.9926 H       1  LIG1        0.0279
     39 C          -8.6267    2.1118   -0.1430 C.1     1  LIG1       -0.0679
     40 C          -9.3487    3.0736   -0.1258 C.1     1  LIG1       -0.1139
     41 H          -9.9946    3.9203   -0.1120 H       1  LIG1        0.1232
@<TRIPOS>BOND
     1    10     8    1
     2    37    35    1
     3    23    21    1
     4     7     1    1
     5     6     5    1
     6    34    31    1
     7     1     5   ar
     8     1     2   ar
     9    33    32    1
    10     5     4   ar
    11    31    32   ar
    12    31    30   ar
    13    32    28   ar
    14    11     8    1
    15    20    19    1
    16    30    39    1
    17    30    29   ar
    18    39    40    3
    19    40    41    1
    20     2     8    1
    21     2     3   ar
    22    19    18   ar
    23    19    15   ar
    24    28    29   ar
    25    28    18    1
    26     4    15    1
    27     4     3   ar
    28     8     9    1
    29    29    35    1
    30    18    17   ar
    31    15    16   ar
    32     3    12    1
    33    17    16   ar
    34    17    25    1
    35    16    21    1
    36    35    36    1
    37    35    38    1
    38    25    26    3
    39    12    13    3
    40    21    24    1
    41    21    22    1
    42    26    27    1
    43    13    14    1
