@<TRIPOS>MOLECULE
mol_data/opt/m06hf/geoms/mol2/13ie13ie-4ie13ie.out
 56 59 0 0 0
SMALL
GASTEIGER

@<TRIPOS>ATOM
      1 C           1.3732   -0.4421   -0.1761 C.ar    1  LIG1        0.0063
      2 C           0.9855    0.7568   -0.7101 C.ar    1  LIG1       -0.0171
      3 C          -0.4466    0.7689   -0.6672 C.ar    1  LIG1        0.0542
      4 C          -0.8676   -0.4293   -0.1055 C.ar    1  LIG1        0.0790
      5 N           0.2519   -1.1455    0.1820 N.ar    1  LIG1       -0.3583
      6 H           0.2478   -2.0560    0.6112 H       1  LIG1        0.1654
      7 H           2.3586   -0.8473   -0.0230 H       1  LIG1        0.0810
      8 C           1.8587    1.8602   -1.2463 C.3     1  LIG1       -0.0371
      9 H           1.6926    2.7816   -0.6865 H       1  LIG1        0.0278
     10 H           1.6253    2.0518   -2.2945 H       1  LIG1        0.0278
     11 H           2.9092    1.5823   -1.1639 H       1  LIG1        0.0278
     12 C          -1.2867    1.8315   -1.1300 C.1     1  LIG1       -0.0672
     13 C          -1.9854    2.7295   -1.5290 C.1     1  LIG1       -0.1138
     14 H          -2.5813    3.5312   -1.9003 H       1  LIG1        0.1232
     15 C          -2.2119   -0.9196    0.1744 C.ar    1  LIG1        0.0687
     16 C          -2.6588   -2.1108    0.7149 C.ar    1  LIG1       -0.0077
     17 C          -4.0822   -2.0198    0.7562 C.ar    1  LIG1        0.0534
     18 C          -4.4486   -0.7807    0.2463 C.ar    1  LIG1        0.0631
     19 N          -3.3030   -0.1403   -0.0957 N.ar    1  LIG1       -0.3518
     20 H          -3.2479    0.7595   -0.5562 H       1  LIG1        0.1660
     21 C          -1.8507   -3.2916    1.1904 C.3     1  LIG1       -0.0365
     22 H          -1.2037   -3.0180    2.0285 H       1  LIG1        0.0279
     23 H          -1.2440   -3.7078    0.3814 H       1  LIG1        0.0279
     24 H          -2.5317   -4.0693    1.5339 H       1  LIG1        0.0279
     25 C          -4.9715   -3.0237    1.2596 C.1     1  LIG1       -0.0673
     26 C          -5.7039   -3.8794    1.6819 C.1     1  LIG1       -0.1138
     27 H          -6.3599   -4.6284    2.0594 H       1  LIG1        0.1232
     28 C          -6.0668    1.1419    0.4471 C.ar    1  LIG1       -0.0406
     29 C          -7.3497    1.6371    0.2269 C.ar    1  LIG1       -0.0479
     30 C          -5.7861   -0.1809    0.0633 C.ar    1  LIG1        0.0036
     31 C          -8.3763    0.8649   -0.3212 C.ar    1  LIG1        0.0142
     32 H          -7.5643    2.6669    0.4829 H       1  LIG1        0.0627
     33 C          -6.7930   -0.9652   -0.4962 C.ar    1  LIG1       -0.0363
     34 C          -8.0805   -0.4622   -0.6848 C.ar    1  LIG1        0.0344
     35 H          -6.5773   -1.9848   -0.7852 H       1  LIG1        0.0637
     36 C          -5.0292    2.0327    1.1098 C.3     1  LIG1       -0.0391
     37 H          -5.5304    2.8347    1.6501 H       1  LIG1        0.0278
     38 H          -4.3602    2.4888    0.3754 H       1  LIG1        0.0278
     39 H          -4.4237    1.4562    1.8099 H       1  LIG1        0.0278
     40 C          -9.0749   -1.3439   -1.2559 C.1     1  LIG1       -0.0690
     41 C          -9.8750   -2.0994   -1.7423 C.1     1  LIG1       -0.1139
     42 H         -10.5858   -2.7802   -2.1508 H       1  LIG1        0.1232
     43 C          -9.7110    1.4699   -0.4886 C.ar    1  LIG1        0.0518
     44 C         -10.3696    2.3927    0.3016 C.ar    1  LIG1       -0.0098
     45 C         -11.6149    2.6621   -0.3468 C.ar    1  LIG1        0.0454
     46 C         -11.6650    1.8952   -1.4937 C.ar    1  LIG1        0.0179
     47 N         -10.5171    1.1863   -1.5640 N.ar    1  LIG1       -0.3593
     48 H         -10.2904    0.4986   -2.2666 H       1  LIG1        0.1654
     49 H         -12.4373    1.8149   -2.2387 H       1  LIG1        0.0819
     50 C          -9.9454    2.9886    1.6203 C.3     1  LIG1       -0.0365
     51 H         -10.8325    3.1655    2.2287 H       1  LIG1        0.0279
     52 H          -9.4394    3.9468    1.4784 H       1  LIG1        0.0279
     53 H          -9.2777    2.3114    2.1532 H       1  LIG1        0.0279
     54 C         -12.6350    3.5516    0.1255 C.1     1  LIG1       -0.0679
     55 C         -13.4800    4.2996    0.5414 C.1     1  LIG1       -0.1139
     56 H         -14.2312    4.9608    0.9049 H       1  LIG1        0.1232
@<TRIPOS>BOND
     1    10     8    1
     2    48    47    1
     3    49    46    1
     4    42    41    1
     5    14    13    1
     6    41    40    3
     7    47    46   ar
     8    47    43   ar
     9    13    12    3
    10    46    45   ar
    11    40    34    1
    12     8    11    1
    13     8     2    1
    14     8     9    1
    15    12     3    1
    16    35    33    1
    17     2     3   ar
    18     2     1   ar
    19    34    33   ar
    20    34    31   ar
    21     3     4   ar
    22    20    19    1
    23    33    30   ar
    24    43    31    1
    25    43    44   ar
    26    45    54    1
    27    45    44   ar
    28    31    29   ar
    29     1     7    1
    30     1     5   ar
    31     4    15    1
    32     4     5   ar
    33    19    15   ar
    34    19    18   ar
    35    30    18    1
    36    30    28   ar
    37    54    55    3
    38    15    16   ar
    39     5     6    1
    40    29    28   ar
    41    29    32    1
    42    18    17   ar
    43    44    50    1
    44    38    36    1
    45    23    21    1
    46    28    36    1
    47    55    56    1
    48    16    17   ar
    49    16    21    1
    50    17    25    1
    51    36    37    1
    52    36    39    1
    53    21    24    1
    54    21    22    1
    55    25    26    3
    56    52    50    1
    57    50    53    1
    58    50    51    1
    59    26    27    1
