@<TRIPOS>MOLECULE
mol_data/opt/m06hf/geoms/mol2/13ie13ie13ie13ie-.out
 54 57 0 0 0
SMALL
GASTEIGER

@<TRIPOS>ATOM
      1 C           0.3683    0.5884    2.2285 C.ar    1  LIG1        0.0063
      2 C           0.6100    1.2180    1.0362 C.ar    1  LIG1       -0.0171
      3 C          -0.4668    0.8552    0.1629 C.ar    1  LIG1        0.0542
      4 C          -1.3205    0.0253    0.8666 C.ar    1  LIG1        0.0790
      5 N          -0.7925   -0.1306    2.1154 N.ar    1  LIG1       -0.3583
      6 H          -1.2607   -0.6084    2.8690 H       1  LIG1        0.1654
      7 H           0.9325    0.6004    3.1454 H       1  LIG1        0.0810
      8 C           1.7715    2.1064    0.6753 C.3     1  LIG1       -0.0371
      9 H           1.4132    3.0929    0.3788 H       1  LIG1        0.0278
     10 H           2.3270    1.6815   -0.1619 H       1  LIG1        0.0278
     11 H           2.4432    2.2156    1.5264 H       1  LIG1        0.0278
     12 C          -0.6179    1.2521   -1.2051 C.1     1  LIG1       -0.0672
     13 C          -0.7268    1.5983   -2.3517 C.1     1  LIG1       -0.1138
     14 H          -0.8264    1.9016   -3.3678 H       1  LIG1        0.1232
     15 C          -2.5620   -0.6308    0.4555 C.ar    1  LIG1        0.0687
     16 C          -3.6922   -0.1126   -0.1342 C.ar    1  LIG1       -0.0077
     17 C          -4.5951   -1.2094   -0.3055 C.ar    1  LIG1        0.0549
     18 C          -3.9856   -2.3483    0.1949 C.ar    1  LIG1        0.0795
     19 N          -2.7561   -1.9785    0.6492 N.ar    1  LIG1       -0.3506
     20 H          -2.0825   -2.6054    1.0617 H       1  LIG1        0.1660
     21 C          -3.9493    1.3161   -0.5298 C.3     1  LIG1       -0.0365
     22 H          -4.9631    1.5990   -0.2452 H       1  LIG1        0.0279
     23 H          -3.8423    1.4334   -1.6091 H       1  LIG1        0.0279
     24 H          -3.2318    1.9743   -0.0408 H       1  LIG1        0.0279
     25 C          -5.8938   -1.1481   -0.9068 C.1     1  LIG1       -0.0672
     26 C          -6.9838   -1.0766   -1.4100 C.1     1  LIG1       -0.1138
     27 H          -7.9476   -1.0169   -1.8591 H       1  LIG1        0.1232
     28 C          -4.4499   -3.7331    0.2571 C.ar    1  LIG1        0.0687
     29 C          -5.6276   -4.2628    0.7257 C.ar    1  LIG1       -0.0077
     30 C          -5.5219   -5.6799    0.5578 C.ar    1  LIG1        0.0549
     31 C          -4.2814   -5.9583   -0.0022 C.ar    1  LIG1        0.0795
     32 N          -3.6477   -4.7687   -0.1717 N.ar    1  LIG1       -0.3506
     33 H          -2.7885   -4.6491   -0.6855 H       1  LIG1        0.1660
     34 C          -6.7946   -3.5266    1.3258 C.3     1  LIG1       -0.0365
     35 H          -7.1287   -4.0374    2.2294 H       1  LIG1        0.0279
     36 H          -7.6225   -3.4910    0.6162 H       1  LIG1        0.0279
     37 H          -6.5056   -2.5045    1.5673 H       1  LIG1        0.0279
     38 C          -6.5194   -6.6419    0.9191 C.1     1  LIG1       -0.0672
     39 C          -7.3659   -7.4461    1.2187 C.1     1  LIG1       -0.1138
     40 H          -8.1224   -8.1411    1.5023 H       1  LIG1        0.1232
     41 C          -3.6769   -7.2275   -0.3857 C.ar    1  LIG1        0.0682
     42 C          -2.3831   -7.5432   -0.7534 C.ar    1  LIG1       -0.0084
     43 C          -2.3769   -8.9472   -1.0190 C.ar    1  LIG1        0.0455
     44 C          -3.6555   -9.4214   -0.7993 C.ar    1  LIG1        0.0179
     45 N          -4.4242   -8.3758   -0.4215 N.ar    1  LIG1       -0.3581
     46 H          -5.4024   -8.4103   -0.1665 H       1  LIG1        0.1654
     47 H          -4.0473  -10.4194   -0.8877 H       1  LIG1        0.0819
     48 C          -1.1839   -6.6339   -0.8513 C.3     1  LIG1       -0.0365
     49 H          -1.0929   -6.0101    0.0412 H       1  LIG1        0.0279
     50 H          -1.2361   -5.9940   -1.7370 H       1  LIG1        0.0279
     51 H          -0.2850   -7.2435   -0.9361 H       1  LIG1        0.0279
     52 C          -1.2421   -9.7228   -1.4258 C.1     1  LIG1       -0.0679
     53 C          -0.2789  -10.3587   -1.7637 C.1     1  LIG1       -0.1139
     54 H           0.5684  -10.9287   -2.0653 H       1  LIG1        0.1232
@<TRIPOS>BOND
     1    14    13    1
     2    13    12    3
     3    54    53    1
     4    27    26    1
     5    53    52    3
     6    50    48    1
     7    23    21    1
     8    52    43    1
     9    26    25    3
    10    12     3    1
    11    43    44   ar
    12    43    42   ar
    13    51    48    1
    14    25    17    1
    15    47    44    1
    16    48    42    1
    17    48    49    1
    18    44    45   ar
    19    42    41   ar
    20    33    32    1
    21    21    22    1
    22    21    16    1
    23    21    24    1
    24    45    41   ar
    25    45    46    1
    26    41    31    1
    27    17    16   ar
    28    17    18   ar
    29    32    31   ar
    30    32    28   ar
    31    10     8    1
    32    16    15   ar
    33    31    30   ar
    34     3     4   ar
    35     3     2   ar
    36    18    28    1
    37    18    19   ar
    38    28    29   ar
    39     9     8    1
    40    15    19   ar
    41    15     4    1
    42    30    29   ar
    43    30    38    1
    44    36    34    1
    45    19    20    1
    46     8     2    1
    47     8    11    1
    48    29    34    1
    49     4     5   ar
    50    38    39    3
    51     2     1   ar
    52    39    40    1
    53    34    37    1
    54    34    35    1
    55     5     1   ar
    56     5     6    1
    57     1     7    1
