@<TRIPOS>MOLECULE
mol_data/opt/m06hf/geoms/mol2/13ie13ie-.out
 28 29 0 0 0
SMALL
GASTEIGER

@<TRIPOS>ATOM
      1 C           1.1896   -0.2900    0.0157 C.ar    1  LIG1        0.0063
      2 C           0.7991    1.0213   -0.0030 C.ar    1  LIG1       -0.0171
      3 C          -0.6336    1.0118   -0.0123 C.ar    1  LIG1        0.0542
      4 C          -1.0532   -0.3118    0.0013 C.ar    1  LIG1        0.0790
      5 N           0.0687   -1.0801    0.0182 N.ar    1  LIG1       -0.3583
      6 H           0.0647   -2.0866    0.0304 H       1  LIG1        0.1654
      7 H           2.1761   -0.7200    0.0275 H       1  LIG1        0.0810
      8 C           1.6700    2.2497   -0.0125 C.3     1  LIG1       -0.0371
      9 H           1.4629    2.8678    0.8621 H       1  LIG1        0.0278
     10 H           1.4748    2.8457   -0.9050 H       1  LIG1        0.0278
     11 H           2.7217    1.9652   -0.0018 H       1  LIG1        0.0278
     12 C          -1.4730    2.1712   -0.0321 C.1     1  LIG1       -0.0672
     13 C          -2.1688    3.1554   -0.0486 C.1     1  LIG1       -0.1138
     14 H          -2.7606    4.0413   -0.0632 H       1  LIG1        0.1232
     15 C          -2.3957   -0.8829   -0.0005 C.ar    1  LIG1        0.0682
     16 C          -2.8276   -2.1951    0.0136 C.ar    1  LIG1       -0.0084
     17 C          -4.2558   -2.1451    0.0031 C.ar    1  LIG1        0.0455
     18 C          -4.6286   -0.8156   -0.0167 C.ar    1  LIG1        0.0179
     19 N          -3.4996   -0.0715   -0.0186 N.ar    1  LIG1       -0.3581
     20 H          -3.4452    0.9388   -0.0312 H       1  LIG1        0.1654
     21 H          -5.6087   -0.3733   -0.0292 H       1  LIG1        0.0819
     22 C          -2.0060   -3.4598    0.0358 C.3     1  LIG1       -0.0365
     23 H          -1.3842   -3.5141    0.9337 H       1  LIG1        0.0279
     24 H          -1.3729   -3.5382   -0.8523 H       1  LIG1        0.0279
     25 H          -2.6792   -4.3165    0.0431 H       1  LIG1        0.0279
     26 C          -5.1368   -3.2756    0.0118 C.1     1  LIG1       -0.0679
     27 C          -5.8583   -4.2380    0.0193 C.1     1  LIG1       -0.1139
     28 H          -6.5029   -5.0857    0.0259 H       1  LIG1        0.1232
@<TRIPOS>BOND
     1    10     8    1
     2    24    22    1
     3    14    13    1
     4    13    12    3
     5    12     3    1
     6    20    19    1
     7    21    18    1
     8    19    18   ar
     9    19    15   ar
    10    18    17   ar
    11     8     2    1
    12     8    11    1
    13     8     9    1
    14     3     2   ar
    15     3     4   ar
    16     2     1   ar
    17    15     4    1
    18    15    16   ar
    19     4     5   ar
    20    17    26    1
    21    17    16   ar
    22    26    27    3
    23    16    22    1
    24     1     5   ar
    25     1     7    1
    26     5     6    1
    27    27    28    1
    28    22    25    1
    29    22    23    1
