@<TRIPOS>MOLECULE
mol_data/opt/m06hf/geoms/mol2/13ie13ie13ie-13ie.out
 54 57 0 0 0
SMALL
GASTEIGER

@<TRIPOS>ATOM
      1 C           1.1809    0.0541    0.8121 C.ar    1  LIG1        0.0063
      2 C           0.8829    1.0699   -0.0572 C.ar    1  LIG1       -0.0171
      3 C          -0.5105    0.9404   -0.3681 C.ar    1  LIG1        0.0542
      4 C          -1.0001   -0.1463    0.3336 C.ar    1  LIG1        0.0790
      5 N           0.0429   -0.6751    1.0374 N.ar    1  LIG1       -0.3583
      6 H          -0.0553   -1.4190    1.7099 H       1  LIG1        0.1654
      7 H           2.1138   -0.2025    1.2850 H       1  LIG1        0.0810
      8 C           1.8120    2.1168   -0.6134 C.3     1  LIG1       -0.0371
      9 H           1.4591    3.1142   -0.3490 H       1  LIG1        0.0278
     10 H           1.8491    2.0474   -1.7015 H       1  LIG1        0.0278
     11 H           2.8174    1.9800   -0.2161 H       1  LIG1        0.0278
     12 C          -1.2539    1.7628   -1.2748 C.1     1  LIG1       -0.0672
     13 C          -1.8588    2.4650   -2.0413 C.1     1  LIG1       -0.1138
     14 H          -2.3961    3.0799   -2.7249 H       1  LIG1        0.1232
     15 C          -2.3401   -0.7290    0.3809 C.ar    1  LIG1        0.0687
     16 C          -3.5649   -0.1435    0.5893 C.ar    1  LIG1       -0.0077
     17 C          -4.5260   -1.2026    0.5430 C.ar    1  LIG1        0.0549
     18 C          -3.8484   -2.3932    0.3133 C.ar    1  LIG1        0.0795
     19 N          -2.5274   -2.0851    0.2244 N.ar    1  LIG1       -0.3506
     20 H          -1.8096   -2.7235   -0.0798 H       1  LIG1        0.1660
     21 C          -3.8611    1.3095    0.8427 C.3     1  LIG1       -0.0365
     22 H          -4.5531    1.4053    1.6801 H       1  LIG1        0.0279
     23 H          -4.3155    1.7597   -0.0411 H       1  LIG1        0.0279
     24 H          -2.9383    1.8437    1.0653 H       1  LIG1        0.0279
     25 C          -5.9390   -1.0510    0.7168 C.1     1  LIG1       -0.0672
     26 C          -7.1254   -0.8961    0.8603 C.1     1  LIG1       -0.1138
     27 H          -8.1708   -0.7383    0.9957 H       1  LIG1        0.1232
     28 C          -4.3443   -3.7535    0.1568 C.ar    1  LIG1        0.0687
     29 C          -3.6710   -4.9546    0.0649 C.ar    1  LIG1       -0.0077
     30 C          -4.6710   -5.9592   -0.0981 C.ar    1  LIG1        0.0549
     31 C          -5.9149   -5.3342   -0.0947 C.ar    1  LIG1        0.0795
     32 N          -5.6889   -4.0069    0.0595 N.ar    1  LIG1       -0.3506
     33 H          -6.3980   -3.2853    0.1098 H       1  LIG1        0.1660
     34 C          -2.1867   -5.2112    0.1336 C.3     1  LIG1       -0.0365
     35 H          -1.7434   -4.7046    0.9940 H       1  LIG1        0.0279
     36 H          -1.6814   -4.8868   -0.7809 H       1  LIG1        0.0279
     37 H          -2.0147   -6.2814    0.2441 H       1  LIG1        0.0279
     38 C          -4.4231   -7.3626   -0.2334 C.1     1  LIG1       -0.0672
     39 C          -4.1983   -8.5412   -0.3497 C.1     1  LIG1       -0.1138
     40 H          -3.9792   -9.5793   -0.4469 H       1  LIG1        0.1232
     41 C          -7.2522   -5.8978   -0.2318 C.ar    1  LIG1        0.0682
     42 C          -8.4984   -5.3088   -0.1446 C.ar    1  LIG1       -0.0084
     43 C          -9.4485   -6.3508   -0.3740 C.ar    1  LIG1        0.0455
     44 C          -8.7451   -7.5204   -0.5871 C.ar    1  LIG1        0.0179
     45 N          -7.4277   -7.2313   -0.4991 N.ar    1  LIG1       -0.3581
     46 H          -6.6615   -7.8831   -0.6053 H       1  LIG1        0.1654
     47 H          -9.1033   -8.5137   -0.7911 H       1  LIG1        0.0819
     48 C          -8.8333   -3.8685    0.1468 C.3     1  LIG1       -0.0365
     49 H          -9.9157   -3.7669    0.2229 H       1  LIG1        0.0279
     50 H          -8.4863   -3.2081   -0.6531 H       1  LIG1        0.0279
     51 H          -8.3892   -3.5482    1.0929 H       1  LIG1        0.0279
     52 C         -10.8743   -6.2046   -0.3761 C.1     1  LIG1       -0.0679
     53 C         -12.0682   -6.0613   -0.3738 C.1     1  LIG1       -0.1139
     54 H         -13.1264   -5.9425   -0.3742 H       1  LIG1        0.1232
@<TRIPOS>BOND
     1    14    13    1
     2    13    12    3
     3    10     8    1
     4    12     3    1
     5    47    44    1
     6    36    34    1
     7    50    48    1
     8     8     9    1
     9     8    11    1
    10     8     2    1
    11    46    45    1
    12    44    45   ar
    13    44    43   ar
    14    45    41   ar
    15    40    39    1
    16    52    43    1
    17    52    53    3
    18    54    53    1
    19    43    42   ar
    20     3     2   ar
    21     3     4   ar
    22    39    38    3
    23    38    30    1
    24    41    42   ar
    25    41    31    1
    26    42    48    1
    27    30    31   ar
    28    30    29   ar
    29    31    32   ar
    30    20    19    1
    31     2     1   ar
    32    23    21    1
    33    32    33    1
    34    32    28   ar
    35    29    34    1
    36    29    28   ar
    37    34    37    1
    38    34    35    1
    39    48    49    1
    40    48    51    1
    41    28    18    1
    42    19    18   ar
    43    19    15   ar
    44    18    17   ar
    45     4    15    1
    46     4     5   ar
    47    15    16   ar
    48    17    16   ar
    49    17    25    1
    50    16    21    1
    51    25    26    3
    52     1     5   ar
    53     1     7    1
    54    21    24    1
    55    21    22    1
    56    26    27    1
    57     5     6    1
