@<TRIPOS>MOLECULE
mol_data/opt/m06hf/geoms/mol2/13ie13ie-13ie-13ie.out
 54 57 0 0 0
SMALL
GASTEIGER

@<TRIPOS>ATOM
      1 C           1.2836   -0.4037    0.3916 C.ar    1  LIG1        0.0063
      2 C           0.8641    0.8519    0.7393 C.ar    1  LIG1       -0.0171
      3 C          -0.5639    0.8425    0.6247 C.ar    1  LIG1        0.0542
      4 C          -0.9503   -0.4250    0.2098 C.ar    1  LIG1        0.0790
      5 N           0.1848   -1.1610    0.0763 N.ar    1  LIG1       -0.3583
      6 H           0.2013   -2.1320   -0.1882 H       1  LIG1        0.1654
      7 H           2.2779   -0.8141    0.3434 H       1  LIG1        0.0810
      8 C           1.7026    2.0296    1.1605 C.3     1  LIG1       -0.0371
      9 H           1.4209    2.3558    2.1625 H       1  LIG1        0.0278
     10 H           1.5523    2.8654    0.4758 H       1  LIG1        0.0278
     11 H           2.7584    1.7605    1.1609 H       1  LIG1        0.0278
     12 C          -1.4311    1.9476    0.9026 C.1     1  LIG1       -0.0672
     13 C          -2.1516    2.8811    1.1532 C.1     1  LIG1       -0.1138
     14 H          -2.7645    3.7216    1.3846 H       1  LIG1        0.1232
     15 C          -2.2787   -0.9626   -0.0558 C.ar    1  LIG1        0.0687
     16 C          -2.6912   -2.1542   -0.6212 C.ar    1  LIG1       -0.0077
     17 C          -4.1191   -2.1195   -0.6321 C.ar    1  LIG1        0.0549
     18 C          -4.5191   -0.9165   -0.0696 C.ar    1  LIG1        0.0795
     19 N          -3.3922   -0.2369    0.2685 N.ar    1  LIG1       -0.3506
     20 H          -3.3630    0.6527    0.7511 H       1  LIG1        0.1660
     21 C          -1.8463   -3.2779   -1.1664 C.3     1  LIG1       -0.0365
     22 H          -1.3432   -3.8252   -0.3638 H       1  LIG1        0.0279
     23 H          -1.1019   -2.9024   -1.8729 H       1  LIG1        0.0279
     24 H          -2.4914   -3.9804   -1.6929 H       1  LIG1        0.0279
     25 C          -4.9819   -3.1207   -1.1831 C.1     1  LIG1       -0.0672
     26 C          -5.6875   -3.9730   -1.6549 C.1     1  LIG1       -0.1138
     27 H          -6.3190   -4.7195   -2.0765 H       1  LIG1        0.1232
     28 C          -5.8450   -0.3394    0.1326 C.ar    1  LIG1        0.0687
     29 C          -6.9972   -0.8747    0.6560 C.ar    1  LIG1       -0.0077
     30 C          -7.9694    0.1745    0.6297 C.ar    1  LIG1        0.0549
     31 C          -7.3697    1.3100    0.0969 C.ar    1  LIG1        0.0795
     32 N          -6.0855    0.9771   -0.1926 N.ar    1  LIG1       -0.3506
     33 H          -5.4306    1.5705   -0.6778 H       1  LIG1        0.1660
     34 C          -7.2104   -2.2660    1.1881 C.3     1  LIG1       -0.0365
     35 H          -6.2496   -2.7448    1.3745 H       1  LIG1        0.0279
     36 H          -7.7600   -2.8690    0.4639 H       1  LIG1        0.0279
     37 H          -7.7830   -2.2210    2.1149 H       1  LIG1        0.0279
     38 C          -9.3194    0.0709    1.0949 C.1     1  LIG1       -0.0672
     39 C         -10.4544   -0.0233    1.4887 C.1     1  LIG1       -0.1138
     40 H         -11.4529   -0.1298    1.8441 H       1  LIG1        0.1232
     41 C          -7.9075    2.6412   -0.1529 C.ar    1  LIG1        0.0682
     42 C          -7.3109    3.7837   -0.6516 C.ar    1  LIG1       -0.0084
     43 C          -8.3290    4.7863   -0.6753 C.ar    1  LIG1        0.0455
     44 C          -9.4910    4.2157   -0.1937 C.ar    1  LIG1        0.0179
     45 N          -9.2208    2.9278    0.1152 N.ar    1  LIG1       -0.3581
     46 H          -9.8697    2.2518    0.4959 H       1  LIG1        0.1654
     47 H         -10.4672    4.6461   -0.0566 H       1  LIG1        0.0819
     48 C          -5.8849    3.9871   -1.0981 C.3     1  LIG1       -0.0365
     49 H          -5.7425    5.0368   -1.3519 H       1  LIG1        0.0279
     50 H          -5.6567    3.3935   -1.9877 H       1  LIG1        0.0279
     51 H          -5.1783    3.7308   -0.3038 H       1  LIG1        0.0279
     52 C          -8.1667    6.1400   -1.1179 C.1     1  LIG1       -0.0679
     53 C          -8.0085    7.2719   -1.4927 C.1     1  LIG1       -0.1139
     54 H          -7.8771    8.2754   -1.8240 H       1  LIG1        0.1232
@<TRIPOS>BOND
     1    27    26    1
     2    50    48    1
     3    23    21    1
     4    54    53    1
     5    24    21    1
     6    26    25    3
     7    53    52    3
     8    49    48    1
     9    25    17    1
    10    21    16    1
    11    21    22    1
    12    52    43    1
    13    48    42    1
    14    48    51    1
    15    33    32    1
    16    43    42   ar
    17    43    44   ar
    18    42    41   ar
    19    17    16   ar
    20    17    18   ar
    21    16    15   ar
    22    44    47    1
    23    44    45   ar
    24    32    31   ar
    25    32    28   ar
    26     6     5    1
    27    41    31    1
    28    41    45   ar
    29    18    28    1
    30    18    19   ar
    31    15     4    1
    32    15    19   ar
    33     5     4   ar
    34     5     1   ar
    35    31    30   ar
    36    45    46    1
    37    28    29   ar
    38     4     3   ar
    39    19    20    1
    40     7     1    1
    41     1     2   ar
    42    36    34    1
    43    10     8    1
    44     3     2   ar
    45     3    12    1
    46    30    29   ar
    47    30    38    1
    48    29    34    1
    49     2     8    1
    50    12    13    3
    51    38    39    3
    52    13    14    1
    53     8    11    1
    54     8     9    1
    55    34    35    1
    56    34    37    1
    57    39    40    1
