@<TRIPOS>MOLECULE
mol_data/opt/m06hf/geoms/mol2/13ie13ie.out
 28 29 0 0 0
SMALL
GASTEIGER

@<TRIPOS>ATOM
      1 C           1.0801   -0.2904    0.6928 C.ar    1  LIG1        0.0063
      2 C           0.8139    0.9569    0.1928 C.ar    1  LIG1       -0.0171
      3 C          -0.5611    0.9449   -0.2115 C.ar    1  LIG1        0.0542
      4 C          -1.0732   -0.3094    0.0675 C.ar    1  LIG1        0.0790
      5 N          -0.0599   -1.0461    0.6086 N.ar    1  LIG1       -0.3583
      6 H          -0.1825   -1.9687    0.9943 H       1  LIG1        0.1654
      7 H           1.9909   -0.6933    1.1021 H       1  LIG1        0.0810
      8 C           1.7562    2.1247    0.0640 C.3     1  LIG1       -0.0371
      9 H           1.3631    2.9864    0.6050 H       1  LIG1        0.0278
     10 H           1.8697    2.4063   -0.9837 H       1  LIG1        0.0278
     11 H           2.7347    1.8690    0.4696 H       1  LIG1        0.0278
     12 C          -1.2702    2.0256   -0.8284 C.1     1  LIG1       -0.0672
     13 C          -1.8482    2.9452   -1.3449 C.1     1  LIG1       -0.1138
     14 H          -2.3643    3.7534   -1.8078 H       1  LIG1        0.1232
     15 C          -2.4130   -0.8599   -0.1385 C.ar    1  LIG1        0.0682
     16 C          -3.6448   -0.3680    0.2225 C.ar    1  LIG1       -0.0084
     17 C          -4.6074   -1.3295   -0.2280 C.ar    1  LIG1        0.0455
     18 C          -3.9225   -2.3598   -0.8366 C.ar    1  LIG1        0.0179
     19 N          -2.5991   -2.0696   -0.7714 N.ar    1  LIG1       -0.3581
     20 H          -1.8635   -2.5899   -1.2221 H       1  LIG1        0.1654
     21 H          -4.2927   -3.2561   -1.3024 H       1  LIG1        0.0819
     22 C          -3.9446    0.9088    0.9597 C.3     1  LIG1       -0.0365
     23 H          -4.7193    0.7285    1.7055 H       1  LIG1        0.0279
     24 H          -4.2980    1.6725    0.2653 H       1  LIG1        0.0279
     25 H          -3.0438    1.2796    1.4480 H       1  LIG1        0.0279
     26 C          -6.0281   -1.2390   -0.0555 C.1     1  LIG1       -0.0679
     27 C          -7.2159   -1.1422    0.1045 C.1     1  LIG1       -0.1139
     28 H          -8.2679   -1.0572    0.2447 H       1  LIG1        0.1232
@<TRIPOS>BOND
     1    14    13    1
     2    13    12    3
     3    21    18    1
     4    20    19    1
     5    10     8    1
     6    18    19   ar
     7    18    17   ar
     8    12     3    1
     9    19    15   ar
    10    17    26    1
    11    17    16   ar
    12     3     4   ar
    13     3     2   ar
    14    15     4    1
    15    15    16   ar
    16    26    27    3
    17     8     2    1
    18     8    11    1
    19     8     9    1
    20     4     5   ar
    21    27    28    1
    22     2     1   ar
    23    16    22    1
    24    24    22    1
    25     5     1   ar
    26     5     6    1
    27     1     7    1
    28    22    25    1
    29    22    23    1
