@<TRIPOS>MOLECULE
mol_data/opt/m06hf/geoms/mol2/13ie13ai-13di-13ei-6la-12ae-4fd-4ei-.out
 100 107 0 0 0
SMALL
GASTEIGER

@<TRIPOS>ATOM
      1 C          -1.1525    1.1578   -2.7263 C.ar    1  LIG1        0.0063
      2 C          -1.7978    2.3059   -2.3514 C.ar    1  LIG1       -0.0171
      3 C          -2.6317    1.9580   -1.2383 C.ar    1  LIG1        0.0542
      4 C          -2.4530    0.6105   -0.9837 C.ar    1  LIG1        0.0787
      5 N          -1.5580    0.1409   -1.9001 N.ar    1  LIG1       -0.3583
      6 H          -1.1619   -0.7848   -1.8764 H       1  LIG1        0.1654
      7 H          -0.4366    0.9896   -3.5128 H       1  LIG1        0.0810
      8 C          -1.6894    3.6747   -2.9699 C.3     1  LIG1       -0.0371
      9 H          -1.3818    4.4030   -2.2183 H       1  LIG1        0.0278
     10 H          -2.6552    3.9869   -3.3692 H       1  LIG1        0.0278
     11 H          -0.9579    3.6683   -3.7774 H       1  LIG1        0.0278
     12 C          -3.5069    2.8455   -0.5331 C.1     1  LIG1       -0.0672
     13 C          -4.2323    3.6120    0.0436 C.1     1  LIG1       -0.1138
     14 H          -4.8831    4.2856    0.5503 H       1  LIG1        0.1232
     15 C          -3.0478   -0.2498    0.0347 C.ar    1  LIG1        0.0648
     16 C          -3.3879    0.0135    1.3408 C.ar    1  LIG1       -0.0314
     17 C          -3.9421   -1.1748    1.8993 C.ar    1  LIG1       -0.0231
     18 C          -3.9176   -2.1234    0.8990 C.ar    1  LIG1        0.0676
     19 N          -3.3528   -1.5619   -0.2250 N.ar    1  LIG1       -0.3516
     20 H          -3.4649   -1.9384   -1.1548 H       1  LIG1        0.1660
     21 H          -3.2312    0.9544    1.8423 H       1  LIG1        0.0642
     22 C          -4.4206   -1.3682    3.3170 C.3     1  LIG1       -0.0376
     23 H          -4.3602   -2.4203    3.5978 H       1  LIG1        0.0278
     24 H          -5.4590   -1.0498    3.4193 H       1  LIG1        0.0278
     25 H          -3.8014   -0.7841    3.9978 H       1  LIG1        0.0278
     26 C          -4.3425   -3.5201    0.9027 C.ar    1  LIG1        0.0815
     27 C          -5.4929   -4.1232    1.3853 C.ar    1  LIG1        0.0819
     28 C          -5.4197   -5.5273    1.1309 C.ar    1  LIG1       -0.0057
     29 C          -4.2224   -5.7277    0.4838 C.ar    1  LIG1        0.0688
     30 N          -3.5891   -4.5108    0.3588 N.ar    1  LIG1       -0.3506
     31 H          -2.6850   -4.3712   -0.0661 H       1  LIG1        0.1660
     32 N          -7.4716   -2.8969    2.5029 N.1     1  LIG1       -0.1908
     33 C          -6.5878   -3.4344    2.0026 C.1     1  LIG1        0.1016
     34 C          -6.4490   -6.5581    1.5098 C.3     1  LIG1       -0.0364
     35 H          -6.0022   -7.5517    1.4920 H       1  LIG1        0.0279
     36 H          -7.2795   -6.5419    0.8031 H       1  LIG1        0.0279
     37 H          -6.8318   -6.3459    2.5082 H       1  LIG1        0.0279
     38 C          -3.6045   -6.9516   -0.0232 C.ar    1  LIG1        0.0795
     39 C          -4.1245   -7.9622   -0.8189 C.ar    1  LIG1        0.0548
     40 C          -3.0792   -8.8981   -1.0772 C.ar    1  LIG1       -0.0090
     41 C          -1.9550   -8.4178   -0.4257 C.ar    1  LIG1        0.0562
     42 N          -2.2992   -7.2461    0.1960 N.ar    1  LIG1       -0.3517
     43 H          -1.6455   -6.7033    0.7424 H       1  LIG1        0.1660
     44 C          -5.4540   -8.0130   -1.3494 C.1     1  LIG1       -0.0672
     45 C          -6.5633   -8.0700   -1.8113 C.1     1  LIG1       -0.1138
     46 H          -7.5458   -8.1133   -2.2206 H       1  LIG1        0.1232
     47 C          -3.2249  -10.1132   -1.9584 C.3     1  LIG1       -0.0365
     48 H          -3.4413  -11.0090   -1.3717 H       1  LIG1        0.0279
     49 H          -2.3176  -10.2807   -2.5405 H       1  LIG1        0.0279
     50 H          -4.0579   -9.9513   -2.6421 H       1  LIG1        0.0279
     51 C           0.5435   -8.1758   -0.0830 C.ar    1  LIG1        0.2245
     52 C          -0.5985   -8.9757   -0.3330 C.ar    1  LIG1        0.0601
     53 C          -0.3517  -10.3352   -0.4868 C.ar    1  LIG1       -0.0454
     54 C           0.9481  -10.8368   -0.4492 C.ar    1  LIG1       -0.0318
     55 C           1.9863   -9.9418   -0.2340 C.ar    1  LIG1        0.1099
     56 N           1.7707   -8.6343   -0.0457 N.ar    1  LIG1       -0.2092
     57 H          -1.1839  -11.0107   -0.6263 H       1  LIG1        0.0626
     58 O           0.3552   -6.8568    0.1450 O.3     1  LIG1       -0.4792
     59 C           1.5320   -6.0676    0.3483 C.3     1  LIG1        0.0804
     60 H           1.1713   -5.0562    0.5149 H       1  LIG1        0.0660
     61 H           2.0843   -6.4337    1.2119 H       1  LIG1        0.0660
     62 H           2.1671   -6.1158   -0.5343 H       1  LIG1        0.0660
     63 H           1.1376  -11.8923   -0.5780 H       1  LIG1        0.0640
     64 C           3.3910  -10.3812   -0.1961 C.ar    1  LIG1        0.1551
     65 C           3.9907  -11.5976   -0.2932 C.ar    1  LIG1        0.0018
     66 C           5.4043  -11.3564   -0.1902 C.ar    1  LIG1        0.0711
     67 C           5.5414  -10.0022   -0.0291 C.ar    1  LIG1        0.1546
     68 O           4.3276   -9.4227   -0.0369 O.2     1  LIG1       -0.4519
     69 H           3.5240  -12.5575   -0.4307 H       1  LIG1        0.0668
     70 C           6.4364  -12.3385   -0.3333 C.1     1  LIG1       -0.0658
     71 C           7.2748  -13.1852   -0.4854 C.1     1  LIG1       -0.1138
     72 H           8.0199  -13.9339   -0.6237 H       1  LIG1        0.1232
     73 C           7.8382   -9.3937    0.7900 C.ar    1  LIG1        0.1282
     74 C           8.9087   -8.5009    0.8250 C.ar    1  LIG1       -0.0105
     75 C           6.6849   -9.0838    0.0555 C.ar    1  LIG1        0.0611
     76 C           8.8468   -7.2779    0.1668 C.ar    1  LIG1        0.0041
     77 H           9.8004   -8.7527    1.3869 H       1  LIG1        0.0661
     78 C           6.6097   -7.8514   -0.5860 C.ar    1  LIG1       -0.0295
     79 C           7.6746   -6.9552   -0.5348 C.ar    1  LIG1        0.0604
     80 H           5.7100   -7.5912   -1.1275 H       1  LIG1        0.0639
     81 O           7.8556  -10.5593    1.4642 O.3     1  LIG1       -0.5060
     82 H           8.6961  -10.6916    1.9156 H       1  LIG1        0.2922
     83 N           7.3859   -4.6922   -1.7740 N.1     1  LIG1       -0.1908
     84 C           7.5318   -5.6837   -1.2139 C.1     1  LIG1        0.0998
     85 C          10.5919   -5.9388    1.4139 C.ar    1  LIG1        0.0324
     86 C          11.6832   -5.0679    1.3922 C.ar    1  LIG1       -0.0455
     87 C          10.0128   -6.3470    0.1993 C.ar    1  LIG1       -0.0009
     88 C          12.1925   -4.6041    0.1849 C.ar    1  LIG1       -0.0576
     89 H          12.1170   -4.7521    2.3310 H       1  LIG1        0.0630
     90 C          10.5413   -5.8739   -0.9991 C.ar    1  LIG1       -0.0499
     91 C          11.6281   -4.9988   -1.0265 C.ar    1  LIG1       -0.0498
     92 H          10.0952   -6.1959   -1.9336 H       1  LIG1        0.0627
     93 H          13.0348   -3.9236    0.1881 H       1  LIG1        0.0621
     94 C          10.0699   -6.3722    2.6905 C.1     1  LIG1       -0.0691
     95 C           9.6562   -6.7098    3.7675 C.1     1  LIG1       -0.1139
     96 H           9.2776   -6.9987    4.7205 H       1  LIG1        0.1232
     97 C          12.1585   -4.4952   -2.3555 C.3     1  LIG1       -0.0397
     98 H          11.3687   -3.9683   -2.8926 H       1  LIG1        0.0278
     99 H          12.4943   -5.3320   -2.9698 H       1  LIG1        0.0278
    100 H          12.9948   -3.8145   -2.2036 H       1  LIG1        0.0278
@<TRIPOS>BOND
     1    11     8    1
     2     7     1    1
     3    10     8    1
     4     8     2    1
     5     8     9    1
     6    99    97    1
     7    98    97    1
     8     1     2   ar
     9     1     5   ar
    10    50    47    1
    11    49    47    1
    12    97   100    1
    13    97    91    1
    14     2     3   ar
    15    46    45    1
    16    47    48    1
    17    47    40    1
    18    92    90    1
    19     5     6    1
    20     5     4   ar
    21    45    44    3
    22    83    84    3
    23    44    39    1
    24     3     4   ar
    25     3    12    1
    26    84    79    1
    27    20    19    1
    28    80    78    1
    29    40    39   ar
    30    40    41   ar
    31    91    90   ar
    32    91    88   ar
    33    90    87   ar
    34     4    15    1
    35    39    38   ar
    36    57    53    1
    37    72    71    1
    38    78    79   ar
    39    78    75   ar
    40    63    54    1
    41    79    76   ar
    42    62    59    1
    43    12    13    3
    44    53    54   ar
    45    53    52   ar
    46    71    70    3
    47    54    55   ar
    48    69    65    1
    49    41    52    1
    50    41    42   ar
    51    70    66    1
    52    52    51   ar
    53    65    64   ar
    54    65    66   ar
    55    55    64    1
    56    55    56   ar
    57    19    15   ar
    58    19    18   ar
    59    64    68   ar
    60    66    67   ar
    61    51    56   ar
    62    51    58    1
    63    31    30    1
    64    68    67   ar
    65    67    75    1
    66    38    42   ar
    67    38    29    1
    68    15    16   ar
    69    13    14    1
    70    75    73   ar
    71    58    59    1
    72    76    87    1
    73    76    74   ar
    74    88    93    1
    75    88    86   ar
    76    42    43    1
    77    87    85   ar
    78    59    60    1
    79    59    61    1
    80    30    29   ar
    81    30    26   ar
    82    29    28   ar
    83    73    74   ar
    84    73    81    1
    85    36    34    1
    86    74    77    1
    87    18    26    1
    88    18    17   ar
    89    26    27   ar
    90    28    27   ar
    91    28    34    1
    92    16    21    1
    93    16    17   ar
    94    27    33    1
    95    86    85   ar
    96    86    89    1
    97    85    94    1
    98    81    82    1
    99    35    34    1
   100    34    37    1
   101    17    22    1
   102    33    32    3
   103    94    95    3
   104    22    24    1
   105    22    23    1
   106    22    25    1
   107    95    96    1
