@<TRIPOS>MOLECULE
mol_data/opt/m06hf/geoms/mol2/13ie6if-4dd4il.out
 57 60 0 0 0
SMALL
GASTEIGER

@<TRIPOS>ATOM
      1 C           1.3059   -0.0647   -0.8307 C.ar    1  LIG1        0.0063
      2 C           0.9497    1.1364   -0.2741 C.ar    1  LIG1       -0.0172
      3 C          -0.4462    1.0405    0.0260 C.ar    1  LIG1        0.0528
      4 C          -0.8791   -0.2195   -0.3568 C.ar    1  LIG1        0.0641
      5 N           0.2017   -0.8715   -0.8690 N.ar    1  LIG1       -0.3594
      6 H           0.1661   -1.7888   -1.2837 H       1  LIG1        0.1654
      7 H           2.2587   -0.4023   -1.2013 H       1  LIG1        0.0810
      8 C           1.8250    2.3335   -0.0116 C.3     1  LIG1       -0.0371
      9 H           1.8322    2.5711    1.0531 H       1  LIG1        0.0278
     10 H           1.4464    3.2031   -0.5502 H       1  LIG1        0.0278
     11 H           2.8459    2.1336   -0.3358 H       1  LIG1        0.0278
     12 C          -1.2406    2.0657    0.6346 C.1     1  LIG1       -0.0673
     13 C          -1.8931    2.9407    1.1399 C.1     1  LIG1       -0.1138
     14 H          -2.4744    3.7115    1.5898 H       1  LIG1        0.1232
     15 C          -2.4487   -2.1437    0.1371 C.ar    1  LIG1        0.0483
     16 C          -2.2267   -0.8155   -0.2882 C.ar    1  LIG1        0.0240
     17 C          -3.3231   -0.0298   -0.6182 C.ar    1  LIG1       -0.0072
     18 C          -4.6022   -0.5743   -0.5570 C.ar    1  LIG1        0.1434
     19 C          -4.7234   -1.9179   -0.1946 C.ar    1  LIG1        0.1138
     20 N          -3.6724   -2.6517    0.1706 N.ar    1  LIG1       -0.2475
     21 H          -3.2030    1.0040   -0.9139 H       1  LIG1        0.0662
     22 C          -1.3362   -3.0626    0.6063 C.3     1  LIG1       -0.0217
     23 H          -0.5632   -2.5038    1.1330 H       1  LIG1        0.0293
     24 H          -0.8838   -3.5916   -0.2372 H       1  LIG1        0.0293
     25 H          -1.7775   -3.8061    1.2662 H       1  LIG1        0.0293
     26 O          -5.6485    0.2355   -0.8394 O.3     1  LIG1       -0.5046
     27 H          -6.4902   -0.2031   -0.6697 H       1  LIG1        0.2922
     28 C          -6.9437   -2.6470   -1.2009 C.ar    1  LIG1        0.0617
     29 C          -8.1733   -3.3055   -1.1035 C.ar    1  LIG1       -0.0347
     30 C          -6.0509   -2.6008   -0.1213 C.ar    1  LIG1        0.0225
     31 C          -8.5390   -3.9510    0.0723 C.ar    1  LIG1        0.0011
     32 H          -8.8429   -3.3204   -1.9534 H       1  LIG1        0.0637
     33 C          -6.4033   -3.2724    1.0480 C.ar    1  LIG1       -0.0332
     34 C          -7.6252   -3.9330    1.1391 C.ar    1  LIG1        0.0602
     35 H          -5.7087   -3.2874    1.8772 H       1  LIG1        0.0637
     36 N          -6.3242   -1.5871   -3.4912 N.1     1  LIG1       -0.1908
     37 C          -6.5864   -2.0495   -2.4747 C.1     1  LIG1        0.0998
     38 N          -8.1710   -5.1691    3.3578 N.1     1  LIG1       -0.1908
     39 C          -7.9406   -4.6328    2.3701 C.1     1  LIG1        0.0998
     40 C         -10.8618   -4.2423    1.0296 C.ar    1  LIG1       -0.0425
     41 C         -12.0486   -4.9678    1.0287 C.ar    1  LIG1       -0.0548
     42 C          -9.8473   -4.6714    0.1567 C.ar    1  LIG1       -0.0103
     43 C         -12.2482   -6.0775    0.2077 C.ar    1  LIG1       -0.0197
     44 H         -12.8511   -4.6570    1.6866 H       1  LIG1        0.0622
     45 C         -10.0309   -5.7671   -0.6778 C.ar    1  LIG1       -0.0120
     46 C         -11.2316   -6.4794   -0.6550 C.ar    1  LIG1        0.1207
     47 H          -9.2471   -6.0993   -1.3461 H       1  LIG1        0.0660
     48 H         -13.1903   -6.6055    0.2490 H       1  LIG1        0.0654
     49 C         -10.7024   -3.0346    1.9365 C.3     1  LIG1       -0.0391
     50 H         -11.6808   -2.6062    2.1528 H       1  LIG1        0.0278
     51 H         -10.0871   -2.2686    1.4629 H       1  LIG1        0.0278
     52 H         -10.2347   -3.3232    2.8796 H       1  LIG1        0.0278
     53 O         -11.3112   -7.5354   -1.5020 O.3     1  LIG1       -0.4951
     54 C         -12.5000   -8.3027   -1.4929 C.3     1  LIG1        0.0788
     55 H         -12.3486   -9.0941   -2.2217 H       1  LIG1        0.0660
     56 H         -12.6715   -8.7375   -0.5050 H       1  LIG1        0.0660
     57 H         -13.3575   -7.6913   -1.7852 H       1  LIG1        0.0660
@<TRIPOS>BOND
     1    36    37    3
     2    37    28    1
     3    55    54    1
     4    32    29    1
     5    57    54    1
     6    53    54    1
     7    53    46    1
     8    54    56    1
     9    47    45    1
    10     6     5    1
    11     7     1    1
    12    28    29   ar
    13    28    30   ar
    14    29    31   ar
    15    21    17    1
    16     5     1   ar
    17     5     4   ar
    18    26    27    1
    19    26    18    1
    20     1     2   ar
    21    45    46   ar
    22    45    42   ar
    23    46    43   ar
    24    17    18   ar
    25    17    16   ar
    26    18    19   ar
    27    10     8    1
    28     4    16    1
    29     4     3   ar
    30    11     8    1
    31    16    15   ar
    32     2     8    1
    33     2     3   ar
    34    24    22    1
    35    19    30    1
    36    19    20   ar
    37    30    33   ar
    38     8     9    1
    39     3    12    1
    40    31    42    1
    41    31    34   ar
    42    15    20   ar
    43    15    22    1
    44    42    40   ar
    45    43    48    1
    46    43    41   ar
    47    22    23    1
    48    22    25    1
    49    12    13    3
    50    41    40   ar
    51    41    44    1
    52    40    49    1
    53    33    34   ar
    54    33    35    1
    55    34    39    1
    56    13    14    1
    57    51    49    1
    58    49    50    1
    59    49    52    1
    60    39    38    3
