@<TRIPOS>MOLECULE
mol_data/opt/m06hf/geoms/mol2/13ie13ha6de12dh4ie-4fa12hi13he.out
 97 104 0 0 0
SMALL
GASTEIGER

@<TRIPOS>ATOM
      1 C           0.3819    1.1806   -1.4146 C.ar    1  LIG1        0.0063
      2 C          -0.2756    2.3795   -1.3345 C.ar    1  LIG1       -0.0171
      3 C          -1.5257    2.1099   -0.6882 C.ar    1  LIG1        0.0543
      4 C          -1.5675    0.7574   -0.3936 C.ar    1  LIG1        0.0805
      5 N          -0.4030    0.2118   -0.8470 N.ar    1  LIG1       -0.3582
      6 H          -0.1333   -0.7496   -0.6936 H       1  LIG1        0.1654
      7 H           1.3481    0.9462   -1.8278 H       1  LIG1        0.0810
      8 C           0.1855    3.7248   -1.8305 C.3     1  LIG1       -0.0371
      9 H           0.2295    4.4365   -1.0051 H       1  LIG1        0.0278
     10 H          -0.5088    4.1122   -2.5774 H       1  LIG1        0.0278
     11 H           1.1752    3.6427   -2.2783 H       1  LIG1        0.0278
     12 C          -2.5662    3.0568   -0.4273 C.1     1  LIG1       -0.0672
     13 C          -3.4358    3.8595   -0.2028 C.1     1  LIG1       -0.1138
     14 H          -4.2080    4.5724   -0.0294 H       1  LIG1        0.1232
     15 C          -2.5810   -0.0651    0.2539 C.ar    1  LIG1        0.0854
     16 C          -3.3696    0.1494    1.3767 C.ar    1  LIG1        0.0523
     17 C          -4.0881   -1.0512    1.6042 C.ar    1  LIG1       -0.0149
     18 C          -3.7156   -1.9594    0.6247 C.ar    1  LIG1        0.0515
     19 N          -2.8063   -1.3444   -0.1792 N.ar    1  LIG1       -0.3514
     20 H          -2.4410   -1.7119   -1.0449 H       1  LIG1        0.1660
     21 N          -3.3602    1.2817    2.1957 N.pl3   1  LIG1       -0.3563
     22 H          -3.1879    2.1417    1.6865 H       1  LIG1        0.1424
     23 H          -4.1971    1.3609    2.7577 H       1  LIG1        0.1424
     24 H          -4.7490   -1.2460    2.4335 H       1  LIG1        0.0657
     25 C          -3.3968   -4.3441   -0.1884 C.ar    1  LIG1        0.1500
     26 C          -4.1571   -3.3426    0.4407 C.ar    1  LIG1        0.0354
     27 C          -5.3970   -3.7554    0.9361 C.ar    1  LIG1       -0.0323
     28 C          -5.8155   -5.0743    0.7997 C.ar    1  LIG1        0.0544
     29 C          -4.9752   -5.9700    0.1062 C.ar    1  LIG1        0.1241
     30 N          -3.7928   -5.5971   -0.3612 N.ar    1  LIG1       -0.2313
     31 H          -6.0449   -3.0434    1.4282 H       1  LIG1        0.0638
     32 N          -1.0389   -3.7523   -1.1309 N.1     1  LIG1       -0.1893
     33 C          -2.0687   -4.0414   -0.7145 C.1     1  LIG1        0.1198
     34 C          -7.0625   -5.4887    1.3830 C.1     1  LIG1       -0.0674
     35 C          -8.1057   -5.8121    1.8824 C.1     1  LIG1       -0.1138
     36 H          -9.0383   -6.1145    2.3011 H       1  LIG1        0.1232
     37 C          -5.3302   -7.3832   -0.1334 C.ar    1  LIG1        0.1742
     38 C          -6.4821   -8.0214   -0.5106 C.ar    1  LIG1        0.1202
     39 C          -6.1515   -9.4160   -0.6495 C.ar    1  LIG1        0.0893
     40 C          -4.8297   -9.5127   -0.3252 C.ar    1  LIG1        0.1579
     41 O          -4.3449   -8.2735   -0.0347 O.2     1  LIG1       -0.4500
     42 N          -8.8073   -7.1191   -1.1584 N.1     1  LIG1       -0.1907
     43 C          -7.7597   -7.4724   -0.8477 C.1     1  LIG1        0.1049
     44 N          -7.0289  -10.4251   -1.0390 N.pl3   1  LIG1       -0.3540
     45 H          -7.8591  -10.0742   -1.5017 H       1  LIG1        0.1425
     46 H          -6.5780  -11.1514   -1.5840 H       1  LIG1        0.1425
     47 C          -4.1870  -11.8341    0.3680 C.ar    1  LIG1       -0.0391
     48 C          -3.2812  -12.8881    0.2750 C.ar    1  LIG1       -0.0492
     49 C          -3.8929  -10.6499   -0.3298 C.ar    1  LIG1        0.0232
     50 C          -2.0934  -12.7959   -0.4527 C.ar    1  LIG1        0.0013
     51 H          -3.4901  -13.8139    0.7958 H       1  LIG1        0.0627
     52 C          -2.7072  -10.5307   -1.0511 C.ar    1  LIG1       -0.0348
     53 C          -1.8034  -11.5921   -1.1191 C.ar    1  LIG1        0.0332
     54 H          -2.4873   -9.6103   -1.5764 H       1  LIG1        0.0637
     55 C          -5.4119  -11.9492    1.2562 C.3     1  LIG1       -0.0390
     56 H          -5.4045  -12.9096    1.7694 H       1  LIG1        0.0278
     57 H          -6.3358  -11.8526    0.6824 H       1  LIG1        0.0278
     58 H          -5.3987  -11.1502    2.0002 H       1  LIG1        0.0278
     59 C          -0.6071  -11.4255   -1.9139 C.1     1  LIG1       -0.0690
     60 C           0.3716  -11.2489   -2.5885 C.1     1  LIG1       -0.1139
     61 H           1.2412  -11.1004   -3.1855 H       1  LIG1        0.1232
     62 C          -1.5880  -15.2374   -0.7907 C.ar    1  LIG1        0.1252
     63 C          -0.7050  -16.3122   -0.7963 C.ar    1  LIG1       -0.0089
     64 C          -1.1455  -13.9463   -0.4735 C.ar    1  LIG1        0.0248
     65 C           0.6423  -16.1147   -0.4807 C.ar    1  LIG1        0.0226
     66 H          -1.0627  -17.3142   -1.0119 H       1  LIG1        0.0661
     67 C           0.2016  -13.7737   -0.1468 C.ar    1  LIG1       -0.0498
     68 C           1.0947  -14.8360   -0.1445 C.ar    1  LIG1       -0.0502
     69 H           0.5456  -12.7799    0.1094 H       1  LIG1        0.0625
     70 O          -2.9072  -15.4068   -1.0880 O.3     1  LIG1       -0.5061
     71 H          -3.0873  -16.3350   -1.2713 H       1  LIG1        0.2922
     72 H           2.1343  -14.6852    0.1107 H       1  LIG1        0.0625
     73 C           1.5564  -17.2569   -0.4875 C.ar    1  LIG1        0.1566
     74 C           1.5149  -18.4665   -1.1162 C.ar    1  LIG1        0.0746
     75 C           2.6882  -19.1976   -0.7030 C.ar    1  LIG1        0.0181
     76 C           3.3641  -18.3475    0.1197 C.ar    1  LIG1        0.1583
     77 O           2.6992  -17.1754    0.2508 O.2     1  LIG1       -0.4511
     78 N           0.5114  -18.9451   -1.9767 N.pl3   1  LIG1       -0.3548
     79 H           0.2315  -18.2512   -2.6627 H       1  LIG1        0.1424
     80 H           0.7903  -19.7988   -2.4444 H       1  LIG1        0.1424
     81 C           3.0187  -20.6230   -1.0622 C.3     1  LIG1       -0.0343
     82 H           3.9489  -20.9258   -0.5825 H       1  LIG1        0.0279
     83 H           3.1412  -20.7313   -2.1437 H       1  LIG1        0.0279
     84 H           2.2119  -21.2832   -0.7380 H       1  LIG1        0.0279
     85 C           4.6039  -18.4663    0.8723 C.ar    1  LIG1        0.1046
     86 C           5.7930  -19.1023    0.5870 C.ar    1  LIG1        0.0688
     87 C           6.6652  -18.8688    1.6961 C.ar    1  LIG1        0.0633
     88 C           5.9743  -18.0867    2.6033 C.ar    1  LIG1        0.0195
     89 N           4.7476  -17.8492    2.0969 N.ar    1  LIG1       -0.3556
     90 H           4.0219  -17.2954    2.5243 H       1  LIG1        0.1655
     91 H           6.2912  -17.6963    3.5540 H       1  LIG1        0.0820
     92 N           6.1106  -19.8551   -0.5529 N.pl3   1  LIG1       -0.3553
     93 H           5.7886  -19.4137   -1.4078 H       1  LIG1        0.1424
     94 H           7.1063  -20.0420   -0.5999 H       1  LIG1        0.1424
     95 C           8.0099  -19.3473    1.7932 C.1     1  LIG1       -0.0663
     96 C           9.1375  -19.7647    1.8295 C.1     1  LIG1       -0.1138
     97 H          10.1357  -20.1330    1.8767 H       1  LIG1        0.1232
@<TRIPOS>BOND
     1    61    60    1
     2    79    78    1
     3    60    59    3
     4    10     8    1
     5    80    78    1
     6    11     8    1
     7    83    81    1
     8    78    74    1
     9    59    53    1
    10     8     2    1
    11     8     9    1
    12     7     1    1
    13    46    44    1
    14    54    52    1
    15    45    44    1
    16     1     2   ar
    17     1     5   ar
    18    93    92    1
    19     2     3   ar
    20    71    70    1
    21    42    43    3
    22    32    33    3
    23    53    52   ar
    24    53    50   ar
    25    74    75   ar
    26    74    73   ar
    27    70    62    1
    28    81    84    1
    29    81    75    1
    30    81    82    1
    31    52    49   ar
    32    20    19    1
    33    44    39    1
    34    66    63    1
    35    43    38    1
    36     5     6    1
    37     5     4   ar
    38    63    62   ar
    39    63    65   ar
    40    62    64   ar
    41    33    25    1
    42    75    76   ar
    43     3    12    1
    44     3     4   ar
    45    39    38   ar
    46    39    40   ar
    47    94    92    1
    48    92    86    1
    49    38    37   ar
    50    73    65    1
    51    73    77   ar
    52    65    68   ar
    53    64    50    1
    54    64    67   ar
    55    50    48   ar
    56    12    13    3
    57     4    15    1
    58    30    25   ar
    59    30    29   ar
    60    49    40    1
    61    49    47   ar
    62    40    41   ar
    63    13    14    1
    64    25    26   ar
    65    19    15   ar
    66    19    18   ar
    67    67    68   ar
    68    67    69    1
    69    68    72    1
    70    37    41   ar
    71    37    29    1
    72    29    28   ar
    73    76    77   ar
    74    76    85    1
    75    15    16   ar
    76    48    47   ar
    77    48    51    1
    78    47    55    1
    79    26    18    1
    80    26    27   ar
    81    86    85   ar
    82    86    87   ar
    83    18    17   ar
    84    57    55    1
    85    28    27   ar
    86    28    34    1
    87    85    89   ar
    88    27    31    1
    89    55    56    1
    90    55    58    1
    91    16    17   ar
    92    16    21    1
    93    34    35    3
    94    17    24    1
    95    22    21    1
    96    87    95    1
    97    87    88   ar
    98    95    96    3
    99    96    97    1
   100    35    36    1
   101    89    90    1
   102    89    88   ar
   103    21    23    1
   104    88    91    1
