@<TRIPOS>MOLECULE
mol_data/opt/m06hf/geoms/mol2/13ie13ie13ie-13ie-.out
 54 57 0 0 0
SMALL
GASTEIGER

@<TRIPOS>ATOM
      1 C           1.1158    0.0563    1.0511 C.ar    1  LIG1        0.0063
      2 C           0.8356    1.1349    0.2545 C.ar    1  LIG1       -0.0171
      3 C          -0.5372    1.0027   -0.1357 C.ar    1  LIG1        0.0542
      4 C          -1.0337   -0.1487    0.4489 C.ar    1  LIG1        0.0790
      5 N          -0.0131   -0.7123    1.1586 N.ar    1  LIG1       -0.3583
      6 H          -0.1234   -1.5116    1.7627 H       1  LIG1        0.1654
      7 H           2.0305   -0.2200    1.5473 H       1  LIG1        0.0810
      8 C           1.7632    2.2450   -0.1644 C.3     1  LIG1       -0.0371
      9 H           1.3699    3.2085    0.1618 H       1  LIG1        0.0278
     10 H           1.8589    2.2680   -1.2508 H       1  LIG1        0.0278
     11 H           2.7503    2.0993    0.2738 H       1  LIG1        0.0278
     12 C          -1.2555    1.8821   -1.0087 C.1     1  LIG1       -0.0672
     13 C          -1.8398    2.6344   -1.7432 C.1     1  LIG1       -0.1138
     14 H          -2.3585    3.2961   -2.3971 H       1  LIG1        0.1232
     15 C          -2.3633   -0.7534    0.3892 C.ar    1  LIG1        0.0687
     16 C          -3.6055   -0.2010    0.5907 C.ar    1  LIG1       -0.0077
     17 C          -4.5459   -1.2666    0.4254 C.ar    1  LIG1        0.0549
     18 C          -3.8394   -2.4278    0.1349 C.ar    1  LIG1        0.0795
     19 N          -2.5220   -2.0956    0.1231 N.ar    1  LIG1       -0.3506
     20 H          -1.7778   -2.7091   -0.1698 H       1  LIG1        0.1660
     21 C          -3.9323    1.2255    0.9391 C.3     1  LIG1       -0.0365
     22 H          -4.7113    1.2501    1.7017 H       1  LIG1        0.0279
     23 H          -4.2860    1.7591    0.0558 H       1  LIG1        0.0279
     24 H          -3.0407    1.7308    1.3090 H       1  LIG1        0.0279
     25 C          -5.9668   -1.1534    0.5635 C.1     1  LIG1       -0.0672
     26 C          -7.1614   -1.0510    0.6883 C.1     1  LIG1       -0.1138
     27 H          -8.2130   -0.9328    0.8124 H       1  LIG1        0.1232
     28 C          -4.3114   -3.7806   -0.1281 C.ar    1  LIG1        0.0687
     29 C          -3.6275   -4.9457   -0.4211 C.ar    1  LIG1       -0.0077
     30 C          -4.6180   -5.9615   -0.5830 C.ar    1  LIG1        0.0549
     31 C          -5.8605   -5.3817   -0.3735 C.ar    1  LIG1        0.0795
     32 N          -5.6502   -4.0671   -0.1052 N.ar    1  LIG1       -0.3506
     33 H          -6.3620   -3.4026    0.1738 H       1  LIG1        0.1660
     34 C          -2.1417   -5.1538   -0.5714 C.3     1  LIG1       -0.0365
     35 H          -1.6109   -4.8976    0.3495 H       1  LIG1        0.0279
     36 H          -1.7394   -4.5646   -1.4004 H       1  LIG1        0.0279
     37 H          -1.9536   -6.2051   -0.7870 H       1  LIG1        0.0279
     38 C          -4.3756   -7.3258   -0.9450 C.1     1  LIG1       -0.0672
     39 C          -4.1508   -8.4675   -1.2505 C.1     1  LIG1       -0.1138
     40 H          -3.9630   -9.4791   -1.5265 H       1  LIG1        0.1232
     41 C          -7.2053   -5.9516   -0.4310 C.ar    1  LIG1        0.0682
     42 C          -7.7222   -7.0946    0.1330 C.ar    1  LIG1       -0.0084
     43 C          -9.1025   -7.1379   -0.2484 C.ar    1  LIG1        0.0455
     44 C          -9.3638   -6.0240   -1.0185 C.ar    1  LIG1        0.0179
     45 N          -8.2140   -5.3128   -1.1177 N.ar    1  LIG1       -0.3581
     46 H          -8.0785   -4.4917   -1.6863 H       1  LIG1        0.1654
     47 H         -10.2777   -5.7076   -1.4894 H       1  LIG1        0.0819
     48 C          -7.0122   -8.0939    1.0059 C.3     1  LIG1       -0.0365
     49 H          -6.0904   -7.6628    1.3956 H       1  LIG1        0.0279
     50 H          -6.7581   -8.9866    0.4328 H       1  LIG1        0.0279
     51 H          -7.6614   -8.3819    1.8330 H       1  LIG1        0.0279
     52 C         -10.0468   -8.1481    0.1316 C.1     1  LIG1       -0.0679
     53 C         -10.8222   -9.0031    0.4691 C.1     1  LIG1       -0.1139
     54 H         -11.5105   -9.7585    0.7689 H       1  LIG1        0.1232
@<TRIPOS>BOND
     1    14    13    1
     2    13    12    3
     3    46    45    1
     4    40    39    1
     5    47    44    1
     6    36    34    1
     7    10     8    1
     8    39    38    3
     9    45    44   ar
    10    45    41   ar
    11    44    43   ar
    12    12     3    1
    13    38    30    1
    14    37    34    1
    15    30    29   ar
    16    30    31   ar
    17    34    29    1
    18    34    35    1
    19    41    31    1
    20    41    42   ar
    21    29    28   ar
    22    31    32   ar
    23    43    52    1
    24    43    42   ar
    25    20    19    1
    26     8     9    1
    27     8     2    1
    28     8    11    1
    29     3     2   ar
    30     3     4   ar
    31    28    32   ar
    32    28    18    1
    33    32    33    1
    34    23    21    1
    35    19    18   ar
    36    19    15   ar
    37    52    53    3
    38    42    48    1
    39    18    17   ar
    40     2     1   ar
    41    15     4    1
    42    15    16   ar
    43    17    25    1
    44    17    16   ar
    45    50    48    1
    46     4     5   ar
    47    53    54    1
    48    25    26    3
    49    16    21    1
    50    26    27    1
    51    21    24    1
    52    21    22    1
    53    48    49    1
    54    48    51    1
    55     1     5   ar
    56     1     7    1
    57     5     6    1
