@<TRIPOS>MOLECULE
mol_data/opt/m06hf/geoms/mol2/13ie13ie13ie13ie.out
 54 57 0 0 0
SMALL
GASTEIGER

@<TRIPOS>ATOM
      1 C           0.3747    0.3758    2.3544 C.ar    1  LIG1        0.0063
      2 C           0.6653    1.0491    1.1969 C.ar    1  LIG1       -0.0171
      3 C          -0.3991    0.7571    0.2827 C.ar    1  LIG1        0.0542
      4 C          -1.2936   -0.0773    0.9277 C.ar    1  LIG1        0.0790
      5 N          -0.8026   -0.3032    2.1809 N.ar    1  LIG1       -0.3583
      6 H          -1.3076   -0.7934    2.9023 H       1  LIG1        0.1654
      7 H           0.9138    0.3324    3.2852 H       1  LIG1        0.0810
      8 C           1.8624    1.9145    0.9028 C.3     1  LIG1       -0.0371
      9 H           1.5413    2.9155    0.6125 H       1  LIG1        0.0278
     10 H           2.4413    1.4923    0.0802 H       1  LIG1        0.0278
     11 H           2.5009    1.9894    1.7826 H       1  LIG1        0.0278
     12 C          -0.5034    1.2172   -1.0699 C.1     1  LIG1       -0.0672
     13 C          -0.5716    1.6153   -2.2028 C.1     1  LIG1       -0.1138
     14 H          -0.6342    1.9651   -3.2069 H       1  LIG1        0.1232
     15 C          -2.5460   -0.6715    0.4582 C.ar    1  LIG1        0.0687
     16 C          -3.6483   -0.0840   -0.1192 C.ar    1  LIG1       -0.0077
     17 C          -4.5814   -1.1393   -0.3676 C.ar    1  LIG1        0.0549
     18 C          -4.0163   -2.3243    0.0740 C.ar    1  LIG1        0.0795
     19 N          -2.7842   -2.0214    0.5692 N.ar    1  LIG1       -0.3506
     20 H          -2.1394   -2.6903    0.9606 H       1  LIG1        0.1660
     21 C          -3.8530    1.3735   -0.4314 C.3     1  LIG1       -0.0365
     22 H          -4.8677    1.6670   -0.1613 H       1  LIG1        0.0279
     23 H          -3.7077    1.5554   -1.4973 H       1  LIG1        0.0279
     24 H          -3.1347    1.9789    0.1207 H       1  LIG1        0.0279
     25 C          -5.8695   -1.0059   -0.9798 C.1     1  LIG1       -0.0672
     26 C          -6.9488   -0.8754   -1.4937 C.1     1  LIG1       -0.1138
     27 H          -7.9028   -0.7640   -1.9531 H       1  LIG1        0.1232
     28 C          -4.5406   -3.6903    0.0449 C.ar    1  LIG1        0.0687
     29 C          -5.7295   -4.1944    0.5201 C.ar    1  LIG1       -0.0077
     30 C          -5.7204   -5.5930    0.2207 C.ar    1  LIG1        0.0549
     31 C          -4.5265   -5.8876   -0.4170 C.ar    1  LIG1        0.0795
     32 N          -3.8259   -4.7239   -0.5140 N.ar    1  LIG1       -0.3506
     33 H          -2.9166   -4.6363   -0.9409 H       1  LIG1        0.1660
     34 C          -6.8324   -3.4425    1.2141 C.3     1  LIG1       -0.0365
     35 H          -7.1961   -4.0230    2.0624 H       1  LIG1        0.0279
     36 H          -7.6615   -3.2700    0.5266 H       1  LIG1        0.0279
     37 H          -6.4663   -2.4761    1.5597 H       1  LIG1        0.0279
     38 C          -6.7677   -6.5279    0.5053 C.1     1  LIG1       -0.0672
     39 C          -7.6541   -7.3023    0.7520 C.1     1  LIG1       -0.1138
     40 H          -8.4376   -7.9923    0.9618 H       1  LIG1        0.1232
     41 C          -4.0199   -7.1519   -0.9516 C.ar    1  LIG1        0.0682
     42 C          -3.8996   -8.3858   -0.3580 C.ar    1  LIG1       -0.0084
     43 C          -3.3422   -9.2546   -1.3514 C.ar    1  LIG1        0.0455
     44 C          -3.1469   -8.5144   -2.4983 C.ar    1  LIG1        0.0179
     45 N          -3.5527   -7.2456   -2.2445 N.ar    1  LIG1       -0.3581
     46 H          -3.6280   -6.5088   -2.9280 H       1  LIG1        0.1654
     47 H          -2.7577   -8.8122   -3.4559 H       1  LIG1        0.0819
     48 C          -4.2573   -8.7668    1.0531 C.3     1  LIG1       -0.0365
     49 H          -3.4806   -9.4096    1.4680 H       1  LIG1        0.0279
     50 H          -5.2047   -9.3072    1.0693 H       1  LIG1        0.0279
     51 H          -4.3620   -7.8728    1.6673 H       1  LIG1        0.0279
     52 C          -3.0328  -10.6437   -1.1750 C.1     1  LIG1       -0.0679
     53 C          -2.7818  -11.8078   -1.0068 C.1     1  LIG1       -0.1139
     54 H          -2.5662  -12.8408   -0.8627 H       1  LIG1        0.1232
@<TRIPOS>BOND
     1    47    44    1
     2    14    13    1
     3    46    45    1
     4    44    45   ar
     5    44    43   ar
     6    45    41   ar
     7    13    12    3
     8    27    26    1
     9    23    21    1
    10    26    25    3
    11    43    52    1
    12    43    42   ar
    13    52    53    3
    14    12     3    1
    15    53    54    1
    16    25    17    1
    17    41    31    1
    18    41    42   ar
    19    33    32    1
    20    32    31   ar
    21    32    28   ar
    22    21    22    1
    23    21    16    1
    24    21    24    1
    25    31    30   ar
    26    17    16   ar
    27    17    18   ar
    28    42    48    1
    29    16    15   ar
    30    28    18    1
    31    28    29   ar
    32    18    19   ar
    33    10     8    1
    34    30    38    1
    35    30    29   ar
    36     3     4   ar
    37     3     2   ar
    38    15    19   ar
    39    15     4    1
    40    38    39    3
    41    29    34    1
    42    36    34    1
    43    19    20    1
    44     9     8    1
    45    39    40    1
    46     8     2    1
    47     8    11    1
    48     4     5   ar
    49    48    50    1
    50    48    49    1
    51    48    51    1
    52     2     1   ar
    53    34    37    1
    54    34    35    1
    55     5     1   ar
    56     5     6    1
    57     1     7    1
