@<TRIPOS>MOLECULE
mol_data/opt/m06hf/geoms/mol2/13if13if13if-13if.out
 50 53 0 0 0
SMALL
GASTEIGER

@<TRIPOS>ATOM
      1 C           1.2070    0.2411    0.7006 C.ar    1  LIG1        0.0087
      2 C           0.8265    1.1189   -0.2881 C.ar    1  LIG1        0.0090
      3 C          -0.5410    0.8325   -0.5505 C.ar    1  LIG1        0.1463
      4 C          -0.9489   -0.1896    0.2747 C.ar    1  LIG1        0.1055
      5 N           0.1461   -0.5483    1.0302 N.ar    1  LIG1       -0.3563
      6 H           0.1163   -1.2065    1.7911 H       1  LIG1        0.1655
      7 H           2.1608    0.1291    1.1882 H       1  LIG1        0.0811
      8 C           1.6546    2.1636   -0.9900 C.3     1  LIG1       -0.0348
      9 H           1.2265    3.1550   -0.8382 H       1  LIG1        0.0279
     10 H           1.6820    1.9675   -2.0627 H       1  LIG1        0.0279
     11 H           2.6744    2.1583   -0.6053 H       1  LIG1        0.0279
     12 O          -1.2894    1.4832   -1.4860 O.3     1  LIG1       -0.5043
     13 H          -2.1225    1.0070   -1.5996 H       1  LIG1        0.2922
     14 C          -2.2599   -0.8291    0.3521 C.ar    1  LIG1        0.0735
     15 C          -3.5101   -0.2558    0.4972 C.ar    1  LIG1        0.0185
     16 C          -4.4345   -1.3334    0.4579 C.ar    1  LIG1        0.1470
     17 C          -3.7453   -2.5165    0.3009 C.ar    1  LIG1        0.1060
     18 N          -2.4194   -2.1864    0.2326 N.ar    1  LIG1       -0.3486
     19 H          -1.6777   -2.8206   -0.0170 H       1  LIG1        0.1661
     20 C          -3.8404    1.2004    0.7107 C.3     1  LIG1       -0.0342
     21 H          -4.3120    1.3517    1.6847 H       1  LIG1        0.0279
     22 H          -4.5288    1.5551   -0.0587 H       1  LIG1        0.0279
     23 H          -2.9292    1.7973    0.6747 H       1  LIG1        0.0279
     24 O          -5.8098   -1.2509    0.5230 O.3     1  LIG1       -0.5043
     25 H          -6.0670   -0.7534    1.3077 H       1  LIG1        0.2922
     26 C          -4.2701   -3.8688    0.1942 C.ar    1  LIG1        0.0735
     27 C          -3.6509   -5.1075    0.1744 C.ar    1  LIG1        0.0185
     28 C          -4.7021   -6.0508    0.0492 C.ar    1  LIG1        0.1470
     29 C          -5.9097   -5.3835    0.0067 C.ar    1  LIG1        0.1060
     30 N          -5.6195   -4.0557    0.0967 N.ar    1  LIG1       -0.3486
     31 H          -6.2802   -3.2902    0.1341 H       1  LIG1        0.1661
     32 C          -2.1851   -5.4416    0.2929 C.3     1  LIG1       -0.0342
     33 H          -1.7280   -4.8998    1.1239 H       1  LIG1        0.0279
     34 H          -1.6370   -5.2148   -0.6259 H       1  LIG1        0.0279
     35 H          -2.0847   -6.5088    0.4929 H       1  LIG1        0.0279
     36 O          -4.5703   -7.4279    0.0245 O.3     1  LIG1       -0.5043
     37 H          -4.2591   -7.6973   -0.8481 H       1  LIG1        0.2922
     38 C          -7.2587   -5.9212   -0.0907 C.ar    1  LIG1        0.0730
     39 C          -8.4706   -5.3033   -0.3406 C.ar    1  LIG1        0.0178
     40 C          -9.4397   -6.3407   -0.3119 C.ar    1  LIG1        0.1376
     41 C          -8.8077   -7.5347   -0.0541 C.ar    1  LIG1        0.0445
     42 N          -7.4733   -7.2557    0.0748 N.ar    1  LIG1       -0.3561
     43 H          -6.7243   -7.9030    0.2749 H       1  LIG1        0.1655
     44 H          -9.1962   -8.5328    0.0463 H       1  LIG1        0.0844
     45 C          -8.7558   -3.8479   -0.6146 C.3     1  LIG1       -0.0342
     46 H          -9.7760   -3.7560   -0.9858 H       1  LIG1        0.0279
     47 H          -8.0750   -3.4488   -1.3698 H       1  LIG1        0.0279
     48 H          -8.6714   -3.2418    0.2917 H       1  LIG1        0.0279
     49 O         -10.7715   -6.0979   -0.5191 O.3     1  LIG1       -0.5050
     50 H         -11.2410   -6.9282   -0.6442 H       1  LIG1        0.2922
@<TRIPOS>BOND
     1    10     8    1
     2    13    12    1
     3    12     3    1
     4    47    45    1
     5     8     9    1
     6     8    11    1
     7     8     2    1
     8    46    45    1
     9    37    36    1
    10    50    49    1
    11    34    32    1
    12    45    39    1
    13    45    48    1
    14     3     2   ar
    15     3     4   ar
    16    49    40    1
    17    39    40   ar
    18    39    38   ar
    19    40    41   ar
    20     2     1   ar
    21    38    29    1
    22    38    42   ar
    23    22    20    1
    24    41    44    1
    25    41    42   ar
    26    19    18    1
    27    29    28   ar
    28    29    30   ar
    29    36    28    1
    30    28    27   ar
    31    42    43    1
    32    30    31    1
    33    30    26   ar
    34    27    26   ar
    35    27    32    1
    36    26    17    1
    37    18    17   ar
    38    18    14   ar
    39     4    14    1
    40     4     5   ar
    41    32    35    1
    42    32    33    1
    43    17    16   ar
    44    14    15   ar
    45    16    15   ar
    46    16    24    1
    47    15    20    1
    48    24    25    1
    49    23    20    1
    50     1     5   ar
    51     1     7    1
    52    20    21    1
    53     5     6    1
