@<TRIPOS>MOLECULE
mol_data/opt/m06hf/geoms/mol2/13if13df-6he13ei.out
 52 55 0 0 0
SMALL
GASTEIGER

@<TRIPOS>ATOM
      1 C           1.0148    0.1531   -0.9755 C.ar    1  LIG1        0.0052
      2 C           0.6486    1.3774   -0.4681 C.ar    1  LIG1       -0.0325
      3 C          -0.6878    1.2398    0.0093 C.ar    1  LIG1       -0.0304
      4 C          -1.0778   -0.0608   -0.2348 C.ar    1  LIG1        0.0843
      5 N          -0.0357   -0.7086   -0.8345 N.ar    1  LIG1       -0.3580
      6 H          -0.0415   -1.6885   -1.0721 H       1  LIG1        0.1654
      7 H           1.9425   -0.1639   -1.4211 H       1  LIG1        0.0809
      8 C           1.5018    2.6213   -0.4175 C.3     1  LIG1       -0.0383
      9 H           1.6330    2.9546    0.6128 H       1  LIG1        0.0278
     10 H           1.0382    3.4305   -0.9834 H       1  LIG1        0.0278
     11 H           2.4852    2.4227   -0.8438 H       1  LIG1        0.0278
     12 H          -1.2759    1.9899    0.5124 H       1  LIG1        0.0642
     13 C          -2.3234   -0.7506    0.0353 C.ar    1  LIG1        0.1736
     14 C          -3.5514   -0.3273    0.4400 C.ar    1  LIG1        0.0907
     15 C          -4.3517   -1.5250    0.5341 C.ar    1  LIG1        0.1188
     16 C          -3.5553   -2.5807    0.1755 C.ar    1  LIG1        0.1582
     17 O          -2.3377   -2.1059   -0.1356 O.2     1  LIG1       -0.4500
     18 N          -3.9607    0.9732    0.7197 N.pl3   1  LIG1       -0.3540
     19 H          -3.6129    1.6509    0.0513 H       1  LIG1        0.1425
     20 H          -4.9613    1.0583    0.8491 H       1  LIG1        0.1425
     21 N          -6.8466   -1.5427    1.1851 N.1     1  LIG1       -0.1907
     22 C          -5.7363   -1.5600    0.8905 C.1     1  LIG1        0.1049
     23 C          -3.1283   -4.8459   -0.8430 C.ar    1  LIG1        0.1276
     24 C          -3.7953   -4.0219    0.0952 C.ar    1  LIG1        0.0584
     25 C          -4.7248   -4.6241    0.9375 C.ar    1  LIG1       -0.0428
     26 C          -4.9823   -5.9902    0.8734 C.ar    1  LIG1       -0.0237
     27 C          -4.2469   -6.7111   -0.0759 C.ar    1  LIG1        0.0763
     28 N          -3.3696   -6.1523   -0.9077 N.ar    1  LIG1       -0.2314
     29 H          -5.2563   -4.0141    1.6594 H       1  LIG1        0.0629
     30 N          -2.1918   -4.3658   -1.7230 N.pl3   1  LIG1       -0.3426
     31 H          -1.9631   -5.0067   -2.4678 H       1  LIG1        0.1437
     32 H          -2.1913   -3.3819   -1.9377 H       1  LIG1        0.1437
     33 C          -6.0158   -6.6404    1.7747 C.3     1  LIG1       -0.0377
     34 H          -5.5438   -7.1120    2.6381 H       1  LIG1        0.0278
     35 H          -6.5671   -7.4069    1.2297 H       1  LIG1        0.0278
     36 H          -6.7160   -5.8857    2.1320 H       1  LIG1        0.0278
     37 C          -5.0034   -8.7218   -1.3882 C.ar    1  LIG1       -0.0412
     38 C          -5.1620  -10.1049   -1.4789 C.ar    1  LIG1       -0.0571
     39 C          -4.4329   -8.1925   -0.2217 C.ar    1  LIG1        0.0047
     40 C          -4.7652  -10.9489   -0.4479 C.ar    1  LIG1       -0.0460
     41 H          -5.6058  -10.5278   -2.3716 H       1  LIG1        0.0621
     42 C          -4.0359   -9.0289    0.8165 C.ar    1  LIG1       -0.0369
     43 C          -4.1970  -10.4131    0.7091 C.ar    1  LIG1        0.0253
     44 H          -3.5891   -8.6113    1.7098 H       1  LIG1        0.0636
     45 H          -4.8927  -12.0198   -0.5302 H       1  LIG1        0.0630
     46 C          -5.4422   -7.8125   -2.5205 C.3     1  LIG1       -0.0391
     47 H          -5.9960   -8.3808   -3.2668 H       1  LIG1        0.0278
     48 H          -4.5694   -7.3540   -2.9860 H       1  LIG1        0.0278
     49 H          -6.0784   -7.0118   -2.1382 H       1  LIG1        0.0278
     50 C          -3.7811  -11.2769    1.7901 C.1     1  LIG1       -0.0696
     51 C          -3.4346  -11.9906    2.6930 C.1     1  LIG1       -0.1139
     52 H          -3.1245  -12.6200    3.4945 H       1  LIG1        0.1232
@<TRIPOS>BOND
     1    47    46    1
     2    48    46    1
     3    46    49    1
     4    46    37    1
     5    31    30    1
     6    41    38    1
     7    32    30    1
     8    30    23    1
     9    38    37   ar
    10    38    40   ar
    11     7     1    1
    12    37    39   ar
    13     6     5    1
    14    10     8    1
    15     1     5   ar
    16     1     2   ar
    17    28    23   ar
    18    28    27   ar
    19    11     8    1
    20    23    24   ar
    21     5     4   ar
    22    45    40    1
    23     2     8    1
    24     2     3   ar
    25    40    43   ar
    26     8     9    1
    27     4     3   ar
    28     4    13    1
    29    39    27    1
    30    39    42   ar
    31    17    13   ar
    32    17    16   ar
    33    27    26   ar
    34     3    12    1
    35    13    14   ar
    36    19    18    1
    37    24    16    1
    38    24    25   ar
    39    16    15   ar
    40    14    15   ar
    41    14    18    1
    42    15    22    1
    43    43    42   ar
    44    43    50    1
    45    18    20    1
    46    42    44    1
    47    26    25   ar
    48    26    33    1
    49    22    21    3
    50    25    29    1
    51    35    33    1
    52    33    36    1
    53    33    34    1
    54    50    51    3
    55    51    52    1
