@<TRIPOS>MOLECULE
mol_data/opt/m06hf/geoms/mol2/13if13if-4if13if.out
 52 55 0 0 0
SMALL
GASTEIGER

@<TRIPOS>ATOM
      1 C           1.3844   -0.5376   -0.4691 C.ar    1  LIG1        0.0087
      2 C           0.9890    0.7635   -0.6745 C.ar    1  LIG1        0.0090
      3 C          -0.4194    0.7682   -0.4844 C.ar    1  LIG1        0.1463
      4 C          -0.8368   -0.5071   -0.1759 C.ar    1  LIG1        0.1055
      5 N           0.2843   -1.2918   -0.1772 N.ar    1  LIG1       -0.3563
      6 H           0.2814   -2.2854   -0.0170 H       1  LIG1        0.1655
      7 H           2.3665   -0.9758   -0.5199 H       1  LIG1        0.0811
      8 C           1.8402    1.9540   -1.0361 C.3     1  LIG1       -0.0348
      9 H           1.8618    2.6870   -0.2260 H       1  LIG1        0.0279
     10 H           1.4488    2.4408   -1.9303 H       1  LIG1        0.0279
     11 H           2.8639    1.6370   -1.2321 H       1  LIG1        0.0279
     12 O          -1.2760    1.8416   -0.6323 O.3     1  LIG1       -0.5043
     13 H          -0.9761    2.5698   -0.0761 H       1  LIG1        0.2922
     14 C          -2.1858   -0.9864    0.0875 C.ar    1  LIG1        0.0735
     15 C          -2.6643   -2.1927    0.5756 C.ar    1  LIG1        0.0184
     16 C          -4.0722   -2.0524    0.6114 C.ar    1  LIG1        0.1455
     17 C          -4.4184   -0.7905    0.1630 C.ar    1  LIG1        0.0896
     18 N          -3.2409   -0.1606   -0.1429 N.ar    1  LIG1       -0.3498
     19 H          -3.1310    0.7659   -0.5312 H       1  LIG1        0.1661
     20 C          -1.8990   -3.4124    1.0216 C.3     1  LIG1       -0.0342
     21 H          -1.0945   -3.1423    1.7099 H       1  LIG1        0.0279
     22 H          -1.4779   -3.9585    0.1729 H       1  LIG1        0.0279
     23 H          -2.5850   -4.0812    1.5407 H       1  LIG1        0.0279
     24 O          -4.9209   -3.0387    1.0446 O.3     1  LIG1       -0.5044
     25 H          -5.6784   -2.6279    1.4791 H       1  LIG1        0.2922
     26 C          -6.0500    1.1408    0.3007 C.ar    1  LIG1       -0.0404
     27 C          -7.3606    1.5815    0.1312 C.ar    1  LIG1       -0.0456
     28 C          -5.7588   -0.2015    0.0118 C.ar    1  LIG1        0.0083
     29 C          -8.4083    0.7519   -0.2783 C.ar    1  LIG1        0.0403
     30 H          -7.5837    2.6231    0.3208 H       1  LIG1        0.0628
     31 C          -6.7853   -1.0440   -0.4340 C.ar    1  LIG1       -0.0100
     32 C          -8.0843   -0.5804   -0.5738 C.ar    1  LIG1        0.1266
     33 H          -6.5452   -2.0698   -0.6962 H       1  LIG1        0.0661
     34 C          -4.9933    2.1142    0.7965 C.3     1  LIG1       -0.0391
     35 H          -5.4749    2.9436    1.3136 H       1  LIG1        0.0278
     36 H          -4.4135    2.5304   -0.0326 H       1  LIG1        0.0278
     37 H          -4.3071    1.6190    1.4846 H       1  LIG1        0.0278
     38 O          -9.0795   -1.4072   -1.0298 O.3     1  LIG1       -0.5061
     39 H          -8.7380   -2.2977   -1.1632 H       1  LIG1        0.2922
     40 C          -9.7791    1.2824   -0.3891 C.ar    1  LIG1        0.0565
     41 C         -10.3704    2.3626    0.2530 C.ar    1  LIG1        0.0163
     42 C         -11.6941    2.4356   -0.2495 C.ar    1  LIG1        0.1375
     43 C         -11.8804    1.4219   -1.1597 C.ar    1  LIG1        0.0444
     44 N         -10.7053    0.7316   -1.2262 N.ar    1  LIG1       -0.3573
     45 H         -10.5352   -0.1176   -1.7414 H       1  LIG1        0.1655
     46 H         -12.7400    1.1460   -1.7450 H       1  LIG1        0.0844
     47 C          -9.8329    3.2810    1.3223 C.3     1  LIG1       -0.0342
     48 H         -10.6765    3.6851    1.8817 H       1  LIG1        0.0279
     49 H          -9.2797    4.1219    0.8968 H       1  LIG1        0.0279
     50 H          -9.1791    2.7392    2.0074 H       1  LIG1        0.0279
     51 O         -12.5819    3.3943    0.1638 O.3     1  LIG1       -0.5050
     52 H         -13.4781    3.1283   -0.0626 H       1  LIG1        0.2922
@<TRIPOS>BOND
     1    10     8    1
     2    46    43    1
     3    45    44    1
     4    11     8    1
     5    44    43   ar
     6    44    40   ar
     7    39    38    1
     8    43    42   ar
     9     8     2    1
    10     8     9    1
    11    38    32    1
    12    33    31    1
    13     2     3   ar
    14     2     1   ar
    15    12     3    1
    16    12    13    1
    17    32    31   ar
    18    32    29   ar
    19    19    18    1
    20     7     1    1
    21     3     4   ar
    22     1     5   ar
    23    31    28   ar
    24    40    29    1
    25    40    41   ar
    26    29    27   ar
    27    42    51    1
    28    42    41   ar
    29     5     4   ar
    30     5     6    1
    31     4    14    1
    32    18    14   ar
    33    18    17   ar
    34    52    51    1
    35    36    34    1
    36    28    17    1
    37    28    26   ar
    38    14    15   ar
    39    27    26   ar
    40    27    30    1
    41    17    16   ar
    42    22    20    1
    43    41    47    1
    44    26    34    1
    45    15    16   ar
    46    15    20    1
    47    16    24    1
    48    34    35    1
    49    34    37    1
    50    49    47    1
    51    20    23    1
    52    20    21    1
    53    24    25    1
    54    47    48    1
    55    47    50    1
