@<TRIPOS>MOLECULE
mol_data/opt/m06hf/geoms/mol2/13if13if13if-13if-.out
 50 53 0 0 0
SMALL
GASTEIGER

@<TRIPOS>ATOM
      1 C           1.2079    0.2450    0.7750 C.ar    1  LIG1        0.0087
      2 C           0.8072    1.1983   -0.1330 C.ar    1  LIG1        0.0090
      3 C          -0.5598    0.9195   -0.4042 C.ar    1  LIG1        0.1463
      4 C          -0.9475   -0.1727    0.3367 C.ar    1  LIG1        0.1055
      5 N           0.1589   -0.5808    1.0485 N.ar    1  LIG1       -0.3563
      6 H           0.1465   -1.3066    1.7456 H       1  LIG1        0.1655
      7 H           2.1686    0.1027    1.2405 H       1  LIG1        0.0811
      8 C           1.6176    2.3061   -0.7541 C.3     1  LIG1       -0.0348
      9 H           1.1773    3.2766   -0.5230 H       1  LIG1        0.0279
     10 H           1.6422    2.1952   -1.8390 H       1  LIG1        0.0279
     11 H           2.6393    2.2839   -0.3750 H       1  LIG1        0.0279
     12 O          -1.3272    1.6360   -1.2742 O.3     1  LIG1       -0.5043
     13 H          -2.1513    1.1548   -1.4252 H       1  LIG1        0.2922
     14 C          -2.2530   -0.8276    0.3702 C.ar    1  LIG1        0.0735
     15 C          -3.5048   -0.2760    0.5784 C.ar    1  LIG1        0.0185
     16 C          -4.4244   -1.3497    0.4450 C.ar    1  LIG1        0.1470
     17 C          -3.7317   -2.5085    0.1687 C.ar    1  LIG1        0.1060
     18 N          -2.4082   -2.1667    0.1223 N.ar    1  LIG1       -0.3486
     19 H          -1.6647   -2.7765   -0.1784 H       1  LIG1        0.1661
     20 C          -3.8393    1.1531    0.9272 C.3     1  LIG1       -0.0342
     21 H          -4.2792    1.2166    1.9254 H       1  LIG1        0.0279
     22 H          -4.5549    1.5644    0.2128 H       1  LIG1        0.0279
     23 H          -2.9345    1.7605    0.9121 H       1  LIG1        0.0279
     24 O          -5.7994   -1.2824    0.5320 O.3     1  LIG1       -0.5043
     25 H          -6.0488   -0.8341    1.3485 H       1  LIG1        0.2922
     26 C          -4.2461   -3.8494   -0.0649 C.ar    1  LIG1        0.0735
     27 C          -3.6014   -5.0659   -0.2301 C.ar    1  LIG1        0.0185
     28 C          -4.6341   -6.0191   -0.4133 C.ar    1  LIG1        0.1470
     29 C          -5.8538   -5.3795   -0.3481 C.ar    1  LIG1        0.1060
     30 N          -5.5907   -4.0484   -0.1441 N.ar    1  LIG1       -0.3486
     31 H          -6.2631   -3.3133    0.0312 H       1  LIG1        0.1661
     32 C          -2.1244   -5.3713   -0.2311 C.3     1  LIG1       -0.0342
     33 H          -1.6406   -4.9935    0.6732 H       1  LIG1        0.0279
     34 H          -1.6262   -4.9505   -1.1091 H       1  LIG1        0.0279
     35 H          -1.9929   -6.4523   -0.2609 H       1  LIG1        0.0279
     36 O          -4.4194   -7.3479   -0.6339 O.3     1  LIG1       -0.5043
     37 H          -5.2564   -7.7459   -0.9062 H       1  LIG1        0.2922
     38 C          -7.1855   -5.9547   -0.5089 C.ar    1  LIG1        0.0730
     39 C          -7.7330   -7.0765    0.0874 C.ar    1  LIG1        0.0178
     40 C          -9.0434   -7.2081   -0.4589 C.ar    1  LIG1        0.1376
     41 C          -9.2559   -6.1844   -1.3448 C.ar    1  LIG1        0.0445
     42 N          -8.1153   -5.4260   -1.3601 N.ar    1  LIG1       -0.3561
     43 H          -7.9365   -4.6468   -1.9725 H       1  LIG1        0.1655
     44 H         -10.1210   -5.9467   -1.9367 H       1  LIG1        0.0844
     45 C          -7.1214   -7.9341    1.1681 C.3     1  LIG1       -0.0342
     46 H          -6.2397   -7.4383    1.5746 H       1  LIG1        0.0279
     47 H          -6.8176   -8.9161    0.7945 H       1  LIG1        0.0279
     48 H          -7.8437   -8.0844    1.9728 H       1  LIG1        0.0279
     49 O          -9.9781   -8.1490   -0.1152 O.3     1  LIG1       -0.5050
     50 H          -9.5353   -8.9867    0.0557 H       1  LIG1        0.2922
@<TRIPOS>BOND
     1    43    42    1
     2    44    41    1
     3    10     8    1
     4    13    12    1
     5    42    41   ar
     6    42    38   ar
     7    41    40   ar
     8    12     3    1
     9    34    32    1
    10    37    36    1
    11     8     9    1
    12     8    11    1
    13     8     2    1
    14    36    28    1
    15    38    29    1
    16    38    39   ar
    17    40    49    1
    18    40    39   ar
    19    28    29   ar
    20    28    27   ar
    21     3     2   ar
    22     3     4   ar
    23    29    30   ar
    24    35    32    1
    25    32    27    1
    26    32    33    1
    27    27    26   ar
    28    19    18    1
    29    30    26   ar
    30    30    31    1
    31     2     1   ar
    32    49    50    1
    33    26    17    1
    34    39    45    1
    35    18    17   ar
    36    18    14   ar
    37    17    16   ar
    38    22    20    1
    39     4    14    1
    40     4     5   ar
    41    14    15   ar
    42    16    24    1
    43    16    15   ar
    44    24    25    1
    45    15    20    1
    46     1     5   ar
    47     1     7    1
    48    47    45    1
    49    23    20    1
    50    20    21    1
    51     5     6    1
    52    45    46    1
    53    45    48    1
