@<TRIPOS>MOLECULE
mol_data/opt/m06hf/geoms/mol2/13if13if13if.out
 38 40 0 0 0
SMALL
GASTEIGER

@<TRIPOS>ATOM
      1 C           0.9122    0.1928    1.3719 C.ar    1  LIG1        0.0087
      2 C           0.8424    1.0036    0.2625 C.ar    1  LIG1        0.0090
      3 C          -0.4188    0.7303   -0.3345 C.ar    1  LIG1        0.1463
      4 C          -1.0697   -0.2209    0.4155 C.ar    1  LIG1        0.1055
      5 N          -0.2288   -0.5479    1.4571 N.ar    1  LIG1       -0.3563
      6 H          -0.4898   -1.1378    2.2297 H       1  LIG1        0.1655
      7 H           1.6964    0.0993    2.1041 H       1  LIG1        0.0811
      8 C           1.8670    1.9773   -0.2585 C.3     1  LIG1       -0.0348
      9 H           1.4433    2.9805   -0.3150 H       1  LIG1        0.0279
     10 H           2.1905    1.6901   -1.2597 H       1  LIG1        0.0279
     11 H           2.7360    1.9987    0.3992 H       1  LIG1        0.0279
     12 O          -0.8631    1.3240   -1.4770 O.3     1  LIG1       -0.5043
     13 H          -1.7067    0.9231   -1.7233 H       1  LIG1        0.2922
     14 C          -2.3768   -0.8259    0.1704 C.ar    1  LIG1        0.0735
     15 C          -3.5950   -0.2076   -0.0583 C.ar    1  LIG1        0.0185
     16 C          -4.5230   -1.2562   -0.2964 C.ar    1  LIG1        0.1470
     17 C          -3.8685   -2.4634   -0.1982 C.ar    1  LIG1        0.1060
     18 N          -2.5519   -2.1787    0.0806 N.ar    1  LIG1       -0.3486
     19 H          -1.8216   -2.8625    0.1991 H       1  LIG1        0.1661
     20 C          -3.9066    1.2667   -0.0180 C.3     1  LIG1       -0.0342
     21 H          -4.7483    1.4472    0.6513 H       1  LIG1        0.0279
     22 H          -4.1825    1.6376   -1.0071 H       1  LIG1        0.0279
     23 H          -3.0374    1.8189    0.3404 H       1  LIG1        0.0279
     24 O          -5.8419   -1.0574   -0.5682 O.3     1  LIG1       -0.5043
     25 H          -6.2435   -1.9102   -0.7806 H       1  LIG1        0.2922
     26 C          -4.4154   -3.8062   -0.3784 C.ar    1  LIG1        0.0730
     27 C          -5.5244   -4.3846    0.2089 C.ar    1  LIG1        0.0178
     28 C          -5.6383   -5.6814   -0.3654 C.ar    1  LIG1        0.1376
     29 C          -4.6153   -5.8587   -1.2635 C.ar    1  LIG1        0.0445
     30 N          -3.8742   -4.7038   -1.2576 N.ar    1  LIG1       -0.3561
     31 H          -3.1292   -4.4842   -1.8984 H       1  LIG1        0.1655
     32 H          -4.3604   -6.6975   -1.8876 H       1  LIG1        0.0844
     33 C          -6.4115   -3.8130    1.2855 C.3     1  LIG1       -0.0342
     34 H          -6.5099   -4.5298    2.1012 H       1  LIG1        0.0279
     35 H          -7.4125   -3.6065    0.9014 H       1  LIG1        0.0279
     36 H          -5.9808   -2.8875    1.6684 H       1  LIG1        0.0279
     37 O          -6.6284   -6.5484    0.0007 O.3     1  LIG1       -0.5050
     38 H          -6.5295   -7.3842   -0.4657 H       1  LIG1        0.2922
@<TRIPOS>BOND
     1    31    30    1
     2    32    29    1
     3    13    12    1
     4    12     3    1
     5    29    30   ar
     6    29    28   ar
     7    10     8    1
     8    30    26   ar
     9    22    20    1
    10    25    24    1
    11    24    16    1
    12    38    37    1
    13    26    17    1
    14    26    27   ar
    15    28    37    1
    16    28    27   ar
    17     3     2   ar
    18     3     4   ar
    19     9     8    1
    20    16    17   ar
    21    16    15   ar
    22     8     2    1
    23     8    11    1
    24    17    18   ar
    25    15    20    1
    26    15    14   ar
    27    20    23    1
    28    20    21    1
    29    18    14   ar
    30    18    19    1
    31    14     4    1
    32    27    33    1
    33     2     1   ar
    34     4     5   ar
    35    35    33    1
    36    33    36    1
    37    33    34    1
    38     1     5   ar
    39     1     7    1
    40     5     6    1
