@<TRIPOS>MOLECULE
mol_data/opt/m06hf/geoms/mol2/13if13if13if13if-.out
 50 53 0 0 0
SMALL
GASTEIGER

@<TRIPOS>ATOM
      1 C           0.4138    0.9623    1.9198 C.ar    1  LIG1        0.0087
      2 C           0.6633    1.4034    0.6406 C.ar    1  LIG1        0.0090
      3 C          -0.3705    0.8514   -0.1650 C.ar    1  LIG1        0.1463
      4 C          -1.2058    0.1051    0.6330 C.ar    1  LIG1        0.1055
      5 N          -0.6998    0.1761    1.9129 N.ar    1  LIG1       -0.3563
      6 H          -1.1664   -0.1881    2.7265 H       1  LIG1        0.1655
      7 H           0.9547    1.1592    2.8301 H       1  LIG1        0.0811
      8 C           1.7911    2.2736    0.1506 C.3     1  LIG1       -0.0348
      9 H           1.3988    3.1799   -0.3119 H       1  LIG1        0.0279
     10 H           2.3854    1.7436   -0.5946 H       1  LIG1        0.0279
     11 H           2.4376    2.5542    0.9820 H       1  LIG1        0.0279
     12 O          -0.4700    1.0404   -1.5105 O.3     1  LIG1       -0.5043
     13 H          -1.1892    0.4896   -1.8459 H       1  LIG1        0.2922
     14 C          -2.3881   -0.6592    0.2438 C.ar    1  LIG1        0.0735
     15 C          -3.4836   -0.2518   -0.4999 C.ar    1  LIG1        0.0185
     16 C          -4.3135   -1.3972   -0.6250 C.ar    1  LIG1        0.1470
     17 C          -3.7267   -2.4506    0.0399 C.ar    1  LIG1        0.1060
     18 N          -2.5426   -1.9798    0.5596 N.ar    1  LIG1       -0.3486
     19 H          -1.8730   -2.5315    1.0714 H       1  LIG1        0.1661
     20 C          -3.7793    1.1286   -1.0293 C.3     1  LIG1       -0.0342
     21 H          -4.7924    1.4194   -0.7505 H       1  LIG1        0.0279
     22 H          -3.7126    1.1563   -2.1189 H       1  LIG1        0.0279
     23 H          -3.0705    1.8439   -0.6116 H       1  LIG1        0.0279
     24 O          -5.5031   -1.4074   -1.2881 O.3     1  LIG1       -0.5043
     25 H          -5.8117   -2.3210   -1.3548 H       1  LIG1        0.2922
     26 C          -4.2231   -3.8169    0.1874 C.ar    1  LIG1        0.0735
     27 C          -5.4481   -4.2588    0.6532 C.ar    1  LIG1        0.0185
     28 C          -5.4152   -5.6739    0.5403 C.ar    1  LIG1        0.1470
     29 C          -4.1968   -6.0591    0.0240 C.ar    1  LIG1        0.1060
     30 N          -3.4862   -4.9115   -0.1902 N.ar    1  LIG1       -0.3486
     31 H          -2.6050   -4.8632   -0.6763 H       1  LIG1        0.1661
     32 C          -6.5767   -3.4329    1.2182 C.3     1  LIG1       -0.0342
     33 H          -6.7408   -3.6720    2.2713 H       1  LIG1        0.0279
     34 H          -7.5033   -3.6318    0.6769 H       1  LIG1        0.0279
     35 H          -6.3396   -2.3720    1.1391 H       1  LIG1        0.0279
     36 O          -6.4332   -6.5535    0.8477 O.3     1  LIG1       -0.5043
     37 H          -6.6661   -6.4614    1.7791 H       1  LIG1        0.2922
     38 C          -3.7110   -7.3976   -0.2824 C.ar    1  LIG1        0.0730
     39 C          -2.4578   -7.8675   -0.6309 C.ar    1  LIG1        0.0178
     40 C          -2.6097   -9.2718   -0.8018 C.ar    1  LIG1        0.1376
     41 C          -3.9182   -9.6090   -0.5513 C.ar    1  LIG1        0.0445
     42 N          -4.5724   -8.4554   -0.2369 N.ar    1  LIG1       -0.3561
     43 H          -5.5435   -8.3500    0.0230 H       1  LIG1        0.1655
     44 H          -4.4052  -10.5674   -0.5664 H       1  LIG1        0.0844
     45 C          -1.1596   -7.1128   -0.7698 C.3     1  LIG1       -0.0342
     46 H          -0.9982   -6.4502    0.0835 H       1  LIG1        0.0279
     47 H          -1.1206   -6.5242   -1.6911 H       1  LIG1        0.0279
     48 H          -0.3425   -7.8341   -0.7946 H       1  LIG1        0.0279
     49 O          -1.5958  -10.1500   -1.1114 O.3     1  LIG1       -0.5050
     50 H          -1.3828  -10.0666   -2.0474 H       1  LIG1        0.2922
@<TRIPOS>BOND
     1    22    20    1
     2    50    49    1
     3    13    12    1
     4    47    45    1
     5    12     3    1
     6    25    24    1
     7    24    16    1
     8    49    40    1
     9    20    21    1
    10    20    23    1
    11    20    15    1
    12    40    39   ar
    13    40    41   ar
    14    48    45    1
    15    45    39    1
    16    45    46    1
    17    31    30    1
    18    39    38   ar
    19    16    15   ar
    20    16    17   ar
    21    10     8    1
    22    44    41    1
    23    41    42   ar
    24    15    14   ar
    25     9     8    1
    26    38    42   ar
    27    38    29    1
    28    42    43    1
    29    30    29   ar
    30    30    26   ar
    31     3     4   ar
    32     3     2   ar
    33    29    28   ar
    34    17    26    1
    35    17    18   ar
    36     8     2    1
    37     8    11    1
    38    26    27   ar
    39    14    18   ar
    40    14     4    1
    41    28    27   ar
    42    28    36    1
    43    18    19    1
    44     4     5   ar
    45     2     1   ar
    46    27    32    1
    47    34    32    1
    48    36    37    1
    49    35    32    1
    50    32    33    1
    51     5     1   ar
    52     5     6    1
    53     1     7    1
