@<TRIPOS>MOLECULE
mol_data/opt/m06hf/geoms/mol2/13if13if-.out
 26 27 0 0 0
SMALL
GASTEIGER

@<TRIPOS>ATOM
      1 C          -2.5777    1.3448   -0.6268 C.ar    1  LIG1        0.0087
      2 C          -2.9610    0.1703   -0.0198 C.ar    1  LIG1        0.0090
      3 C          -1.7585   -0.5458    0.2244 C.ar    1  LIG1        0.1463
      4 C          -0.6950    0.1965   -0.2370 C.ar    1  LIG1        0.1055
      5 N          -1.2203    1.3588   -0.7476 N.ar    1  LIG1       -0.3563
      6 H          -0.6710    2.0677   -1.2045 H       1  LIG1        0.1655
      7 H          -3.1797    2.1671   -0.9747 H       1  LIG1        0.0811
      8 C          -4.3481   -0.2914    0.3445 C.3     1  LIG1       -0.0348
      9 H          -4.4180   -0.4730    1.4177 H       1  LIG1        0.0279
     10 H          -4.5890   -1.2214   -0.1713 H       1  LIG1        0.0279
     11 H          -5.0823    0.4648    0.0667 H       1  LIG1        0.0279
     12 O          -1.7063   -1.7772    0.8222 O.3     1  LIG1       -0.5043
     13 H          -0.8619   -1.8637    1.2818 H       1  LIG1        0.2922
     14 C           0.7295   -0.1331   -0.2286 C.ar    1  LIG1        0.0730
     15 C           1.8324    0.5824    0.1995 C.ar    1  LIG1        0.0178
     16 C           2.9572   -0.2620   -0.0239 C.ar    1  LIG1        0.1376
     17 C           2.5194   -1.4476   -0.5572 C.ar    1  LIG1        0.0445
     18 N           1.1577   -1.3530   -0.6699 N.ar    1  LIG1       -0.3561
     19 H           0.5462   -2.0361   -1.0886 H       1  LIG1        0.1655
     20 H           3.0688   -2.3240   -0.8485 H       1  LIG1        0.0844
     21 C           1.8455    1.9511    0.8330 C.3     1  LIG1       -0.0342
     22 H           0.8250    2.2556    1.0676 H       1  LIG1        0.0279
     23 H           2.2873    2.7016    0.1723 H       1  LIG1        0.0279
     24 H           2.4136    1.9374    1.7663 H       1  LIG1        0.0279
     25 O           4.2642    0.0147    0.2659 O.3     1  LIG1       -0.5050
     26 H           4.3499    0.9407    0.5118 H       1  LIG1        0.2922
@<TRIPOS>BOND
     1     6     5    1
     2    19    18    1
     3     7     1    1
     4    20    17    1
     5     5     1   ar
     6     5     4   ar
     7    18    17   ar
     8    18    14   ar
     9     1     2   ar
    10    17    16   ar
    11     4    14    1
    12     4     3   ar
    13    14    15   ar
    14    10     8    1
    15    16    15   ar
    16    16    25    1
    17     2     3   ar
    18     2     8    1
    19    11     8    1
    20    23    21    1
    21    15    21    1
    22     3    12    1
    23    25    26    1
    24     8     9    1
    25    12    13    1
    26    21    22    1
    27    21    24    1
