@<TRIPOS>MOLECULE
mol_data/opt/m06hf/geoms/mol2/13if13if-13if.out
 38 40 0 0 0
SMALL
GASTEIGER

@<TRIPOS>ATOM
      1 C           1.2512   -0.2820   -0.2036 C.ar    1  LIG1        0.0087
      2 C           0.8058    1.0014    0.0067 C.ar    1  LIG1        0.0090
      3 C          -0.6084    0.9013    0.1175 C.ar    1  LIG1        0.1463
      4 C          -0.9799   -0.4168   -0.0270 C.ar    1  LIG1        0.1055
      5 N           0.1748   -1.1235   -0.2267 N.ar    1  LIG1       -0.3563
      6 H           0.2096   -2.1108   -0.4173 H       1  LIG1        0.1655
      7 H           2.2526   -0.6511   -0.3447 H       1  LIG1        0.0811
      8 C           1.6126    2.2712    0.0987 C.3     1  LIG1       -0.0348
      9 H           1.5615    2.7003    1.1021 H       1  LIG1        0.0279
     10 H           1.2351    3.0103   -0.6091 H       1  LIG1        0.0279
     11 H           2.6584    2.0698   -0.1309 H       1  LIG1        0.0279
     12 O          -1.5025    1.9416    0.2816 O.3     1  LIG1       -0.5043
     13 H          -1.3082    2.4045    1.1050 H       1  LIG1        0.2922
     14 C          -2.3147   -0.9982   -0.0024 C.ar    1  LIG1        0.0735
     15 C          -2.7584   -2.3095    0.0315 C.ar    1  LIG1        0.0185
     16 C          -4.1741   -2.2270    0.0504 C.ar    1  LIG1        0.1470
     17 C          -4.5531   -0.9004    0.0388 C.ar    1  LIG1        0.1060
     18 N          -3.4016   -0.1719    0.0056 N.ar    1  LIG1       -0.3486
     19 H          -3.3170    0.8362    0.0306 H       1  LIG1        0.1661
     20 C          -1.9560   -3.5856    0.0774 C.3     1  LIG1       -0.0342
     21 H          -1.1748   -3.5290    0.8390 H       1  LIG1        0.0279
     22 H          -1.4977   -3.8170   -0.8884 H       1  LIG1        0.0279
     23 H          -2.6215   -4.4079    0.3414 H       1  LIG1        0.0279
     24 O          -5.0571   -3.2905    0.1242 O.3     1  LIG1       -0.5043
     25 H          -5.1230   -3.7012   -0.7463 H       1  LIG1        0.2922
     26 C          -5.8896   -0.3241    0.0804 C.ar    1  LIG1        0.0730
     27 C          -6.3384    0.9649   -0.1438 C.ar    1  LIG1        0.0178
     28 C          -7.7450    0.9166    0.0462 C.ar    1  LIG1        0.1376
     29 C          -8.1080   -0.3694    0.3697 C.ar    1  LIG1        0.0445
     30 N          -6.9576   -1.1126    0.3847 N.ar    1  LIG1       -0.3561
     31 H          -6.8613   -2.0957    0.5939 H       1  LIG1        0.1655
     32 H          -9.0700   -0.8001    0.5851 H       1  LIG1        0.0844
     33 C          -5.5498    2.1912   -0.5307 C.3     1  LIG1       -0.0342
     34 H          -6.2436    2.9646   -0.8587 H       1  LIG1        0.0279
     35 H          -4.8618    1.9732   -1.3504 H       1  LIG1        0.0279
     36 H          -4.9783    2.5875    0.3132 H       1  LIG1        0.0279
     37 O          -8.5378    2.0237   -0.1011 O.3     1  LIG1       -0.5050
     38 H          -9.4627    1.7781   -0.0026 H       1  LIG1        0.2922
@<TRIPOS>BOND
     1    35    33    1
     2    22    20    1
     3    34    33    1
     4    25    24    1
     5    10     8    1
     6    33    27    1
     7    33    36    1
     8     6     5    1
     9     7     1    1
    10     5     1   ar
    11     5     4   ar
    12     1     2   ar
    13    27    28   ar
    14    27    26   ar
    15    11     8    1
    16    37    38    1
    17    37    28    1
    18     4    14    1
    19     4     3   ar
    20    14    18   ar
    21    14    15   ar
    22    18    19    1
    23    18    17   ar
    24     2     8    1
    25     2     3   ar
    26    15    16   ar
    27    15    20    1
    28    17    16   ar
    29    17    26    1
    30    28    29   ar
    31    16    24    1
    32    20    23    1
    33    20    21    1
    34    26    30   ar
    35     8     9    1
    36     3    12    1
    37    12    13    1
    38    29    30   ar
    39    29    32    1
    40    30    31    1
