@<TRIPOS>MOLECULE
mol_data/opt/m06hf/geoms/mol2/13if13if-13if-13if.out
 50 53 0 0 0
SMALL
GASTEIGER

@<TRIPOS>ATOM
      1 C           1.4127   -0.3972    0.0285 C.ar    1  LIG1        0.0087
      2 C           1.0151    0.7491    0.6767 C.ar    1  LIG1        0.0090
      3 C          -0.4043    0.6908    0.7164 C.ar    1  LIG1        0.1463
      4 C          -0.8263   -0.4651    0.0989 C.ar    1  LIG1        0.1055
      5 N           0.3044   -1.1140   -0.3190 N.ar    1  LIG1       -0.3563
      6 H           0.3052   -1.9870   -0.8193 H       1  LIG1        0.1655
      7 H           2.4029   -0.7437   -0.2135 H       1  LIG1        0.0811
      8 C           1.8738    1.8551    1.2352 C.3     1  LIG1       -0.0348
      9 H           1.8282    1.8805    2.3269 H       1  LIG1        0.0279
     10 H           1.5416    2.8221    0.8545 H       1  LIG1        0.0279
     11 H           2.9131    1.7061    0.9448 H       1  LIG1        0.0279
     12 O          -1.2631    1.6401    1.2342 O.3     1  LIG1       -0.5043
     13 H          -0.9847    1.8682    2.1284 H       1  LIG1        0.2922
     14 C          -2.1844   -0.9418   -0.1205 C.ar    1  LIG1        0.0735
     15 C          -2.6728   -2.1265   -0.6504 C.ar    1  LIG1        0.0185
     16 C          -4.0840   -2.0104   -0.5995 C.ar    1  LIG1        0.1470
     17 C          -4.4162   -0.7923   -0.0454 C.ar    1  LIG1        0.1060
     18 N          -3.2346   -0.1506    0.2312 N.ar    1  LIG1       -0.3486
     19 H          -3.1162    0.7369    0.7019 H       1  LIG1        0.1661
     20 C          -1.9158   -3.3124   -1.1929 C.3     1  LIG1       -0.0342
     21 H          -1.2383   -3.7293   -0.4432 H       1  LIG1        0.0279
     22 H          -1.3454   -3.0491   -2.0880 H       1  LIG1        0.0279
     23 H          -2.6322   -4.0849   -1.4698 H       1  LIG1        0.0279
     24 O          -4.9492   -2.9612   -1.0579 O.3     1  LIG1       -0.5043
     25 H          -5.8252   -2.5597   -1.1290 H       1  LIG1        0.2922
     26 C          -5.7427   -0.2272    0.1699 C.ar    1  LIG1        0.0735
     27 C          -6.8665   -0.8131    0.7270 C.ar    1  LIG1        0.0185
     28 C          -7.8871    0.1714    0.6537 C.ar    1  LIG1        0.1470
     29 C          -7.3760    1.3151    0.0809 C.ar    1  LIG1        0.1060
     30 N          -6.0642    1.0501   -0.2051 N.ar    1  LIG1       -0.3486
     31 H          -5.4398    1.6769   -0.6868 H       1  LIG1        0.1661
     32 C          -6.9769   -2.1742    1.3678 C.3     1  LIG1       -0.0342
     33 H          -5.9799   -2.5810    1.5388 H       1  LIG1        0.0279
     34 H          -7.5307   -2.8806    0.7431 H       1  LIG1        0.0279
     35 H          -7.4958   -2.0874    2.3237 H       1  LIG1        0.0279
     36 O          -9.1757    0.0690    1.1382 O.3     1  LIG1       -0.5043
     37 H          -9.5715   -0.7496    0.8187 H       1  LIG1        0.2922
     38 C          -8.0342    2.5879   -0.1775 C.ar    1  LIG1        0.0730
     39 C          -7.5988    3.7337   -0.8201 C.ar    1  LIG1        0.0178
     40 C          -8.6877    4.6422   -0.7580 C.ar    1  LIG1        0.1376
     41 C          -9.7327    4.0410   -0.0970 C.ar    1  LIG1        0.0445
     42 N          -9.3113    2.7858    0.2494 N.ar    1  LIG1       -0.3561
     43 H          -9.8310    2.0763    0.7461 H       1  LIG1        0.1655
     44 H         -10.7163    4.4016    0.1483 H       1  LIG1        0.0844
     45 C          -6.2690    4.0174   -1.4730 C.3     1  LIG1       -0.0342
     46 H          -6.3139    4.9993   -1.9422 H       1  LIG1        0.0279
     47 H          -6.0412    3.2820   -2.2494 H       1  LIG1        0.0279
     48 H          -5.4563    4.0321   -0.7416 H       1  LIG1        0.0279
     49 O          -8.6198    5.8978   -1.2996 O.3     1  LIG1       -0.5050
     50 H          -9.4557    6.3561   -1.1710 H       1  LIG1        0.2922
@<TRIPOS>BOND
     1    47    45    1
     2    22    20    1
     3    46    45    1
     4    45    39    1
     5    45    48    1
     6    23    20    1
     7    49    50    1
     8    49    40    1
     9    20    15    1
    10    20    21    1
    11    25    24    1
    12    24    16    1
    13    39    40   ar
    14    39    38   ar
    15     6     5    1
    16    40    41   ar
    17    31    30    1
    18    15    16   ar
    19    15    14   ar
    20    16    17   ar
    21     5     1   ar
    22     5     4   ar
    23     7     1    1
    24    30    29   ar
    25    30    26   ar
    26    38    29    1
    27    38    42   ar
    28    14     4    1
    29    14    18   ar
    30    41    44    1
    31    41    42   ar
    32    17    26    1
    33    17    18   ar
    34     1     2   ar
    35    29    28   ar
    36     4     3   ar
    37    26    27   ar
    38    18    19    1
    39    42    43    1
    40    28    27   ar
    41    28    36    1
    42     2     3   ar
    43     2     8    1
    44     3    12    1
    45    27    32    1
    46    34    32    1
    47    37    36    1
    48    10     8    1
    49    11     8    1
    50    12    13    1
    51     8     9    1
    52    32    33    1
    53    32    35    1
