@<TRIPOS>MOLECULE
mol_data/opt/m06hf/geoms/mol2/13if13if-13if13if-.out
 50 53 0 0 0
SMALL
GASTEIGER

@<TRIPOS>ATOM
      1 C           1.3156   -0.2484   -0.0400 C.ar    1  LIG1        0.0087
      2 C           0.8560    1.0093    0.2717 C.ar    1  LIG1        0.0090
      3 C          -0.5619    0.9069    0.2745 C.ar    1  LIG1        0.1463
      4 C          -0.9215   -0.3864   -0.0318 C.ar    1  LIG1        0.1055
      5 N           0.2446   -1.0759   -0.2248 N.ar    1  LIG1       -0.3563
      6 H           0.2923   -2.0409   -0.5048 H       1  LIG1        0.1655
      7 H           2.3250   -0.6060   -0.1489 H       1  LIG1        0.0811
      8 C           1.6543    2.2566    0.5530 C.3     1  LIG1       -0.0348
      9 H           1.5370    2.5751    1.5916 H       1  LIG1        0.0279
     10 H           1.3246    3.0707   -0.0941 H       1  LIG1        0.0279
     11 H           2.7131    2.0741    0.3727 H       1  LIG1        0.0279
     12 O          -1.4685    1.9275    0.4908 O.3     1  LIG1       -0.5043
     13 H          -1.3021    2.3215    1.3548 H       1  LIG1        0.2922
     14 C          -2.2549   -0.9568   -0.1595 C.ar    1  LIG1        0.0735
     15 C          -2.7004   -2.2614   -0.2912 C.ar    1  LIG1        0.0185
     16 C          -4.1136   -2.1708   -0.3604 C.ar    1  LIG1        0.1470
     17 C          -4.4901   -0.8465   -0.2616 C.ar    1  LIG1        0.1060
     18 N          -3.3388   -0.1264   -0.1415 N.ar    1  LIG1       -0.3486
     19 H          -3.2536    0.8711    0.0033 H       1  LIG1        0.1661
     20 C          -1.9024   -3.5405   -0.3202 C.3     1  LIG1       -0.0342
     21 H          -1.1910   -3.5755    0.5081 H       1  LIG1        0.0279
     22 H          -1.3617   -3.6645   -1.2626 H       1  LIG1        0.0279
     23 H          -2.5873   -4.3816   -0.2106 H       1  LIG1        0.0279
     24 O          -4.9993   -3.2302   -0.4571 O.3     1  LIG1       -0.5043
     25 H          -5.0589   -3.5060   -1.3798 H       1  LIG1        0.2922
     26 C          -5.8288   -0.2787   -0.2580 C.ar    1  LIG1        0.0735
     27 C          -6.2865    1.0162   -0.4309 C.ar    1  LIG1        0.0185
     28 C          -7.6990    0.9312   -0.3288 C.ar    1  LIG1        0.1470
     29 C          -8.0627   -0.3823   -0.1111 C.ar    1  LIG1        0.1060
     30 N          -6.9045   -1.1004   -0.0729 N.ar    1  LIG1       -0.3486
     31 H          -6.8121   -2.1013    0.0406 H       1  LIG1        0.1661
     32 C          -5.4935    2.2693   -0.7059 C.3     1  LIG1       -0.0342
     33 H          -6.1652    3.0323   -1.1005 H       1  LIG1        0.0279
     34 H          -4.7163    2.0815   -1.4492 H       1  LIG1        0.0279
     35 H          -5.0232    2.6623    0.1995 H       1  LIG1        0.0279
     36 O          -8.5992    1.9718   -0.4773 O.3     1  LIG1       -0.5043
     37 H          -8.5565    2.5345    0.3048 H       1  LIG1        0.2922
     38 C          -9.3918   -0.9580    0.0354 C.ar    1  LIG1        0.0730
     39 C          -9.8104   -2.2028    0.4681 C.ar    1  LIG1        0.0178
     40 C         -11.2315   -2.1739    0.3959 C.ar    1  LIG1        0.1376
     41 C         -11.6278   -0.9405   -0.0608 C.ar    1  LIG1        0.0445
     42 N         -10.4929   -0.2128   -0.2727 N.ar    1  LIG1       -0.3561
     43 H         -10.4217    0.7397   -0.6012 H       1  LIG1        0.1655
     44 H         -12.6135   -0.5473   -0.2314 H       1  LIG1        0.0844
     45 C          -8.9805   -3.3581    0.9699 C.3     1  LIG1       -0.0342
     46 H          -8.2365   -3.0188    1.6936 H       1  LIG1        0.0279
     47 H          -8.4657   -3.8811    0.1587 H       1  LIG1        0.0279
     48 H          -9.6390   -4.0689    1.4702 H       1  LIG1        0.0279
     49 O         -12.0738   -3.1928    0.7822 O.3     1  LIG1       -0.5050
     50 H         -11.9871   -3.9225    0.1591 H       1  LIG1        0.2922
@<TRIPOS>BOND
     1    34    32    1
     2    25    24    1
     3    22    20    1
     4    33    32    1
     5    32    27    1
     6    32    35    1
     7    43    42    1
     8     6     5    1
     9    36    28    1
    10    36    37    1
    11    24    16    1
    12    27    28   ar
    13    27    26   ar
    14    16    15   ar
    15    16    17   ar
    16    28    29   ar
    17    20    15    1
    18    20    23    1
    19    20    21    1
    20    15    14   ar
    21    42    41   ar
    22    42    38   ar
    23    17    26    1
    24    17    18   ar
    25    26    30   ar
    26    44    41    1
    27     5     1   ar
    28     5     4   ar
    29    14    18   ar
    30    14     4    1
    31     7     1    1
    32    18    19    1
    33    29    30   ar
    34    29    38    1
    35    10     8    1
    36    30    31    1
    37    41    40   ar
    38     1     2   ar
    39     4     3   ar
    40    38    39   ar
    41    47    45    1
    42    50    49    1
    43     2     3   ar
    44     2     8    1
    45     3    12    1
    46    11     8    1
    47    40    39   ar
    48    40    49    1
    49    39    45    1
    50    12    13    1
    51     8     9    1
    52    45    48    1
    53    45    46    1
