@<TRIPOS>MOLECULE
mol_data/opt/m06hf/geoms/mol2/13if6af-13ei-4el-.out
 53 56 0 0 0
SMALL
GASTEIGER

@<TRIPOS>ATOM
      1 C           1.2526   -0.3550    0.3332 C.ar    1  LIG1        0.0087
      2 C           0.9843    0.7168   -0.4867 C.ar    1  LIG1        0.0089
      3 C          -0.4215    0.7048   -0.6884 C.ar    1  LIG1        0.1449
      4 C          -0.9635   -0.3583    0.0026 C.ar    1  LIG1        0.0903
      5 N           0.0882   -1.0066    0.6074 N.ar    1  LIG1       -0.3574
      6 H          -0.0165   -1.7634    1.2629 H       1  LIG1        0.1655
      7 H           2.1914   -0.6933    0.7376 H       1  LIG1        0.0811
      8 C           1.9461    1.7122   -1.0813 C.3     1  LIG1       -0.0348
      9 H           1.7478    2.7130   -0.6963 H       1  LIG1        0.0279
     10 H           1.8357    1.7392   -2.1660 H       1  LIG1        0.0279
     11 H           2.9718    1.4370   -0.8369 H       1  LIG1        0.0279
     12 O          -1.0736    1.6170   -1.4704 O.3     1  LIG1       -0.5044
     13 H          -1.8628    1.2138   -1.8509 H       1  LIG1        0.2922
     14 C          -2.6830   -2.1729    0.1588 C.ar    1  LIG1        0.0378
     15 C          -2.3544   -0.8105    0.0871 C.ar    1  LIG1        0.0235
     16 C          -3.4092    0.0957    0.0761 C.ar    1  LIG1       -0.0073
     17 C          -4.7288   -0.3533    0.1361 C.ar    1  LIG1        0.1448
     18 C          -4.9518   -1.7361    0.2596 C.ar    1  LIG1        0.1295
     19 N          -3.9275   -2.6000    0.2538 N.ar    1  LIG1       -0.2491
     20 H          -3.2359    1.1643    0.0382 H       1  LIG1        0.0662
     21 H          -1.9092   -2.9307    0.1171 H       1  LIG1        0.0836
     22 O          -5.6819    0.5900    0.0371 O.3     1  LIG1       -0.5045
     23 H          -6.5620    0.2967    0.3211 H       1  LIG1        0.2922
     24 C          -6.2751   -2.3952    0.3334 C.ar    1  LIG1        0.0848
     25 C          -7.5762   -2.0209    0.6657 C.ar    1  LIG1        0.0550
     26 C          -8.4160   -3.1697    0.5370 C.ar    1  LIG1       -0.0091
     27 C          -7.5944   -4.2023    0.1381 C.ar    1  LIG1        0.0524
     28 N          -6.3224   -3.7138    0.0349 N.ar    1  LIG1       -0.3516
     29 H          -5.4911   -4.2253   -0.2307 H       1  LIG1        0.1660
     30 C          -8.0292   -0.7498    1.1419 C.1     1  LIG1       -0.0672
     31 C          -8.4151    0.3206    1.5416 C.1     1  LIG1       -0.1138
     32 H          -8.7566    1.2607    1.9102 H       1  LIG1        0.1232
     33 C          -9.8853   -3.2135    0.8600 C.3     1  LIG1       -0.0365
     34 H         -10.2182   -4.2455    0.9656 H       1  LIG1        0.0279
     35 H         -10.4654   -2.7446    0.0640 H       1  LIG1        0.0279
     36 H         -10.0698   -2.6790    1.7928 H       1  LIG1        0.0279
     37 C          -8.8912   -6.0694   -0.9567 C.ar    1  LIG1        0.0340
     38 C          -9.1074   -7.4374   -1.1215 C.ar    1  LIG1       -0.0422
     39 C          -7.8676   -5.6374   -0.0898 C.ar    1  LIG1        0.0174
     40 C          -8.3230   -8.3820   -0.4676 C.ar    1  LIG1       -0.0188
     41 H          -9.8955   -7.7613   -1.7875 H       1  LIG1        0.0631
     42 C          -7.0807   -6.5806    0.5597 C.ar    1  LIG1       -0.0097
     43 C          -7.2969   -7.9481    0.3728 C.ar    1  LIG1        0.1208
     44 H          -6.3035   -6.2746    1.2483 H       1  LIG1        0.0661
     45 H          -8.5166   -9.4337   -0.6230 H       1  LIG1        0.0654
     46 C          -9.6899   -5.1339   -1.7116 C.1     1  LIG1       -0.0690
     47 C         -10.3676   -4.3857   -2.3648 C.1     1  LIG1       -0.1139
     48 H         -10.9599   -3.7124   -2.9402 H       1  LIG1        0.1232
     49 O          -6.4721   -8.7745    1.0574 O.3     1  LIG1       -0.4951
     50 C          -6.6901  -10.1695    0.9581 C.3     1  LIG1        0.0788
     51 H          -5.9437  -10.6324    1.5974 H       1  LIG1        0.0660
     52 H          -7.6918  -10.4289    1.3093 H       1  LIG1        0.0660
     53 H          -6.5561  -10.5100   -0.0717 H       1  LIG1        0.0660
@<TRIPOS>BOND
     1    48    47    1
     2    47    46    3
     3    10     8    1
     4    13    12    1
     5    41    38    1
     6    46    37    1
     7    12     3    1
     8    38    37   ar
     9    38    40   ar
    10     8    11    1
    11     8     9    1
    12     8     2    1
    13    37    39   ar
    14     3     2   ar
    15     3     4   ar
    16    45    40    1
    17     2     1   ar
    18    40    43   ar
    19    29    28    1
    20    39    27    1
    21    39    42   ar
    22    53    50    1
    23     4    15    1
    24     4     5   ar
    25    28    27   ar
    26    28    24   ar
    27    22    17    1
    28    22    23    1
    29    20    16    1
    30    35    33    1
    31    16    15   ar
    32    16    17   ar
    33    15    14   ar
    34    21    14    1
    35    17    18   ar
    36    27    26   ar
    37    14    19   ar
    38    19    18   ar
    39    18    24    1
    40     1     5   ar
    41     1     7    1
    42    24    25   ar
    43    43    42   ar
    44    43    49    1
    45    26    25   ar
    46    26    33    1
    47    42    44    1
    48     5     6    1
    49    25    30    1
    50    33    34    1
    51    33    36    1
    52    50    49    1
    53    50    52    1
    54    50    51    1
    55    30    31    3
    56    31    32    1
