@<TRIPOS>MOLECULE
mol_data/opt/m06hf/geoms/mol2/13if13if13if13if.out
 50 53 0 0 0
SMALL
GASTEIGER

@<TRIPOS>ATOM
      1 C           0.4451    0.6620    2.0876 C.ar    1  LIG1        0.0087
      2 C           0.7304    1.2072    0.8572 C.ar    1  LIG1        0.0090
      3 C          -0.3084    0.7664   -0.0091 C.ar    1  LIG1        0.1463
      4 C          -1.1812   -0.0186    0.7069 C.ar    1  LIG1        0.1055
      5 N          -0.6935   -0.0821    1.9942 N.ar    1  LIG1       -0.3563
      6 H          -1.1959   -0.4848    2.7678 H       1  LIG1        0.1655
      7 H           0.9754    0.7590    3.0198 H       1  LIG1        0.0811
      8 C           1.8944    2.0775    0.4613 C.3     1  LIG1       -0.0348
      9 H           1.5425    3.0466    0.1060 H       1  LIG1        0.0279
     10 H           2.4628    1.6084   -0.3427 H       1  LIG1        0.0279
     11 H           2.5545    2.2339    1.3145 H       1  LIG1        0.0279
     12 O          -0.3766    1.0761   -1.3342 O.3     1  LIG1       -0.5043
     13 H          -1.1055    0.5799   -1.7292 H       1  LIG1        0.2922
     14 C          -2.3821   -0.7066    0.2388 C.ar    1  LIG1        0.0735
     15 C          -3.4616   -0.2018   -0.4671 C.ar    1  LIG1        0.0185
     16 C          -4.3279   -1.3048   -0.6904 C.ar    1  LIG1        0.1470
     17 C          -3.7761   -2.4300   -0.1207 C.ar    1  LIG1        0.1060
     18 N          -2.5794   -2.0446    0.4381 N.ar    1  LIG1       -0.3486
     19 H          -1.9361   -2.6558    0.9145 H       1  LIG1        0.1661
     20 C          -3.7167    1.2266   -0.8754 C.3     1  LIG1       -0.0342
     21 H          -4.6864    1.5510   -0.4966 H       1  LIG1        0.0279
     22 H          -3.7343    1.3252   -1.9626 H       1  LIG1        0.0279
     23 H          -2.9387    1.8742   -0.4705 H       1  LIG1        0.0279
     24 O          -5.5121   -1.2179   -1.3560 O.3     1  LIG1       -0.5043
     25 H          -5.8873   -2.1050   -1.4355 H       1  LIG1        0.2922
     26 C          -4.3149   -3.7882   -0.0954 C.ar    1  LIG1        0.0735
     27 C          -5.5623   -4.2215    0.3228 C.ar    1  LIG1        0.0185
     28 C          -5.5775   -5.6248    0.1048 C.ar    1  LIG1        0.1470
     29 C          -4.3646   -6.0087   -0.4211 C.ar    1  LIG1        0.1060
     30 N          -3.6061   -4.8681   -0.5436 N.ar    1  LIG1       -0.3486
     31 H          -2.6708   -4.8324   -0.9153 H       1  LIG1        0.1661
     32 C          -6.6716   -3.4055    0.9354 C.3     1  LIG1       -0.0342
     33 H          -6.9604   -3.8363    1.8944 H       1  LIG1        0.0279
     34 H          -7.5542   -3.4029    0.2928 H       1  LIG1        0.0279
     35 H          -6.3386   -2.3784    1.0889 H       1  LIG1        0.0279
     36 O          -6.6364   -6.4284    0.3961 O.3     1  LIG1       -0.5043
     37 H          -6.4496   -7.3169    0.0646 H       1  LIG1        0.2922
     38 C          -3.9273   -7.3527   -0.7931 C.ar    1  LIG1        0.0730
     39 C          -3.9552   -8.5133   -0.0441 C.ar    1  LIG1        0.0178
     40 C          -3.4607   -9.5402   -0.8966 C.ar    1  LIG1        0.1376
     41 C          -3.1456   -8.9894   -2.1141 C.ar    1  LIG1        0.0445
     42 N          -3.4339   -7.6502   -2.0341 N.ar    1  LIG1       -0.3561
     43 H          -3.4195   -7.0037   -2.8058 H       1  LIG1        0.1655
     44 H          -2.7481   -9.4346   -3.0094 H       1  LIG1        0.0844
     45 C          -4.3547   -8.6786    1.3999 C.3     1  LIG1       -0.0342
     46 H          -3.5553   -9.1770    1.9488 H       1  LIG1        0.0279
     47 H          -5.2529   -9.2928    1.4893 H       1  LIG1        0.0279
     48 H          -4.5454   -7.7024    1.8462 H       1  LIG1        0.0279
     49 O          -3.3366  -10.8321   -0.4713 O.3     1  LIG1       -0.5050
     50 H          -2.9347  -11.3730   -1.1583 H       1  LIG1        0.2922
@<TRIPOS>BOND
     1    44    41    1
     2    43    42    1
     3    41    42   ar
     4    41    40   ar
     5    42    38   ar
     6    22    20    1
     7    13    12    1
     8    25    24    1
     9    24    16    1
    10    12     3    1
    11    50    49    1
    12    31    30    1
    13    40    49    1
    14    40    39   ar
    15    20    21    1
    16    20    23    1
    17    20    15    1
    18    38    29    1
    19    38    39   ar
    20    16    15   ar
    21    16    17   ar
    22    30    29   ar
    23    30    26   ar
    24    15    14   ar
    25    29    28   ar
    26    10     8    1
    27    17    26    1
    28    17    18   ar
    29    26    27   ar
    30    39    45    1
    31     3     4   ar
    32     3     2   ar
    33    37    36    1
    34    28    27   ar
    35    28    36    1
    36     9     8    1
    37    14    18   ar
    38    14     4    1
    39    34    32    1
    40    27    32    1
    41    18    19    1
    42     8     2    1
    43     8    11    1
    44     4     5   ar
    45     2     1   ar
    46    32    35    1
    47    32    33    1
    48    45    47    1
    49    45    48    1
    50    45    46    1
    51     5     1   ar
    52     5     6    1
    53     1     7    1
