@<TRIPOS>MOLECULE
mol_data/opt/m06hf/geoms/mol2/13if4ah-12al-13ef6fl-4ia-6ha-6hf-.out
 98 105 0 0 0
SMALL
GASTEIGER

@<TRIPOS>ATOM
      1 C           1.0784    0.0395    1.7403 C.ar    1  LIG1        0.0087
      2 C           0.6572    1.3338    1.5377 C.ar    1  LIG1        0.0089
      3 C          -0.7160    1.2402    1.1881 C.ar    1  LIG1        0.1449
      4 C          -1.0888   -0.0874    1.1844 C.ar    1  LIG1        0.0888
      5 N           0.0370   -0.8077    1.5083 N.ar    1  LIG1       -0.3575
      6 H           0.0390   -1.7987    1.6835 H       1  LIG1        0.1655
      7 H           2.0457   -0.3303    2.0360 H       1  LIG1        0.0811
      8 C           1.4516    2.6098    1.6369 C.3     1  LIG1       -0.0348
      9 H           1.0341    3.2613    2.4055 H       1  LIG1        0.0279
     10 H           1.4250    3.1466    0.6879 H       1  LIG1        0.0279
     11 H           2.4890    2.3897    1.8882 H       1  LIG1        0.0279
     12 O          -1.4909    2.3262    0.8866 O.3     1  LIG1       -0.5044
     13 H          -2.2024    2.0541    0.2950 H       1  LIG1        0.2922
     14 C          -3.5702   -0.0221    1.2137 C.ar    1  LIG1       -0.0517
     15 C          -4.7870   -0.5992    0.9011 C.ar    1  LIG1       -0.0487
     16 C          -2.3867   -0.6925    0.8645 C.ar    1  LIG1        0.0036
     17 C          -4.8799   -1.8336    0.2483 C.ar    1  LIG1        0.0380
     18 H          -5.7020   -0.1041    1.2008 H       1  LIG1        0.0625
     19 C          -2.4638   -1.9203    0.2152 C.ar    1  LIG1       -0.0311
     20 C          -3.6929   -2.5197   -0.0971 C.ar    1  LIG1        0.0360
     21 H          -1.5526   -2.4211   -0.0920 H       1  LIG1        0.0643
     22 H          -3.5216    0.9062    1.7673 H       1  LIG1        0.0624
     23 N          -3.6943   -3.7601   -0.7095 N.pl3   1  LIG1       -0.3574
     24 H          -4.5258   -4.0247   -1.2138 H       1  LIG1        0.1423
     25 H          -2.8294   -4.0358   -1.1494 H       1  LIG1        0.1423
     26 C          -6.2167   -2.3629   -0.0508 C.ar    1  LIG1        0.1412
     27 C          -7.4482   -1.7793   -0.1312 C.ar    1  LIG1        0.0268
     28 C          -8.3789   -2.8409   -0.4117 C.ar    1  LIG1        0.1677
     29 C          -7.6472   -3.9894   -0.5052 C.ar    1  LIG1        0.1944
     30 O          -6.3375   -3.6882   -0.2792 O.2     1  LIG1       -0.4495
     31 H          -7.6666   -0.7314   -0.0213 H       1  LIG1        0.0692
     32 O          -9.7125   -2.7732   -0.5544 O.3     1  LIG1       -0.4912
     33 C         -10.2948   -1.4873   -0.4348 C.3     1  LIG1        0.0790
     34 H         -11.3625   -1.6325   -0.5731 H       1  LIG1        0.0660
     35 H         -10.1026   -1.0694    0.5563 H       1  LIG1        0.0660
     36 H          -9.9083   -0.8181   -1.2070 H       1  LIG1        0.0660
     37 C          -7.8915   -5.3983   -0.7441 C.ar    1  LIG1        0.1054
     38 C          -8.9907   -6.1321   -1.1748 C.ar    1  LIG1        0.0950
     39 C          -8.5703   -7.4952   -1.1985 C.ar    1  LIG1        0.1583
     40 C          -7.2567   -7.5578   -0.7971 C.ar    1  LIG1        0.0955
     41 N          -6.8564   -6.2596   -0.5458 N.ar    1  LIG1       -0.3476
     42 H          -5.9846   -5.9922   -0.1050 H       1  LIG1        0.1661
     43 C         -10.2762   -5.6634   -1.5860 C.1     1  LIG1       -0.0637
     44 C         -11.3638   -5.3056   -1.9491 C.1     1  LIG1       -0.1137
     45 H         -12.3277   -4.9876   -2.2708 H       1  LIG1        0.1232
     46 O          -9.3651   -8.5272   -1.5831 O.3     1  LIG1       -0.5035
     47 H          -8.8146   -9.2521   -1.9032 H       1  LIG1        0.2923
     48 C          -5.0582   -8.6855   -1.1715 C.ar    1  LIG1        0.2225
     49 C          -6.3675   -8.7187   -0.6652 C.ar    1  LIG1        0.0667
     50 C          -6.7980   -9.9015   -0.0641 C.ar    1  LIG1       -0.0035
     51 C          -5.9182  -10.9760    0.0347 C.ar    1  LIG1        0.1468
     52 C          -4.6026  -10.8058   -0.4286 C.ar    1  LIG1        0.1165
     53 N          -4.2149   -9.6872   -1.0399 N.ar    1  LIG1       -0.2088
     54 H          -7.8071   -9.9488    0.3254 H       1  LIG1        0.0663
     55 O          -4.5845   -7.5882   -1.8148 O.3     1  LIG1       -0.4919
     56 H          -5.3288   -7.0465   -2.1097 H       1  LIG1        0.2937
     57 O          -6.2463  -12.1873    0.5465 O.3     1  LIG1       -0.4929
     58 C          -7.4747  -12.2976    1.2420 C.3     1  LIG1        0.0789
     59 H          -7.4978  -13.3070    1.6433 H       1  LIG1        0.0660
     60 H          -7.5207  -11.5700    2.0569 H       1  LIG1        0.0660
     61 H          -8.3207  -12.1548    0.5649 H       1  LIG1        0.0660
     62 C          -3.2813  -12.5383    0.8827 C.ar    1  LIG1       -0.0406
     63 C          -2.3089  -13.5414    0.8696 C.ar    1  LIG1       -0.0504
     64 C          -3.5891  -11.9002   -0.3260 C.ar    1  LIG1        0.0070
     65 C          -1.6431  -13.9110   -0.2980 C.ar    1  LIG1       -0.0143
     66 H          -2.0655  -14.0514    1.7953 H       1  LIG1        0.0626
     67 C          -2.9039  -12.2431   -1.4955 C.ar    1  LIG1       -0.0516
     68 C          -1.9444  -13.2437   -1.4916 C.ar    1  LIG1       -0.0533
     69 H          -3.1293  -11.7013   -2.4050 H       1  LIG1        0.0624
     70 C          -3.9316  -12.1720    2.2054 C.3     1  LIG1       -0.0391
     71 H          -3.1912  -12.2331    3.0033 H       1  LIG1        0.0278
     72 H          -4.7468  -12.8632    2.4241 H       1  LIG1        0.0278
     73 H          -4.3343  -11.1590    2.1774 H       1  LIG1        0.0278
     74 H          -1.4155  -13.5046   -2.3999 H       1  LIG1        0.0624
     75 C          -0.6512  -16.0873   -1.1369 C.ar    1  LIG1        0.1246
     76 C          -0.5985  -14.9740   -0.2644 C.ar    1  LIG1        0.0217
     77 C           0.4724  -14.9192    0.6134 C.ar    1  LIG1       -0.0487
     78 C           1.4418  -15.9197    0.6219 C.ar    1  LIG1       -0.0349
     79 C           1.2955  -16.9807   -0.2682 C.ar    1  LIG1        0.0765
     80 N           0.2688  -17.0464   -1.1248 N.ar    1  LIG1       -0.2317
     81 H           0.5583  -14.0673    1.2775 H       1  LIG1        0.0625
     82 N          -1.6599  -16.2221   -2.0621 N.pl3   1  LIG1       -0.3426
     83 H          -1.7548  -17.1527   -2.4402 H       1  LIG1        0.1437
     84 H          -2.5175  -15.7191   -1.8859 H       1  LIG1        0.1437
     85 H           2.3023  -15.8571    1.2707 H       1  LIG1        0.0639
     86 C           2.6311  -18.7944   -1.4781 C.ar    1  LIG1        0.1256
     87 C           2.2813  -18.1003   -0.2868 C.ar    1  LIG1        0.0434
     88 C           2.9022  -18.4898    0.8903 C.ar    1  LIG1       -0.0062
     89 C           3.8516  -19.5071    0.8812 C.ar    1  LIG1        0.1356
     90 C           4.1339  -20.1112   -0.3335 C.ar    1  LIG1        0.0711
     91 N           3.5372  -19.7690   -1.4716 N.ar    1  LIG1       -0.2364
     92 H           2.6478  -18.0274    1.8356 H       1  LIG1        0.0662
     93 H           4.8655  -20.9120   -0.3948 H       1  LIG1        0.0867
     94 N           2.0940  -18.4639   -2.6948 N.pl3   1  LIG1       -0.3426
     95 H           2.2852  -19.1365   -3.4215 H       1  LIG1        0.1437
     96 H           1.1799  -18.0325   -2.6676 H       1  LIG1        0.1437
     97 O           4.4451  -19.8593    2.0628 O.3     1  LIG1       -0.5052
     98 H           5.0724  -20.5755    1.9190 H       1  LIG1        0.2922
@<TRIPOS>BOND
     1    95    94    1
     2    94    96    1
     3    94    86    1
     4    83    82    1
     5    69    67    1
     6    74    68    1
     7    45    44    1
     8    56    55    1
     9    82    84    1
    10    82    75    1
    11    44    43    3
    12    47    46    1
    13    55    48    1
    14    43    38    1
    15    46    39    1
    16    67    68   ar
    17    67    64   ar
    18    68    65   ar
    19    86    91   ar
    20    86    87   ar
    21    91    90   ar
    22    24    23    1
    23    36    33    1
    24    39    38   ar
    25    39    40   ar
    26    38    37   ar
    27    48    53   ar
    28    48    49   ar
    29    25    23    1
    30    75    80   ar
    31    75    76   ar
    32    80    79   ar
    33    53    52   ar
    34    40    49    1
    35    40    41   ar
    36    37    41   ar
    37    37    29    1
    38    23    20    1
    39    49    50   ar
    40    34    33    1
    41    32    33    1
    42    32    28    1
    43    41    42    1
    44    29    28   ar
    45    29    30   ar
    46    33    35    1
    47    52    64    1
    48    52    51   ar
    49    28    27   ar
    50    93    90    1
    51    90    89   ar
    52    64    62   ar
    53    65    76    1
    54    65    63   ar
    55    87    79    1
    56    87    88   ar
    57    30    26   ar
    58    79    78   ar
    59    76    77   ar
    60    27    26   ar
    61    27    31    1
    62    20    19   ar
    63    20    17   ar
    64    21    19    1
    65    50    51   ar
    66    50    54    1
    67    26    17    1
    68    51    57    1
    69    19    16   ar
    70    17    15   ar
    71    13    12    1
    72    57    58    1
    73    61    58    1
    74    77    78   ar
    75    77    81    1
    76    78    85    1
    77    10     8    1
    78    16     4    1
    79    16    14   ar
    80    63    62   ar
    81    63    66    1
    82    89    88   ar
    83    89    97    1
    84    62    70    1
    85    12     3    1
    86    88    92    1
    87    15    18    1
    88    15    14   ar
    89     4     3   ar
    90     4     5   ar
    91     3     2   ar
    92    14    22    1
    93    58    59    1
    94    58    60    1
    95     5     6    1
    96     5     1   ar
    97     2     8    1
    98     2     1   ar
    99     8    11    1
   100     8     9    1
   101     1     7    1
   102    98    97    1
   103    73    70    1
   104    70    72    1
   105    70    71    1
