@<TRIPOS>MOLECULE
mol_data/opt/m06hf/geoms/mol2/13if13if.out
 26 27 0 0 0
SMALL
GASTEIGER

@<TRIPOS>ATOM
      1 C           1.0856   -0.1893    0.7814 C.ar    1  LIG1        0.0087
      2 C           0.7970    0.9396    0.0498 C.ar    1  LIG1        0.0090
      3 C          -0.5575    0.7967   -0.3591 C.ar    1  LIG1        0.1463
      4 C          -1.0462   -0.3925    0.1278 C.ar    1  LIG1        0.1055
      5 N          -0.0162   -0.9912    0.8201 N.ar    1  LIG1       -0.3563
      6 H          -0.1169   -1.8262    1.3723 H       1  LIG1        0.1655
      7 H           2.0006   -0.4699    1.2755 H       1  LIG1        0.0811
      8 C           1.6977    2.1002   -0.2838 C.3     1  LIG1       -0.0348
      9 H           1.2780    3.0296    0.1029 H       1  LIG1        0.0279
     10 H           1.8037    2.2020   -1.3647 H       1  LIG1        0.0279
     11 H           2.6846    1.9506    0.1542 H       1  LIG1        0.0279
     12 O          -1.2225    1.7043   -1.1271 O.3     1  LIG1       -0.5043
     13 H          -2.0928    1.3430   -1.3412 H       1  LIG1        0.2922
     14 C          -2.3824   -0.9567   -0.0491 C.ar    1  LIG1        0.0730
     15 C          -3.6118   -0.3680    0.1779 C.ar    1  LIG1        0.0178
     16 C          -4.5842   -1.3265   -0.2227 C.ar    1  LIG1        0.1376
     17 C          -3.9380   -2.4536   -0.6653 C.ar    1  LIG1        0.0445
     18 N          -2.5915   -2.2114   -0.5524 N.ar    1  LIG1       -0.3561
     19 H          -1.8577   -2.8062   -0.8996 H       1  LIG1        0.1655
     20 H          -4.3214   -3.3874   -1.0387 H       1  LIG1        0.0844
     21 C          -3.8975    0.9816    0.7858 C.3     1  LIG1       -0.0342
     22 H          -4.6012    0.8715    1.6116 H       1  LIG1        0.0279
     23 H          -4.3461    1.6565    0.0540 H       1  LIG1        0.0279
     24 H          -2.9724    1.4237    1.1570 H       1  LIG1        0.0279
     25 O          -5.9246   -1.0799   -0.1213 O.3     1  LIG1       -0.5050
     26 H          -6.4267   -1.8371   -0.4376 H       1  LIG1        0.2922
@<TRIPOS>BOND
     1    10     8    1
     2    13    12    1
     3    12     3    1
     4    20    17    1
     5    19    18    1
     6    17    18   ar
     7    17    16   ar
     8    18    14   ar
     9    26    25    1
    10     3     2   ar
    11     3     4   ar
    12     8     2    1
    13     8     9    1
    14     8    11    1
    15    16    25    1
    16    16    15   ar
    17    14     4    1
    18    14    15   ar
    19     2     1   ar
    20    23    21    1
    21     4     5   ar
    22    15    21    1
    23     1     5   ar
    24     1     7    1
    25    21    24    1
    26    21    22    1
    27     5     6    1
