@<TRIPOS>MOLECULE
mol_data/opt/m06hf/geoms/mol2/13if13if-13if-13if-.out
 50 53 0 0 0
SMALL
GASTEIGER

@<TRIPOS>ATOM
      1 C           1.3526   -0.2994    0.3051 C.ar    1  LIG1        0.0087
      2 C           0.8817    0.8510    0.8935 C.ar    1  LIG1        0.0090
      3 C          -0.5347    0.7673    0.8129 C.ar    1  LIG1        0.1463
      4 C          -0.8825   -0.4077    0.1848 C.ar    1  LIG1        0.1055
      5 N           0.2905   -1.0432   -0.1214 N.ar    1  LIG1       -0.3563
      6 H           0.3488   -1.9238   -0.6043 H       1  LIG1        0.1655
      7 H           2.3656   -0.6326    0.1557 H       1  LIG1        0.0811
      8 C           1.6703    1.9857    1.4964 C.3     1  LIG1       -0.0348
      9 H           1.4999    2.0592    2.5733 H       1  LIG1        0.0279
     10 H           1.3817    2.9329    1.0382 H       1  LIG1        0.0279
     11 H           2.7362    1.8305    1.3332 H       1  LIG1        0.0279
     12 O          -1.4487    1.7125    1.2366 O.3     1  LIG1       -0.5043
     13 H          -1.2843    1.9183    2.1641 H       1  LIG1        0.2922
     14 C          -2.2086   -0.9186   -0.1322 C.ar    1  LIG1        0.0735
     15 C          -2.6289   -2.1295   -0.6613 C.ar    1  LIG1        0.0185
     16 C          -4.0421   -2.0459   -0.7206 C.ar    1  LIG1        0.1470
     17 C          -4.4419   -0.8201   -0.2325 C.ar    1  LIG1        0.1060
     18 N          -3.2990   -0.1421    0.1130 N.ar    1  LIG1       -0.3486
     19 H          -3.2347    0.7591    0.5680 H       1  LIG1        0.1661
     20 C          -1.8066   -3.3145   -1.1020 C.3     1  LIG1       -0.0342
     21 H          -1.1820   -3.6899   -0.2872 H       1  LIG1        0.0279
     22 H          -1.1725   -3.0670   -1.9579 H       1  LIG1        0.0279
     23 H          -2.4816   -4.1130   -1.4074 H       1  LIG1        0.0279
     24 O          -4.8496   -3.0325   -1.2062 O.3     1  LIG1       -0.5043
     25 H          -5.7394   -2.6694   -1.3067 H       1  LIG1        0.2922
     26 C          -5.7980   -0.2902   -0.1374 C.ar    1  LIG1        0.0735
     27 C          -6.9335   -0.8874    0.3838 C.ar    1  LIG1        0.0185
     28 C          -7.9912    0.0445    0.1868 C.ar    1  LIG1        0.1470
     29 C          -7.4870    1.1700   -0.4247 C.ar    1  LIG1        0.1060
     30 N          -6.1455    0.9426   -0.6153 N.ar    1  LIG1       -0.3486
     31 H          -5.5002    1.6068   -1.0131 H       1  LIG1        0.1661
     32 C          -7.0287   -2.2146    1.0950 C.3     1  LIG1       -0.0342
     33 H          -6.0279   -2.5743    1.3353 H       1  LIG1        0.0279
     34 H          -7.5283   -2.9753    0.4885 H       1  LIG1        0.0279
     35 H          -7.5948   -2.0937    2.0201 H       1  LIG1        0.0279
     36 O          -9.2953   -0.1037    0.5793 O.3     1  LIG1       -0.5043
     37 H          -9.5961   -0.9910    0.3542 H       1  LIG1        0.2922
     38 C          -8.1530    2.4009   -0.8405 C.ar    1  LIG1        0.0730
     39 C          -9.0534    3.1887   -0.1573 C.ar    1  LIG1        0.0178
     40 C          -9.3764    4.2622   -1.0373 C.ar    1  LIG1        0.1376
     41 C          -8.6721    4.1069   -2.2032 C.ar    1  LIG1        0.0445
     42 N          -7.9180    2.9718   -2.0648 N.ar    1  LIG1       -0.3561
     43 H          -7.3862    2.5349   -2.7994 H       1  LIG1        0.1655
     44 H          -8.6513    4.7141   -3.0896 H       1  LIG1        0.0844
     45 C          -9.5708    2.9894    1.2432 C.3     1  LIG1       -0.0342
     46 H          -8.8640    2.3876    1.8143 H       1  LIG1        0.0279
     47 H         -10.5263    2.4617    1.2400 H       1  LIG1        0.0279
     48 H          -9.6953    3.9572    1.7318 H       1  LIG1        0.0279
     49 O         -10.2016    5.3213   -0.7535 O.3     1  LIG1       -0.5050
     50 H         -11.0139    4.9852   -0.3593 H       1  LIG1        0.2922
@<TRIPOS>BOND
     1    44    41    1
     2    43    42    1
     3    41    42   ar
     4    41    40   ar
     5    42    38   ar
     6    22    20    1
     7    23    20    1
     8    25    24    1
     9    24    16    1
    10    20    15    1
    11    20    21    1
    12    40    49    1
    13    40    39   ar
    14    31    30    1
    15    38    29    1
    16    38    39   ar
    17    49    50    1
    18    16    15   ar
    19    16    17   ar
    20    15    14   ar
    21    30    29   ar
    22    30    26   ar
    23     6     5    1
    24    29    28   ar
    25    17    26    1
    26    17    18   ar
    27    39    45    1
    28    26    27   ar
    29    14    18   ar
    30    14     4    1
    31     5     4   ar
    32     5     1   ar
    33    18    19    1
    34     7     1    1
    35     4     3   ar
    36    28    27   ar
    37    28    36    1
    38     1     2   ar
    39    37    36    1
    40    27    32    1
    41    34    32    1
    42     3     2   ar
    43     3    12    1
    44     2     8    1
    45    10     8    1
    46    32    33    1
    47    32    35    1
    48    12    13    1
    49    47    45    1
    50    45    48    1
    51    45    46    1
    52    11     8    1
    53     8     9    1
