@<TRIPOS>MOLECULE
mol_data/opt/m06hf/geoms/mol2/13ig13ig13ig-13ig-.out
 50 53 0 0 0
SMALL
GASTEIGER

@<TRIPOS>ATOM
      1 C           0.2938    0.5608    2.3477 C.ar    1  LIG1        0.0062
      2 C           0.7592    0.9656    1.1189 C.ar    1  LIG1       -0.0193
      3 C          -0.2152    0.5434    0.1661 C.ar    1  LIG1        0.0344
      4 C          -1.2299   -0.0947    0.8452 C.ar    1  LIG1        0.0768
      5 N          -0.8961   -0.0805    2.1769 N.ar    1  LIG1       -0.3584
      6 H          -1.5028   -0.4046    2.9129 H       1  LIG1        0.1654
      7 H           0.7288    0.6897    3.3244 H       1  LIG1        0.0810
      8 C           2.0418    1.6968    0.8157 C.3     1  LIG1       -0.0372
      9 H           1.8328    2.6415    0.3104 H       1  LIG1        0.0278
     10 H           2.6820    1.0957    0.1671 H       1  LIG1        0.0278
     11 H           2.5819    1.9079    1.7382 H       1  LIG1        0.0278
     12 S          -0.0679    0.7819   -1.5800 S.3     1  LIG1       -0.1403
     13 H          -1.2082    0.1421   -1.8771 H       1  LIG1        0.1072
     14 C          -2.4571   -0.7148    0.3374 C.ar    1  LIG1        0.0685
     15 C          -3.5090   -0.1506   -0.3598 C.ar    1  LIG1       -0.0099
     16 C          -4.4205   -1.2092   -0.6369 C.ar    1  LIG1        0.0351
     17 C          -3.9091   -2.3701   -0.0938 C.ar    1  LIG1        0.0772
     18 N          -2.7119   -2.0499    0.4898 N.ar    1  LIG1       -0.3508
     19 H          -2.1061   -2.7021    0.9632 H       1  LIG1        0.1660
     20 C          -3.6710    1.2999   -0.7335 C.3     1  LIG1       -0.0366
     21 H          -4.6129    1.6860   -0.3394 H       1  LIG1        0.0279
     22 H          -3.6783    1.4222   -1.8191 H       1  LIG1        0.0279
     23 H          -2.8466    1.8812   -0.3201 H       1  LIG1        0.0279
     24 S          -5.9133   -1.0121   -1.5625 S.3     1  LIG1       -0.1403
     25 H          -6.2440   -2.3099   -1.5208 H       1  LIG1        0.1072
     26 C          -4.4472   -3.7332   -0.1111 C.ar    1  LIG1        0.0685
     27 C          -5.6422   -4.2189    0.3858 C.ar    1  LIG1       -0.0099
     28 C          -5.6714   -5.6077    0.0720 C.ar    1  LIG1        0.0351
     29 C          -4.5011   -5.9253   -0.5867 C.ar    1  LIG1        0.0772
     30 N          -3.7715   -4.7704   -0.6918 N.ar    1  LIG1       -0.3508
     31 H          -2.8699   -4.6976   -1.1370 H       1  LIG1        0.1660
     32 C          -6.6937   -3.4441    1.1371 C.3     1  LIG1       -0.0366
     33 H          -6.8872   -3.9156    2.1025 H       1  LIG1        0.0279
     34 H          -7.6308   -3.4178    0.5768 H       1  LIG1        0.0279
     35 H          -6.3543   -2.4210    1.3013 H       1  LIG1        0.0279
     36 S          -7.0216   -6.6809    0.4585 S.3     1  LIG1       -0.1403
     37 H          -6.4793   -7.7618   -0.1226 H       1  LIG1        0.1072
     38 C          -4.0382   -7.2093   -1.1224 C.ar    1  LIG1        0.0680
     39 C          -3.7692   -8.3951   -0.4723 C.ar    1  LIG1       -0.0106
     40 C          -3.3670   -9.3220   -1.4817 C.ar    1  LIG1        0.0256
     41 C          -3.4094   -8.6732   -2.6941 C.ar    1  LIG1        0.0157
     42 N          -3.8162   -7.3981   -2.4669 N.ar    1  LIG1       -0.3583
     43 H          -4.0090   -6.7061   -3.1739 H       1  LIG1        0.1654
     44 H          -3.1848   -9.0403   -3.6809 H       1  LIG1        0.0818
     45 C          -3.8559   -8.6478    1.0102 C.3     1  LIG1       -0.0366
     46 H          -2.8901   -8.9768    1.3969 H       1  LIG1        0.0279
     47 H          -4.5877   -9.4295    1.2205 H       1  LIG1        0.0279
     48 H          -4.1533   -7.7331    1.5233 H       1  LIG1        0.0279
     49 S          -2.9606  -11.0303   -1.2571 S.3     1  LIG1       -0.1409
     50 H          -1.7463  -10.8471   -0.7234 H       1  LIG1        0.1072
@<TRIPOS>BOND
     1    44    41    1
     2    43    42    1
     3    41    42   ar
     4    41    40   ar
     5    42    38   ar
     6    13    12    1
     7    22    20    1
     8    12     3    1
     9    24    25    1
    10    24    16    1
    11    40    49    1
    12    40    39   ar
    13    49    50    1
    14    31    30    1
    15    38    29    1
    16    38    39   ar
    17    20    15    1
    18    20    21    1
    19    20    23    1
    20    30    29   ar
    21    30    26   ar
    22    16    15   ar
    23    16    17   ar
    24    29    28   ar
    25    39    45    1
    26    15    14   ar
    27    37    36    1
    28    26    17    1
    29    26    27   ar
    30    17    18   ar
    31    28    27   ar
    32    28    36    1
    33     3     4   ar
    34     3     2   ar
    35    10     8    1
    36     9     8    1
    37    14    18   ar
    38    14     4    1
    39    27    32    1
    40    18    19    1
    41    34    32    1
    42     8     2    1
    43     8    11    1
    44     4     5   ar
    45    45    47    1
    46    45    46    1
    47    45    48    1
    48     2     1   ar
    49    32    35    1
    50    32    33    1
    51     5     1   ar
    52     5     6    1
    53     1     7    1
