@<TRIPOS>MOLECULE
mol_data/opt/m06hf/geoms/mol2/13ig13ig13ig.out
 38 40 0 0 0
SMALL
GASTEIGER

@<TRIPOS>ATOM
      1 C           0.7990    0.0969    1.5580 C.ar    1  LIG1        0.0062
      2 C           0.8579    0.9157    0.4553 C.ar    1  LIG1       -0.0193
      3 C          -0.3600    0.7103   -0.2584 C.ar    1  LIG1        0.0344
      4 C          -1.1104   -0.2158    0.4328 C.ar    1  LIG1        0.0768
      5 N          -0.3802   -0.5856    1.5350 N.ar    1  LIG1       -0.3584
      6 H          -0.7276   -1.1910    2.2611 H       1  LIG1        0.1654
      7 H           1.5141   -0.0411    2.3517 H       1  LIG1        0.0810
      8 C           1.9799    1.8405    0.0579 C.3     1  LIG1       -0.0372
      9 H           1.6226    2.8698   -0.0082 H       1  LIG1        0.0278
     10 H           2.3854    1.5554   -0.9145 H       1  LIG1        0.0278
     11 H           2.7809    1.7978    0.7957 H       1  LIG1        0.0278
     12 S          -0.7719    1.5077   -1.7829 S.3     1  LIG1       -0.1403
     13 H          -1.8749    0.7784   -1.9970 H       1  LIG1        0.1072
     14 C          -2.4295   -0.7772    0.1307 C.ar    1  LIG1        0.0685
     15 C          -3.6485   -0.1419   -0.0115 C.ar    1  LIG1       -0.0099
     16 C          -4.5974   -1.1578   -0.3209 C.ar    1  LIG1        0.0351
     17 C          -3.9379   -2.3700   -0.3444 C.ar    1  LIG1        0.0772
     18 N          -2.6190   -2.1167   -0.0734 N.ar    1  LIG1       -0.3508
     19 H          -1.8931   -2.8155   -0.0334 H       1  LIG1        0.1660
     20 C          -3.9221    1.3306    0.1512 C.3     1  LIG1       -0.0366
     21 H          -4.7041    1.4879    0.8965 H       1  LIG1        0.0279
     22 H          -4.2544    1.7687   -0.7926 H       1  LIG1        0.0279
     23 H          -3.0133    1.8393    0.4725 H       1  LIG1        0.0279
     24 S          -6.3106   -0.8477   -0.6259 S.3     1  LIG1       -0.1403
     25 H          -6.6096   -2.1212   -0.9175 H       1  LIG1        0.1072
     26 C          -4.4504   -3.7149   -0.6235 C.ar    1  LIG1        0.0680
     27 C          -5.4241   -4.4470    0.0224 C.ar    1  LIG1       -0.0106
     28 C          -5.5485   -5.6730   -0.7010 C.ar    1  LIG1        0.0256
     29 C          -4.6559   -5.6401   -1.7472 C.ar    1  LIG1        0.0157
     30 N          -3.9970   -4.4544   -1.6915 N.ar    1  LIG1       -0.3583
     31 H          -3.3378   -4.1147   -2.3745 H       1  LIG1        0.1654
     32 H          -4.4651   -6.3706   -2.5146 H       1  LIG1        0.0818
     33 C          -6.1791   -4.0463    1.2631 C.3     1  LIG1       -0.0366
     34 H          -5.9939   -4.7622    2.0658 H       1  LIG1        0.0279
     35 H          -7.2525   -4.0298    1.0671 H       1  LIG1        0.0279
     36 H          -5.8599   -3.0557    1.5871 H       1  LIG1        0.0279
     37 S          -6.7115   -6.9726   -0.4034 S.3     1  LIG1       -0.1409
     38 H          -6.0951   -7.5415    0.6407 H       1  LIG1        0.1072
@<TRIPOS>BOND
     1    32    29    1
     2    31    30    1
     3    13    12    1
     4    12     3    1
     5    29    30   ar
     6    29    28   ar
     7    30    26   ar
     8    25    24    1
     9    10     8    1
    10    22    20    1
    11    28    37    1
    12    28    27   ar
    13    24    16    1
    14    26    17    1
    15    26    27   ar
    16    37    38    1
    17    17    16   ar
    18    17    18   ar
    19    16    15   ar
    20     3     4   ar
    21     3     2   ar
    22    18    19    1
    23    18    14   ar
    24    15    14   ar
    25    15    20    1
    26     9     8    1
    27    27    33    1
    28     8     2    1
    29     8    11    1
    30    14     4    1
    31    20    23    1
    32    20    21    1
    33     4     5   ar
    34     2     1   ar
    35    35    33    1
    36    33    36    1
    37    33    34    1
    38     5     1   ar
    39     5     6    1
    40     1     7    1
