@<TRIPOS>MOLECULE
mol_data/opt/m06hf/geoms/mol2/13ig13ig-13ig13ig.out
 50 53 0 0 0
SMALL
GASTEIGER

@<TRIPOS>ATOM
      1 C           0.2210    0.4176    2.6962 C.ar    1  LIG1        0.0062
      2 C           0.7187    0.8928    1.5060 C.ar    1  LIG1       -0.0193
      3 C          -0.2288    0.5260    0.5043 C.ar    1  LIG1        0.0344
      4 C          -1.2603   -0.1505    1.1176 C.ar    1  LIG1        0.0768
      5 N          -0.9627   -0.2132    2.4565 N.ar    1  LIG1       -0.3584
      6 H          -1.5886   -0.5793    3.1558 H       1  LIG1        0.1654
      7 H           0.6290    0.4899    3.6903 H       1  LIG1        0.0810
      8 C           2.0077    1.6406    1.2804 C.3     1  LIG1       -0.0372
      9 H           1.8107    2.6129    0.8250 H       1  LIG1        0.0278
     10 H           2.6663    1.0782    0.6159 H       1  LIG1        0.0278
     11 H           2.5221    1.7983    2.2280 H       1  LIG1        0.0278
     12 S          -0.0346    0.8650   -1.2205 S.3     1  LIG1       -0.1403
     13 H          -1.1653    0.2431   -1.5849 H       1  LIG1        0.1072
     14 C          -2.4721   -0.7406    0.5417 C.ar    1  LIG1        0.0685
     15 C          -3.5058   -0.1374   -0.1501 C.ar    1  LIG1       -0.0099
     16 C          -4.4075   -1.1785   -0.5124 C.ar    1  LIG1        0.0351
     17 C          -3.9088   -2.3686   -0.0236 C.ar    1  LIG1        0.0772
     18 N          -2.7285   -2.0824    0.6098 N.ar    1  LIG1       -0.3508
     19 H          -2.1345   -2.7606    1.0610 H       1  LIG1        0.1660
     20 C          -3.6603    1.3322   -0.4437 C.3     1  LIG1       -0.0366
     21 H          -4.6132    1.6946   -0.0536 H       1  LIG1        0.0279
     22 H          -3.6385    1.5170   -1.5202 H       1  LIG1        0.0279
     23 H          -2.8485    1.8890    0.0247 H       1  LIG1        0.0279
     24 S          -5.8750   -0.9287   -1.4653 S.3     1  LIG1       -0.1403
     25 H          -6.2043   -2.2269   -1.5076 H       1  LIG1        0.1072
     26 C          -4.4437   -3.7286   -0.1342 C.ar    1  LIG1        0.0685
     27 C          -5.6508   -4.2427    0.3013 C.ar    1  LIG1       -0.0099
     28 C          -5.6688   -5.6110   -0.0930 C.ar    1  LIG1        0.0351
     29 C          -4.4806   -5.8897   -0.7369 C.ar    1  LIG1        0.0772
     30 N          -3.7506   -4.7304   -0.7552 N.ar    1  LIG1       -0.3508
     31 H          -2.8374   -4.6318   -1.1708 H       1  LIG1        0.1660
     32 C          -6.7236   -3.5129    1.0672 C.3     1  LIG1       -0.0366
     33 H          -6.9424   -4.0394    1.9981 H       1  LIG1        0.0279
     34 H          -7.6454   -3.4545    0.4841 H       1  LIG1        0.0279
     35 H          -6.3908   -2.5009    1.2993 H       1  LIG1        0.0279
     36 S          -7.0271   -6.7052    0.1942 S.3     1  LIG1       -0.1403
     37 H          -6.4672   -7.7505   -0.4334 H       1  LIG1        0.1072
     38 C          -4.0009   -7.1404   -1.3331 C.ar    1  LIG1        0.0680
     39 C          -3.7474   -8.3617   -0.7454 C.ar    1  LIG1       -0.0106
     40 C          -3.3162   -9.2286   -1.7953 C.ar    1  LIG1        0.0256
     41 C          -3.3270   -8.5109   -2.9690 C.ar    1  LIG1        0.0157
     42 N          -3.7422   -7.2512   -2.6797 N.ar    1  LIG1       -0.3583
     43 H          -3.9171   -6.5195   -3.3505 H       1  LIG1        0.1654
     44 H          -3.0751   -8.8203   -3.9689 H       1  LIG1        0.0818
     45 C          -3.8738   -8.6997    0.7171 C.3     1  LIG1       -0.0366
     46 H          -2.9182   -9.0501    1.1103 H       1  LIG1        0.0279
     47 H          -4.6095   -9.4924    0.8620 H       1  LIG1        0.0279
     48 H          -4.1867   -7.8162    1.2740 H       1  LIG1        0.0279
     49 S          -2.9129  -10.9469   -1.6588 S.3     1  LIG1       -0.1409
     50 H          -1.7138  -10.7945   -1.0827 H       1  LIG1        0.1072
@<TRIPOS>BOND
     1    44    41    1
     2    43    42    1
     3    41    42   ar
     4    41    40   ar
     5    42    38   ar
     6    40    49    1
     7    40    39   ar
     8    49    50    1
     9    13    12    1
    10    22    20    1
    11    25    24    1
    12    24    16    1
    13    38    39   ar
    14    38    29    1
    15    12     3    1
    16    31    30    1
    17    30    29   ar
    18    30    26   ar
    19    39    45    1
    20    29    28   ar
    21    16    15   ar
    22    16    17   ar
    23    20    15    1
    24    20    21    1
    25    20    23    1
    26    37    36    1
    27    15    14   ar
    28    26    17    1
    29    26    27   ar
    30    28    36    1
    31    28    27   ar
    32    17    18   ar
    33    27    32    1
    34    34    32    1
    35     3     4   ar
    36     3     2   ar
    37    14    18   ar
    38    14     4    1
    39    18    19    1
    40    10     8    1
    41    45    47    1
    42    45    46    1
    43    45    48    1
    44     9     8    1
    45    32    35    1
    46    32    33    1
    47     4     5   ar
    48     8     2    1
    49     8    11    1
    50     2     1   ar
    51     5     1   ar
    52     5     6    1
    53     1     7    1
