@<TRIPOS>MOLECULE
mol_data/opt/m06hf/geoms/mol2/13ig13ig.out
 26 27 0 0 0
SMALL
GASTEIGER

@<TRIPOS>ATOM
      1 C           1.0286   -0.1875    0.8674 C.ar    1  LIG1        0.0062
      2 C           0.8191    0.9379    0.1062 C.ar    1  LIG1       -0.0193
      3 C          -0.5065    0.8283   -0.4094 C.ar    1  LIG1        0.0344
      4 C          -1.0525   -0.3470    0.0576 C.ar    1  LIG1        0.0767
      5 N          -0.0953   -0.9568    0.8301 N.ar    1  LIG1       -0.3584
      6 H          -0.2535   -1.7985    1.3595 H       1  LIG1        0.1654
      7 H           1.8976   -0.4862    1.4293 H       1  LIG1        0.0810
      8 C           1.7852    2.0655   -0.1522 C.3     1  LIG1       -0.0372
      9 H           1.3697    3.0126    0.1969 H       1  LIG1        0.0278
     10 H           1.9930    2.1564   -1.2200 H       1  LIG1        0.0278
     11 H           2.7240    1.8842    0.3708 H       1  LIG1        0.0278
     12 S          -1.2496    2.0090   -1.4957 S.3     1  LIG1       -0.1403
     13 H          -2.3869    1.3186   -1.6551 H       1  LIG1        0.1072
     14 C          -2.3732   -0.9372   -0.1816 C.ar    1  LIG1        0.0680
     15 C          -3.6304   -0.4667    0.1330 C.ar    1  LIG1       -0.0106
     16 C          -4.5555   -1.4379   -0.3592 C.ar    1  LIG1        0.0256
     17 C          -3.8344   -2.4509   -0.9475 C.ar    1  LIG1        0.0157
     18 N          -2.5178   -2.1378   -0.8372 N.ar    1  LIG1       -0.3583
     19 H          -1.7517   -2.6518   -1.2427 H       1  LIG1        0.1654
     20 H          -4.1767   -3.3485   -1.4333 H       1  LIG1        0.0818
     21 C          -3.9548    0.8007    0.8797 C.3     1  LIG1       -0.0366
     22 H          -4.4695    0.5704    1.8143 H       1  LIG1        0.0279
     23 H          -4.6084    1.4375    0.2814 H       1  LIG1        0.0279
     24 H          -3.0355    1.3415    1.1054 H       1  LIG1        0.0279
     25 S          -6.3223   -1.3432   -0.3367 S.3     1  LIG1       -0.1409
     26 H          -6.4962   -1.5240    0.9796 H       1  LIG1        0.1072
@<TRIPOS>BOND
     1    13    12    1
     2    12     3    1
     3    20    17    1
     4    19    18    1
     5    10     8    1
     6    17    18   ar
     7    17    16   ar
     8    18    14   ar
     9     3     4   ar
    10     3     2   ar
    11    16    25    1
    12    16    15   ar
    13    25    26    1
    14    14     4    1
    15    14    15   ar
    16     8     2    1
    17     8     9    1
    18     8    11    1
    19     4     5   ar
    20     2     1   ar
    21    15    21    1
    22    23    21    1
    23     5     1   ar
    24     5     6    1
    25     1     7    1
    26    21    24    1
    27    21    22    1
