@<TRIPOS>MOLECULE
mol_data/opt/m06hf/geoms/mol2/13ig.out
 14 14 0 0 0
SMALL
GASTEIGER

@<TRIPOS>ATOM
      1 C           1.0870   -0.4464    0.1554 C.ar    1  LIG1        0.0056
      2 C           0.6274    0.8350   -0.0120 C.ar    1  LIG1       -0.0200
      3 C          -0.7797    0.7238   -0.2496 C.ar    1  LIG1        0.0250
      4 C          -1.1094   -0.6094   -0.2239 C.ar    1  LIG1        0.0152
      5 N           0.0314   -1.3093    0.0211 N.ar    1  LIG1       -0.3658
      6 H           0.0917   -2.3118    0.0872 H       1  LIG1        0.1648
      7 H          -2.0624   -1.0896   -0.3667 H       1  LIG1        0.0818
      8 H           2.0817   -0.8062    0.3559 H       1  LIG1        0.0810
      9 C           1.4268    2.1110    0.0463 C.3     1  LIG1       -0.0373
     10 H           1.1225    2.7191    0.8999 H       1  LIG1        0.0278
     11 H           1.2684    2.6963   -0.8602 H       1  LIG1        0.0278
     12 H           2.4890    1.8854    0.1418 H       1  LIG1        0.0278
     13 S          -1.9051    2.0397   -0.6157 S.3     1  LIG1       -0.1409
     14 H          -1.9942    2.5444    0.6217 H       1  LIG1        0.1072
@<TRIPOS>BOND
     1    11     9    1
     2    13     3    1
     3    13    14    1
     4     7     4    1
     5     3     4   ar
     6     3     2   ar
     7     4     5   ar
     8     2     9    1
     9     2     1   ar
    10     5     6    1
    11     5     1   ar
    12     9    12    1
    13     9    10    1
    14     1     8    1
