@<TRIPOS>MOLECULE
mol_data/opt/m06hf/geoms/mol2/13ig13ig13ig-13ig.out
 50 53 0 0 0
SMALL
GASTEIGER

@<TRIPOS>ATOM
      1 C           0.2751    0.3189    2.7284 C.ar    1  LIG1        0.0062
      2 C           0.7564    0.8305    1.5465 C.ar    1  LIG1       -0.0193
      3 C          -0.2075    0.4991    0.5482 C.ar    1  LIG1        0.0344
      4 C          -1.2321   -0.1935    1.1552 C.ar    1  LIG1        0.0768
      5 N          -0.9144   -0.3001    2.4867 N.ar    1  LIG1       -0.3584
      6 H          -1.5309   -0.6865    3.1834 H       1  LIG1        0.1654
      7 H           0.6985    0.3580    3.7179 H       1  LIG1        0.0810
      8 C           2.0446    1.5811    1.3254 C.3     1  LIG1       -0.0372
      9 H           1.8443    2.5681    0.9044 H       1  LIG1        0.0278
     10 H           2.6910    1.0382    0.6331 H       1  LIG1        0.0278
     11 H           2.5739    1.7066    2.2695 H       1  LIG1        0.0278
     12 S          -0.0383    0.8927   -1.1676 S.3     1  LIG1       -0.1403
     13 H          -1.1767    0.2865   -1.5344 H       1  LIG1        0.1072
     14 C          -2.4547   -0.7609    0.5793 C.ar    1  LIG1        0.0685
     15 C          -3.4965   -0.1325   -0.0769 C.ar    1  LIG1       -0.0099
     16 C          -4.4075   -1.1586   -0.4585 C.ar    1  LIG1        0.0351
     17 C          -3.9057   -2.3654   -0.0158 C.ar    1  LIG1        0.0772
     18 N          -2.7149   -2.1033    0.6083 N.ar    1  LIG1       -0.3508
     19 H          -2.1166   -2.7976    1.0284 H       1  LIG1        0.1660
     20 C          -3.6500    1.3462   -0.3208 C.3     1  LIG1       -0.0366
     21 H          -4.5956    1.6990    0.0952 H       1  LIG1        0.0279
     22 H          -3.6439    1.5655   -1.3910 H       1  LIG1        0.0279
     23 H          -2.8292    1.8851    0.1528 H       1  LIG1        0.0279
     24 S          -5.8884   -0.8736   -1.3804 S.3     1  LIG1       -0.1403
     25 H          -6.2230   -2.1687   -1.4592 H       1  LIG1        0.1072
     26 C          -4.4472   -3.7194   -0.1618 C.ar    1  LIG1        0.0685
     27 C          -5.6494   -4.2433    0.2754 C.ar    1  LIG1       -0.0099
     28 C          -5.6785   -5.5982   -0.1622 C.ar    1  LIG1        0.0351
     29 C          -4.5012   -5.8599   -0.8328 C.ar    1  LIG1        0.0772
     30 N          -3.7673   -4.7029   -0.8252 N.ar    1  LIG1       -0.3508
     31 H          -2.8602   -4.5939   -1.2513 H       1  LIG1        0.1660
     32 C          -6.7079   -3.5351    1.0807 C.3     1  LIG1       -0.0366
     33 H          -6.9144   -4.0906    1.9975 H       1  LIG1        0.0279
     34 H          -7.6381   -3.4551    0.5139 H       1  LIG1        0.0279
     35 H          -6.3678   -2.5321    1.3400 H       1  LIG1        0.0279
     36 S          -7.0362   -6.6967    0.1105 S.3     1  LIG1       -0.1403
     37 H          -6.4898   -7.7231   -0.5588 H       1  LIG1        0.1072
     38 C          -4.0353   -7.0923   -1.4761 C.ar    1  LIG1        0.0680
     39 C          -3.7773   -8.3327   -0.9318 C.ar    1  LIG1       -0.0106
     40 C          -3.3654   -9.1668   -2.0155 C.ar    1  LIG1        0.0256
     41 C          -3.3914   -8.4117   -3.1652 C.ar    1  LIG1        0.0157
     42 N          -3.7974   -7.1606   -2.8293 N.ar    1  LIG1       -0.3583
     43 H          -3.9798   -6.4072   -3.4736 H       1  LIG1        0.1654
     44 H          -3.1558   -8.6897   -4.1783 H       1  LIG1        0.0818
     45 C          -3.8827   -8.7170    0.5209 C.3     1  LIG1       -0.0366
     46 H          -2.9226   -9.0830    0.8879 H       1  LIG1        0.0279
     47 H          -4.6190   -9.5117    0.6515 H       1  LIG1        0.0279
     48 H          -4.1839   -7.8509    1.1105 H       1  LIG1        0.0279
     49 S          -2.9663  -10.8898   -1.9403 S.3     1  LIG1       -0.1409
     50 H          -1.7581  -10.7598   -1.3781 H       1  LIG1        0.1072
@<TRIPOS>BOND
     1    44    41    1
     2    43    42    1
     3    41    42   ar
     4    41    40   ar
     5    42    38   ar
     6    40    49    1
     7    40    39   ar
     8    49    50    1
     9    13    12    1
    10    38    39   ar
    11    38    29    1
    12    25    24    1
    13    22    20    1
    14    24    16    1
    15    31    30    1
    16    12     3    1
    17    39    45    1
    18    29    30   ar
    19    29    28   ar
    20    30    26   ar
    21    37    36    1
    22    16    15   ar
    23    16    17   ar
    24    20    15    1
    25    20    21    1
    26    20    23    1
    27    28    36    1
    28    28    27   ar
    29    26    17    1
    30    26    27   ar
    31    15    14   ar
    32    17    18   ar
    33    27    32    1
    34    34    32    1
    35    45    47    1
    36    45    46    1
    37    45    48    1
    38     3     4   ar
    39     3     2   ar
    40    14    18   ar
    41    14     4    1
    42    18    19    1
    43    10     8    1
    44     9     8    1
    45    32    35    1
    46    32    33    1
    47     4     5   ar
    48     8     2    1
    49     8    11    1
    50     2     1   ar
    51     5     1   ar
    52     5     6    1
    53     1     7    1
