@<TRIPOS>MOLECULE
mol_data/opt/m06hf/geoms/mol2/13ig13ig-.out
 26 27 0 0 0
SMALL
GASTEIGER

@<TRIPOS>ATOM
      1 C           1.0110   -0.1903    0.9166 C.ar    1  LIG1        0.0062
      2 C           0.8150    0.9409    0.1604 C.ar    1  LIG1       -0.0193
      3 C          -0.5000    0.8335   -0.3824 C.ar    1  LIG1        0.0344
      4 C          -1.0533   -0.3463    0.0642 C.ar    1  LIG1        0.0767
      5 N          -0.1106   -0.9610    0.8508 N.ar    1  LIG1       -0.3584
      6 H          -0.2780   -1.8071    1.3701 H       1  LIG1        0.1654
      7 H           1.8691   -0.4922    1.4933 H       1  LIG1        0.0810
      8 C           1.7841    2.0719   -0.0696 C.3     1  LIG1       -0.0372
      9 H           1.3602    3.0156    0.2788 H       1  LIG1        0.0278
     10 H           2.0130    2.1718   -1.1322 H       1  LIG1        0.0278
     11 H           2.7126    1.8878    0.4705 H       1  LIG1        0.0278
     12 S          -1.2233    2.0218   -1.4737 S.3     1  LIG1       -0.1403
     13 H          -2.3560    1.3310   -1.6613 H       1  LIG1        0.1072
     14 C          -2.3679   -0.9365   -0.2059 C.ar    1  LIG1        0.0680
     15 C          -3.6320   -0.4704    0.0873 C.ar    1  LIG1       -0.0106
     16 C          -4.5455   -1.4390   -0.4310 C.ar    1  LIG1        0.0256
     17 C          -3.8111   -2.4461   -1.0130 C.ar    1  LIG1        0.0157
     18 N          -2.4975   -2.1320   -0.8739 N.ar    1  LIG1       -0.3583
     19 H          -1.7226   -2.6417   -1.2682 H       1  LIG1        0.1654
     20 H          -4.1422   -3.3403   -1.5127 H       1  LIG1        0.0818
     21 C          -3.9732    0.7904    0.8374 C.3     1  LIG1       -0.0366
     22 H          -4.5061    0.5518    1.7597 H       1  LIG1        0.0279
     23 H          -4.6157    1.4310    0.2314 H       1  LIG1        0.0279
     24 H          -3.0595    1.3307    1.0858 H       1  LIG1        0.0279
     25 S          -6.3125   -1.3471   -0.4430 S.3     1  LIG1       -0.1409
     26 H          -6.5123   -1.5388    0.8681 H       1  LIG1        0.1072
@<TRIPOS>BOND
     1    13    12    1
     2    20    17    1
     3    12     3    1
     4    19    18    1
     5    10     8    1
     6    17    18   ar
     7    17    16   ar
     8    18    14   ar
     9    25    16    1
    10    25    26    1
    11    16    15   ar
    12     3     4   ar
    13     3     2   ar
    14    14     4    1
    15    14    15   ar
    16     8     2    1
    17     8     9    1
    18     8    11    1
    19     4     5   ar
    20    15    21    1
    21     2     1   ar
    22    23    21    1
    23    21    24    1
    24    21    22    1
    25     5     1   ar
    26     5     6    1
    27     1     7    1
