@<TRIPOS>MOLECULE
mol_data/opt/m06hf/geoms/mol2/13ig13ig-13ig13ig-.out
 50 53 0 0 0
SMALL
GASTEIGER

@<TRIPOS>ATOM
      1 C           0.2573    0.4219    2.6422 C.ar    1  LIG1        0.0062
      2 C           0.7450    0.8895    1.4448 C.ar    1  LIG1       -0.0193
      3 C          -0.2131    0.5202    0.4541 C.ar    1  LIG1        0.0344
      4 C          -1.2407   -0.1501    1.0808 C.ar    1  LIG1        0.0768
      5 N          -0.9305   -0.2066    2.4171 N.ar    1  LIG1       -0.3584
      6 H          -1.5507   -0.5672    3.1242 H       1  LIG1        0.1654
      7 H           0.6750    0.4983    3.6319 H       1  LIG1        0.0810
      8 C           2.0339    1.6323    1.2030 C.3     1  LIG1       -0.0372
      9 H           1.8354    2.6028    0.7445 H       1  LIG1        0.0278
     10 H           2.6845    1.0645    0.5351 H       1  LIG1        0.0278
     11 H           2.5579    1.7934    2.1448 H       1  LIG1        0.0278
     12 S          -0.0344    0.8496   -1.2742 S.3     1  LIG1       -0.1403
     13 H          -1.1702    0.2291   -1.6246 H       1  LIG1        0.1072
     14 C          -2.4596   -0.7396    0.5196 C.ar    1  LIG1        0.0685
     15 C          -3.4981   -0.1370   -0.1655 C.ar    1  LIG1       -0.0099
     16 C          -4.4062   -1.1774   -0.5138 C.ar    1  LIG1        0.0351
     17 C          -3.9063   -2.3664   -0.0234 C.ar    1  LIG1        0.0772
     18 N          -2.7191   -2.0802    0.5972 N.ar    1  LIG1       -0.3508
     19 H          -2.1228   -2.7578    1.0463 H       1  LIG1        0.1660
     20 C          -3.6511    1.3314   -0.4654 C.3     1  LIG1       -0.0366
     21 H          -4.5993    1.6987   -0.0683 H       1  LIG1        0.0279
     22 H          -3.6390    1.5106   -1.5430 H       1  LIG1        0.0279
     23 H          -2.8334    1.8883   -0.0075 H       1  LIG1        0.0279
     24 S          -5.8820   -0.9283   -1.4540 S.3     1  LIG1       -0.1403
     25 H          -6.2155   -2.2257   -1.4860 H       1  LIG1        0.1072
     26 C          -4.4461   -3.7254   -0.1217 C.ar    1  LIG1        0.0685
     27 C          -5.6505   -4.2335    0.3279 C.ar    1  LIG1       -0.0099
     28 C          -5.6763   -5.6039   -0.0588 C.ar    1  LIG1        0.0351
     29 C          -4.4950   -5.8894   -0.7125 C.ar    1  LIG1        0.0772
     30 N          -3.7619   -4.7324   -0.7440 N.ar    1  LIG1       -0.3508
     31 H          -2.8524   -4.6387   -1.1687 H       1  LIG1        0.1660
     32 C          -6.7139   -3.4966    1.1001 C.3     1  LIG1       -0.0366
     33 H          -6.9254   -4.0175    2.0358 H       1  LIG1        0.0279
     34 H          -7.6410   -3.4385    0.5255 H       1  LIG1        0.0279
     35 H          -6.3760   -2.4843    1.3237 H       1  LIG1        0.0279
     36 S          -7.0349   -6.6925    0.2470 S.3     1  LIG1       -0.1403
     37 H          -6.4841   -7.7427   -0.3804 H       1  LIG1        0.1072
     38 C          -4.0247   -7.1447   -1.3066 C.ar    1  LIG1        0.0680
     39 C          -3.7691   -8.3636   -0.7149 C.ar    1  LIG1       -0.0106
     40 C          -3.3505   -9.2373   -1.7643 C.ar    1  LIG1        0.0256
     41 C          -3.3704   -8.5258   -2.9416 C.ar    1  LIG1        0.0157
     42 N          -3.7792   -7.2633   -2.6550 N.ar    1  LIG1       -0.3583
     43 H          -3.9583   -6.5347   -3.3281 H       1  LIG1        0.1654
     44 H          -3.1290   -8.8412   -3.9422 H       1  LIG1        0.0818
     45 C          -3.8824   -8.6935    0.7505 C.3     1  LIG1       -0.0366
     46 H          -2.9242   -9.0446    1.1364 H       1  LIG1        0.0279
     47 H          -4.6190   -9.4834    0.9066 H       1  LIG1        0.0279
     48 H          -4.1876   -7.8062    1.3056 H       1  LIG1        0.0279
     49 S          -2.9509  -10.9561   -1.6225 S.3     1  LIG1       -0.1409
     50 H          -1.7460  -10.8042   -1.0586 H       1  LIG1        0.1072
@<TRIPOS>BOND
     1    44    41    1
     2    43    42    1
     3    41    42   ar
     4    41    40   ar
     5    42    38   ar
     6    40    49    1
     7    40    39   ar
     8    13    12    1
     9    49    50    1
    10    22    20    1
    11    25    24    1
    12    24    16    1
    13    38    39   ar
    14    38    29    1
    15    12     3    1
    16    31    30    1
    17    30    29   ar
    18    30    26   ar
    19    39    45    1
    20    29    28   ar
    21    16    15   ar
    22    16    17   ar
    23    20    15    1
    24    20    21    1
    25    20    23    1
    26    37    36    1
    27    15    14   ar
    28    26    17    1
    29    26    27   ar
    30    28    36    1
    31    28    27   ar
    32    17    18   ar
    33    27    32    1
    34     3     4   ar
    35     3     2   ar
    36    14    18   ar
    37    14     4    1
    38    34    32    1
    39    10     8    1
    40    18    19    1
    41     9     8    1
    42    45    47    1
    43    45    46    1
    44    45    48    1
    45     4     5   ar
    46    32    35    1
    47    32    33    1
    48     8     2    1
    49     8    11    1
    50     2     1   ar
    51     5     1   ar
    52     5     6    1
    53     1     7    1
