@<TRIPOS>MOLECULE
mol_data/opt/m06hf/geoms/mol2/13ig13ig-13ig-13ig.out
 50 53 0 0 0
SMALL
GASTEIGER

@<TRIPOS>ATOM
      1 C           0.2748    0.3991    2.6463 C.ar    1  LIG1        0.0062
      2 C           0.7563    0.8754    1.4497 C.ar    1  LIG1       -0.0193
      3 C          -0.2075    0.5144    0.4616 C.ar    1  LIG1        0.0344
      4 C          -1.2322   -0.1598    1.0888 C.ar    1  LIG1        0.0768
      5 N          -0.9147   -0.2267    2.4230 N.ar    1  LIG1       -0.3584
      6 H          -1.5313   -0.5923    3.1307 H       1  LIG1        0.1654
      7 H           0.6980    0.4677    3.6342 H       1  LIG1        0.0810
      8 C           2.0445    1.6191    1.2065 C.3     1  LIG1       -0.0372
      9 H           1.8442    2.5931    0.7564 H       1  LIG1        0.0278
     10 H           2.6910    1.0558    0.5308 H       1  LIG1        0.0278
     11 H           2.5737    1.7726    2.1466 H       1  LIG1        0.0278
     12 S          -0.0381    0.8568   -1.2652 S.3     1  LIG1       -0.1403
     13 H          -1.1764    0.2399   -1.6139 H       1  LIG1        0.1072
     14 C          -2.4547   -0.7441    0.5299 C.ar    1  LIG1        0.0685
     15 C          -3.4964   -0.1355   -0.1449 C.ar    1  LIG1       -0.0099
     16 C          -4.4073   -1.1724   -0.4960 C.ar    1  LIG1        0.0351
     17 C          -3.9057   -2.3656   -0.0175 C.ar    1  LIG1        0.0772
     18 N          -2.7149   -2.0851    0.5987 N.ar    1  LIG1       -0.3508
     19 H          -2.1167   -2.7666    1.0394 H       1  LIG1        0.1660
     20 C          -3.6499    1.3353   -0.4328 C.3     1  LIG1       -0.0366
     21 H          -4.5955    1.7003   -0.0276 H       1  LIG1        0.0279
     22 H          -3.6436    1.5226   -1.5090 H       1  LIG1        0.0279
     23 H          -2.8291    1.8880    0.0247 H       1  LIG1        0.0279
     24 S          -5.8881   -0.9151   -1.4261 S.3     1  LIG1       -0.1403
     25 H          -6.2227   -2.2119   -1.4664 H       1  LIG1        0.1072
     26 C          -4.4471   -3.7233   -0.1232 C.ar    1  LIG1        0.0685
     27 C          -5.6494   -4.2340    0.3292 C.ar    1  LIG1       -0.0099
     28 C          -5.6785   -5.6013   -0.0679 C.ar    1  LIG1        0.0351
     29 C          -4.5011   -5.8828   -0.7302 C.ar    1  LIG1        0.0772
     30 N          -3.7672   -4.7261   -0.7569 N.ar    1  LIG1       -0.3508
     31 H          -2.8600   -4.6299   -1.1860 H       1  LIG1        0.1660
     32 C          -6.7080   -3.5021    1.1129 C.3     1  LIG1       -0.0366
     33 H          -6.9146   -4.0300    2.0458 H       1  LIG1        0.0279
     34 H          -7.6381   -3.4390    0.5439 H       1  LIG1        0.0279
     35 H          -6.3680   -2.4919    1.3423 H       1  LIG1        0.0279
     36 S          -7.0363   -6.6912    0.2372 S.3     1  LIG1       -0.1403
     37 H          -6.4898   -7.7371   -0.4012 H       1  LIG1        0.1072
     38 C          -4.0351   -7.1339   -1.3365 C.ar    1  LIG1        0.0680
     39 C          -3.7772   -8.3575   -0.7555 C.ar    1  LIG1       -0.0106
     40 C          -3.3651   -9.2235   -1.8138 C.ar    1  LIG1        0.0256
     41 C          -3.3910   -8.5029   -2.9855 C.ar    1  LIG1        0.0157
     42 N          -3.7971   -7.2424   -2.6871 N.ar    1  LIG1       -0.3583
     43 H          -3.9794   -6.5085   -3.3535 H       1  LIG1        0.1654
     44 H          -3.1553   -8.8109   -3.9898 H       1  LIG1        0.0818
     45 C          -3.8828   -8.6984    0.7080 C.3     1  LIG1       -0.0366
     46 H          -2.9227   -9.0533    1.0859 H       1  LIG1        0.0279
     47 H          -4.6192   -9.4888    0.8621 H       1  LIG1        0.0279
     48 H          -4.1841   -7.8151    1.2715 H       1  LIG1        0.0279
     49 S          -2.9661  -10.9435   -1.6873 S.3     1  LIG1       -0.1409
     50 H          -1.7580  -10.7968   -1.1290 H       1  LIG1        0.1072
@<TRIPOS>BOND
     1    44    41    1
     2    43    42    1
     3    41    42   ar
     4    41    40   ar
     5    42    38   ar
     6    40    49    1
     7    40    39   ar
     8    49    50    1
     9    13    12    1
    10    22    20    1
    11    25    24    1
    12    24    16    1
    13    38    39   ar
    14    38    29    1
    15    12     3    1
    16    31    30    1
    17    30    29   ar
    18    30    26   ar
    19    39    45    1
    20    29    28   ar
    21    16    15   ar
    22    16    17   ar
    23    20    15    1
    24    20    21    1
    25    20    23    1
    26    37    36    1
    27    15    14   ar
    28    26    17    1
    29    26    27   ar
    30    28    36    1
    31    28    27   ar
    32    17    18   ar
    33    27    32    1
    34     3     4   ar
    35     3     2   ar
    36    14    18   ar
    37    14     4    1
    38    10     8    1
    39    34    32    1
    40    18    19    1
    41    45    47    1
    42    45    46    1
    43    45    48    1
    44     9     8    1
    45     4     5   ar
    46    32    35    1
    47    32    33    1
    48     8     2    1
    49     8    11    1
    50     2     1   ar
    51     5     1   ar
    52     5     6    1
    53     1     7    1
