@<TRIPOS>MOLECULE
mol_data/opt/m06hf/geoms/mol2/13ig13ig13ig-.out
 38 40 0 0 0
SMALL
GASTEIGER

@<TRIPOS>ATOM
      1 C           0.7989    0.0687    1.5917 C.ar    1  LIG1        0.0062
      2 C           0.8570    0.9082    0.5047 C.ar    1  LIG1       -0.0193
      3 C          -0.3612    0.7157   -0.2123 C.ar    1  LIG1        0.0344
      4 C          -1.1108   -0.2236    0.4616 C.ar    1  LIG1        0.0768
      5 N          -0.3800   -0.6138    1.5563 N.ar    1  LIG1       -0.3584
      6 H          -0.7268   -1.2330    2.2709 H       1  LIG1        0.1654
      7 H           1.5144   -0.0839    2.3823 H       1  LIG1        0.0810
      8 C           1.9783    1.8410    0.1243 C.3     1  LIG1       -0.0372
      9 H           1.6205    2.8711    0.0778 H       1  LIG1        0.0278
     10 H           2.3835    1.5744   -0.8535 H       1  LIG1        0.0278
     11 H           2.7796    1.7847    0.8608 H       1  LIG1        0.0278
     12 S          -0.7741    1.5417   -1.7213 S.3     1  LIG1       -0.1403
     13 H          -1.8768    0.8160   -1.9487 H       1  LIG1        0.1072
     14 C          -2.4298   -0.7798    0.1494 C.ar    1  LIG1        0.0685
     15 C          -3.6492   -0.1425    0.0198 C.ar    1  LIG1       -0.0099
     16 C          -4.5977   -1.1528   -0.3083 C.ar    1  LIG1        0.0351
     17 C          -3.9377   -2.3641   -0.3550 C.ar    1  LIG1        0.0772
     18 N          -2.6187   -2.1153   -0.0798 N.ar    1  LIG1       -0.3508
     19 H          -1.8926   -2.8144   -0.0534 H       1  LIG1        0.1660
     20 C          -3.9234    1.3265    0.2105 C.3     1  LIG1       -0.0366
     21 H          -4.7052    1.4693    0.9590 H       1  LIG1        0.0279
     22 H          -4.2563    1.7822   -0.7247 H       1  LIG1        0.0279
     23 H          -3.0147    1.8295    0.5410 H       1  LIG1        0.0279
     24 S          -6.3112   -0.8379   -0.6067 S.3     1  LIG1       -0.1403
     25 H          -6.6097   -2.1058   -0.9221 H       1  LIG1        0.1072
     26 C          -4.4496   -3.7037   -0.6593 C.ar    1  LIG1        0.0680
     27 C          -5.4227   -4.4484   -0.0269 C.ar    1  LIG1       -0.0106
     28 C          -5.5469   -5.6605   -0.7734 C.ar    1  LIG1        0.0256
     29 C          -4.6548   -5.6074   -1.8191 C.ar    1  LIG1        0.0157
     30 N          -3.9964   -4.4227   -1.7413 N.ar    1  LIG1       -0.3583
     31 H          -3.3377   -4.0698   -2.4180 H       1  LIG1        0.1654
     32 H          -4.4640   -6.3232   -2.6003 H       1  LIG1        0.0818
     33 C          -6.1773   -4.0716    1.2214 C.3     1  LIG1       -0.0366
     34 H          -5.9914   -4.8024    2.0104 H       1  LIG1        0.0279
     35 H          -7.2509   -4.0519    1.0263 H       1  LIG1        0.0279
     36 H          -5.8585   -3.0871    1.5640 H       1  LIG1        0.0279
     37 S          -6.7091   -6.9660   -0.4998 S.3     1  LIG1       -0.1409
     38 H          -6.0920   -7.5543    0.5330 H       1  LIG1        0.1072
@<TRIPOS>BOND
     1    32    29    1
     2    31    30    1
     3    13    12    1
     4    29    30   ar
     5    29    28   ar
     6    30    26   ar
     7    12     3    1
     8    25    24    1
     9    10     8    1
    10    28    37    1
    11    28    27   ar
    12    22    20    1
    13    26    17    1
    14    26    27   ar
    15    24    16    1
    16    37    38    1
    17    17    16   ar
    18    17    18   ar
    19    16    15   ar
    20     3     4   ar
    21     3     2   ar
    22    18    19    1
    23    18    14   ar
    24    27    33    1
    25    15    14   ar
    26    15    20    1
    27     9     8    1
    28     8     2    1
    29     8    11    1
    30    14     4    1
    31    20    23    1
    32    20    21    1
    33     4     5   ar
    34     2     1   ar
    35    35    33    1
    36    33    36    1
    37    33    34    1
    38     5     1   ar
    39     5     6    1
    40     1     7    1
