@<TRIPOS>MOLECULE
mol_data/opt/m06hf/geoms/mol2/13ig13ig13ig13ig.out
 50 53 0 0 0
SMALL
GASTEIGER

@<TRIPOS>ATOM
      1 C           0.2850    0.5708    2.3550 C.ar    1  LIG1        0.0062
      2 C           0.7564    0.9690    1.1264 C.ar    1  LIG1       -0.0193
      3 C          -0.2137    0.5425    0.1712 C.ar    1  LIG1        0.0344
      4 C          -1.2320   -0.0915    0.8487 C.ar    1  LIG1        0.0768
      5 N          -0.9045   -0.0707    2.1819 N.ar    1  LIG1       -0.3584
      6 H          -1.5149   -0.3905    2.9166 H       1  LIG1        0.1654
      7 H           0.7154    0.7044    3.3331 H       1  LIG1        0.0810
      8 C           2.0410    1.6978    0.8255 C.3     1  LIG1       -0.0372
      9 H           1.8350    2.6401    0.3144 H       1  LIG1        0.0278
     10 H           2.6838    1.0931    0.1831 H       1  LIG1        0.0278
     11 H           2.5767    1.9134    1.7495 H       1  LIG1        0.0278
     12 S          -0.0579    0.7719   -1.5755 S.3     1  LIG1       -0.1403
     13 H          -1.1973    0.1313   -1.8747 H       1  LIG1        0.1072
     14 C          -2.4572   -0.7134    0.3383 C.ar    1  LIG1        0.0685
     15 C          -3.5054   -0.1522   -0.3668 C.ar    1  LIG1       -0.0099
     16 C          -4.4163   -1.2116   -0.6427 C.ar    1  LIG1        0.0351
     17 C          -3.9081   -2.3700   -0.0913 C.ar    1  LIG1        0.0772
     18 N          -2.7135   -2.0476    0.4963 N.ar    1  LIG1       -0.3508
     19 H          -2.1104   -2.6977    0.9759 H       1  LIG1        0.1660
     20 C          -3.6647    1.2965   -0.7487 C.3     1  LIG1       -0.0366
     21 H          -4.6081    1.6852   -0.3611 H       1  LIG1        0.0279
     22 H          -3.6669    1.4132   -1.8350 H       1  LIG1        0.0279
     23 H          -2.8419    1.8794   -0.3345 H       1  LIG1        0.0279
     24 S          -5.9045   -1.0184   -1.5765 S.3     1  LIG1       -0.1403
     25 H          -6.2363   -2.3157   -1.5297 H       1  LIG1        0.1072
     26 C          -4.4470   -3.7328   -0.1042 C.ar    1  LIG1        0.0685
     27 C          -5.6447   -4.2153    0.3896 C.ar    1  LIG1       -0.0099
     28 C          -5.6732   -5.6057    0.0826 C.ar    1  LIG1        0.0351
     29 C          -4.5001   -5.9274   -0.5689 C.ar    1  LIG1        0.0772
     30 N          -3.7692   -4.7735   -0.6764 N.ar    1  LIG1       -0.3508
     31 H          -2.8655   -4.7035   -1.1176 H       1  LIG1        0.1660
     32 C          -6.6992   -3.4361    1.1319 C.3     1  LIG1       -0.0366
     33 H          -6.8976   -3.9025    2.0987 H       1  LIG1        0.0279
     34 H          -7.6337   -3.4120    0.5670 H       1  LIG1        0.0279
     35 H          -6.3600   -2.4124    1.2924 H       1  LIG1        0.0279
     36 S          -7.0260   -6.6761    0.4683 S.3     1  LIG1       -0.1403
     37 H          -6.4816   -7.7602   -0.1047 H       1  LIG1        0.1072
     38 C          -4.0355   -7.2144   -1.0958 C.ar    1  LIG1        0.0680
     39 C          -3.7702   -8.3970   -0.4383 C.ar    1  LIG1       -0.0106
     40 C          -3.3639   -9.3293   -1.4410 C.ar    1  LIG1        0.0256
     41 C          -3.4001   -8.6867   -2.6570 C.ar    1  LIG1        0.0157
     42 N          -3.8072   -7.4102   -2.4382 N.ar    1  LIG1       -0.3583
     43 H          -3.9962   -6.7217   -3.1497 H       1  LIG1        0.1654
     44 H          -3.1711   -9.0590   -3.6408 H       1  LIG1        0.0818
     45 C          -3.8642   -8.6420    1.0450 C.3     1  LIG1       -0.0366
     46 H          -2.9004   -8.9696    1.4380 H       1  LIG1        0.0279
     47 H          -4.5974   -9.4222    1.2558 H       1  LIG1        0.0279
     48 H          -4.1635   -7.7245    1.5521 H       1  LIG1        0.0279
     49 S          -2.9596  -11.0366   -1.2058 S.3     1  LIG1       -0.1409
     50 H          -1.7478  -10.8515   -0.6674 H       1  LIG1        0.1072
@<TRIPOS>BOND
     1    44    41    1
     2    43    42    1
     3    41    42   ar
     4    41    40   ar
     5    42    38   ar
     6    13    12    1
     7    22    20    1
     8    24    25    1
     9    24    16    1
    10    12     3    1
    11    40    49    1
    12    40    39   ar
    13    49    50    1
    14    31    30    1
    15    38    29    1
    16    38    39   ar
    17    20    15    1
    18    20    21    1
    19    20    23    1
    20    30    29   ar
    21    30    26   ar
    22    16    15   ar
    23    16    17   ar
    24    29    28   ar
    25    39    45    1
    26    15    14   ar
    27    37    36    1
    28    26    17    1
    29    26    27   ar
    30    17    18   ar
    31    28    27   ar
    32    28    36    1
    33     3     4   ar
    34     3     2   ar
    35    10     8    1
    36     9     8    1
    37    14    18   ar
    38    14     4    1
    39    27    32    1
    40    18    19    1
    41    34    32    1
    42     8     2    1
    43     8    11    1
    44     4     5   ar
    45    45    47    1
    46    45    46    1
    47    45    48    1
    48     2     1   ar
    49    32    35    1
    50    32    33    1
    51     5     1   ar
    52     5     6    1
    53     1     7    1
