@<TRIPOS>MOLECULE
mol_data/opt/m06hf/geoms/mol2/13ig13ig-13ig-13ig-.out
 50 53 0 0 0
SMALL
GASTEIGER

@<TRIPOS>ATOM
      1 C           0.2907    0.5821    2.3435 C.ar    1  LIG1        0.0062
      2 C           0.7591    0.9745    1.1118 C.ar    1  LIG1       -0.0193
      3 C          -0.2134    0.5433    0.1611 C.ar    1  LIG1        0.0344
      4 C          -1.2300   -0.0874    0.8442 C.ar    1  LIG1        0.0768
      5 N          -0.8992   -0.0602    2.1764 N.ar    1  LIG1       -0.3584
      6 H          -1.5078   -0.3766    2.9142 H       1  LIG1        0.1654
      7 H           0.7235    0.7204    3.3199 H       1  LIG1        0.0810
      8 C           2.0429    1.7018    0.8043 C.3     1  LIG1       -0.0372
      9 H           1.8356    2.6416    0.2891 H       1  LIG1        0.0278
     10 H           2.6841    1.0940    0.1631 H       1  LIG1        0.0278
     11 H           2.5809    1.9219    1.7259 H       1  LIG1        0.0278
     12 S          -0.0620    0.7644   -1.5870 S.3     1  LIG1       -0.1403
     13 H          -1.2020    0.1224   -1.8803 H       1  LIG1        0.1072
     14 C          -2.4564   -0.7118    0.3397 C.ar    1  LIG1        0.0685
     15 C          -3.5064   -0.1540   -0.3654 C.ar    1  LIG1       -0.0099
     16 C          -4.4179   -1.2147   -0.6340 C.ar    1  LIG1        0.0351
     17 C          -3.9084   -2.3705   -0.0783 C.ar    1  LIG1        0.0772
     18 N          -2.7123   -2.0452    0.5048 N.ar    1  LIG1       -0.3508
     19 H          -2.1080   -2.6930    0.9860 H       1  LIG1        0.1660
     20 C          -3.6667    1.2928   -0.7539 C.3     1  LIG1       -0.0366
     21 H          -4.6092    1.6834   -0.3657 H       1  LIG1        0.0279
     22 H          -3.6715    1.4044   -1.8406 H       1  LIG1        0.0279
     23 H          -2.8429    1.8778   -0.3445 H       1  LIG1        0.0279
     24 S          -5.9085   -1.0260   -1.5649 S.3     1  LIG1       -0.1403
     25 H          -6.2401   -2.3232   -1.5110 H       1  LIG1        0.1072
     26 C          -4.4472   -3.7334   -0.0833 C.ar    1  LIG1        0.0685
     27 C          -5.6436   -4.2136    0.4157 C.ar    1  LIG1       -0.0099
     28 C          -5.6729   -5.6054    0.1155 C.ar    1  LIG1        0.0351
     29 C          -4.5013   -5.9301   -0.5373 C.ar    1  LIG1        0.0772
     30 N          -3.7708   -4.7767   -0.6522 N.ar    1  LIG1       -0.3508
     31 H          -2.8682   -4.7089   -1.0960 H       1  LIG1        0.1660
     32 C          -6.6963   -3.4308    1.1569 C.3     1  LIG1       -0.0366
     33 H          -6.8923   -3.8925    2.1265 H       1  LIG1        0.0279
     34 H          -7.6322   -3.4094    0.5943 H       1  LIG1        0.0279
     35 H          -6.3568   -2.4063    1.3117 H       1  LIG1        0.0279
     36 S          -7.0246   -6.6739    0.5097 S.3     1  LIG1       -0.1403
     37 H          -6.4816   -7.7608   -0.0594 H       1  LIG1        0.1072
     38 C          -4.0379   -7.2196   -1.0592 C.ar    1  LIG1        0.0680
     39 C          -3.7710   -8.3990   -0.3967 C.ar    1  LIG1       -0.0106
     40 C          -3.3671   -9.3361   -1.3960 C.ar    1  LIG1        0.0256
     41 C          -3.4064   -8.6994   -2.6149 C.ar    1  LIG1        0.0157
     42 N          -3.8130   -7.4219   -2.4012 N.ar    1  LIG1       -0.3583
     43 H          -4.0038   -6.7368   -3.1155 H       1  LIG1        0.1654
     44 H          -3.1798   -9.0764   -3.5975 H       1  LIG1        0.0818
     45 C          -3.8612   -8.6370    1.0880 C.3     1  LIG1       -0.0366
     46 H          -2.8965   -8.9627    1.4801 H       1  LIG1        0.0279
     47 H          -4.5939   -9.4162    1.3044 H       1  LIG1        0.0279
     48 H          -4.1594   -7.7171    1.5914 H       1  LIG1        0.0279
     49 S          -2.9622  -11.0423   -1.1535 S.3     1  LIG1       -0.1409
     50 H          -1.7490  -10.8545   -0.6190 H       1  LIG1        0.1072
@<TRIPOS>BOND
     1    44    41    1
     2    43    42    1
     3    41    42   ar
     4    41    40   ar
     5    42    38   ar
     6    13    12    1
     7    22    20    1
     8    12     3    1
     9    24    25    1
    10    24    16    1
    11    40    49    1
    12    40    39   ar
    13    49    50    1
    14    31    30    1
    15    38    29    1
    16    38    39   ar
    17    20    21    1
    18    20    15    1
    19    20    23    1
    20    30    29   ar
    21    30    26   ar
    22    16    15   ar
    23    16    17   ar
    24    29    28   ar
    25    39    45    1
    26    15    14   ar
    27    26    17    1
    28    26    27   ar
    29    17    18   ar
    30    37    36    1
    31    28    27   ar
    32    28    36    1
    33     3     4   ar
    34     3     2   ar
    35    10     8    1
    36     9     8    1
    37    14    18   ar
    38    14     4    1
    39    27    32    1
    40    18    19    1
    41    34    32    1
    42     8     2    1
    43     8    11    1
    44     4     5   ar
    45    45    47    1
    46    45    46    1
    47    45    48    1
    48     2     1   ar
    49    32    35    1
    50    32    33    1
    51     5     1   ar
    52     5     6    1
    53     1     7    1
