@<TRIPOS>MOLECULE
mol_data/opt/m06hf/geoms/mol2/13ig13ig-13ig.out
 38 40 0 0 0
SMALL
GASTEIGER

@<TRIPOS>ATOM
      1 C           0.7836    0.0699    1.6334 C.ar    1  LIG1        0.0062
      2 C           0.8602    0.8978    0.5386 C.ar    1  LIG1       -0.0193
      3 C          -0.3488    0.7029   -0.1931 C.ar    1  LIG1        0.0344
      4 C          -1.1116   -0.2262    0.4801 C.ar    1  LIG1        0.0768
      5 N          -0.3976   -0.6081    1.5887 N.ar    1  LIG1       -0.3584
      6 H          -0.7568   -1.2183    2.3049 H       1  LIG1        0.1654
      7 H           1.4876   -0.0775    2.4353 H       1  LIG1        0.0810
      8 C           1.9906    1.8220    0.1642 C.3     1  LIG1       -0.0372
      9 H           1.6379    2.8531    0.1021 H       1  LIG1        0.0278
     10 H           2.4081    1.5437   -0.8051 H       1  LIG1        0.0278
     11 H           2.7814    1.7701    0.9122 H       1  LIG1        0.0278
     12 S          -0.7374    1.5148   -1.7160 S.3     1  LIG1       -0.1403
     13 H          -1.8400    0.7914   -1.9512 H       1  LIG1        0.1072
     14 C          -2.4284   -0.7803    0.1555 C.ar    1  LIG1        0.0685
     15 C          -3.6432   -0.1394    0.0022 C.ar    1  LIG1       -0.0099
     16 C          -4.5914   -1.1493   -0.3285 C.ar    1  LIG1        0.0351
     17 C          -3.9359   -2.3637   -0.3533 C.ar    1  LIG1        0.0772
     18 N          -2.6199   -2.1174   -0.0624 N.ar    1  LIG1       -0.3508
     19 H          -1.8971   -2.8192   -0.0184 H       1  LIG1        0.1660
     20 C          -3.9139    1.3326    0.1737 C.3     1  LIG1       -0.0366
     21 H          -4.7054    1.4864    0.9097 H       1  LIG1        0.0279
     22 H          -4.2318    1.7798   -0.7708 H       1  LIG1        0.0279
     23 H          -3.0077    1.8353    0.5115 H       1  LIG1        0.0279
     24 S          -6.2992   -0.8304   -0.6541 S.3     1  LIG1       -0.1403
     25 H          -6.5987   -2.1002   -0.9603 H       1  LIG1        0.1072
     26 C          -4.4493   -3.7043   -0.6505 C.ar    1  LIG1        0.0680
     27 C          -5.4344   -4.4381   -0.0239 C.ar    1  LIG1       -0.0106
     28 C          -5.5533   -5.6576   -0.7591 C.ar    1  LIG1        0.0256
     29 C          -4.6463   -5.6194   -1.7927 C.ar    1  LIG1        0.0157
     30 N          -3.9840   -4.4367   -1.7182 N.ar    1  LIG1       -0.3583
     31 H          -3.3144   -4.0938   -2.3894 H       1  LIG1        0.1654
     32 H          -4.4477   -6.3443   -2.5634 H       1  LIG1        0.0818
     33 C          -6.2048   -4.0448    1.2096 C.3     1  LIG1       -0.0366
     34 H          -6.0336   -4.7682    2.0086 H       1  LIG1        0.0279
     35 H          -7.2754   -4.0222    0.9990 H       1  LIG1        0.0279
     36 H          -5.8862   -3.0583    1.5465 H       1  LIG1        0.0279
     37 S          -6.7249   -6.9553   -0.4880 S.3     1  LIG1       -0.1409
     38 H          -6.1247   -7.5351    0.5595 H       1  LIG1        0.1072
@<TRIPOS>BOND
     1    32    29    1
     2    31    30    1
     3    13    12    1
     4    29    30   ar
     5    29    28   ar
     6    30    26   ar
     7    12     3    1
     8    25    24    1
     9    10     8    1
    10    22    20    1
    11    28    37    1
    12    28    27   ar
    13    24    16    1
    14    26    17    1
    15    26    27   ar
    16    37    38    1
    17    17    16   ar
    18    17    18   ar
    19    16    15   ar
    20     3     4   ar
    21     3     2   ar
    22    18    19    1
    23    18    14   ar
    24    27    33    1
    25    15    14   ar
    26    15    20    1
    27     9     8    1
    28    14     4    1
    29     8     2    1
    30     8    11    1
    31    20    23    1
    32    20    21    1
    33     4     5   ar
    34     2     1   ar
    35    35    33    1
    36    33    36    1
    37    33    34    1
    38     5     1   ar
    39     5     6    1
    40     1     7    1
