@<TRIPOS>MOLECULE
mol_data/opt/m06hf/geoms/mol2/13ig13ig-13ig-.out
 38 40 0 0 0
SMALL
GASTEIGER

@<TRIPOS>ATOM
      1 C           0.7956    0.1060    1.5714 C.ar    1  LIG1        0.0062
      2 C           0.8554    0.9205    0.4656 C.ar    1  LIG1       -0.0193
      3 C          -0.3615    0.7113   -0.2490 C.ar    1  LIG1        0.0344
      4 C          -1.1120   -0.2127    0.4449 C.ar    1  LIG1        0.0768
      5 N          -0.3831   -0.5776    1.5495 N.ar    1  LIG1       -0.3584
      6 H          -0.7310   -1.1802    2.2776 H       1  LIG1        0.1654
      7 H           1.5098   -0.0283    2.3666 H       1  LIG1        0.0810
      8 C           1.9771    1.8446    0.0660 C.3     1  LIG1       -0.0372
      9 H           1.6192    2.8733   -0.0046 H       1  LIG1        0.0278
     10 H           2.3841    1.5560   -0.9047 H       1  LIG1        0.0278
     11 H           2.7771    1.8054    0.8050 H       1  LIG1        0.0278
     12 S          -0.7719    1.5023   -1.7772 S.3     1  LIG1       -0.1403
     13 H          -1.8740    0.7713   -1.9899 H       1  LIG1        0.1072
     14 C          -2.4302   -0.7764    0.1430 C.ar    1  LIG1        0.0685
     15 C          -3.6496   -0.1426   -0.0035 C.ar    1  LIG1       -0.0099
     16 C          -4.5972   -1.1605   -0.3104 C.ar    1  LIG1        0.0351
     17 C          -3.9367   -2.3723   -0.3280 C.ar    1  LIG1        0.0772
     18 N          -2.6183   -2.1168   -0.0560 N.ar    1  LIG1       -0.3508
     19 H          -1.8920   -2.8150   -0.0121 H       1  LIG1        0.1660
     20 C          -3.9246    1.3302    0.1531 C.3     1  LIG1       -0.0366
     21 H          -4.7079    1.4898    0.8966 H       1  LIG1        0.0279
     22 H          -4.2558    1.7644   -0.7929 H       1  LIG1        0.0279
     23 H          -3.0167    1.8410    0.4738 H       1  LIG1        0.0279
     24 S          -6.3101   -0.8529   -0.6193 S.3     1  LIG1       -0.1403
     25 H          -6.6077   -2.1277   -0.9063 H       1  LIG1        0.1072
     26 C          -4.4476   -3.7187   -0.6025 C.ar    1  LIG1        0.0680
     27 C          -5.4220   -4.4488    0.0447 C.ar    1  LIG1       -0.0106
     28 C          -5.5442   -5.6779   -0.6739 C.ar    1  LIG1        0.0256
     29 C          -4.6498   -5.6487   -1.7186 C.ar    1  LIG1        0.0157
     30 N          -3.9918   -4.4623   -1.6666 N.ar    1  LIG1       -0.3583
     31 H          -3.3318   -4.1249   -2.3499 H       1  LIG1        0.1654
     32 H          -4.4571   -6.3822   -2.4826 H       1  LIG1        0.0818
     33 C          -6.1794   -4.0436    1.2824 C.3     1  LIG1       -0.0366
     34 H          -5.9955   -4.7563    2.0882 H       1  LIG1        0.0279
     35 H          -7.2525   -4.0281    1.0844 H       1  LIG1        0.0279
     36 H          -5.8612   -3.0516    1.6033 H       1  LIG1        0.0279
     37 S          -6.7068   -6.9771   -0.3729 S.3     1  LIG1       -0.1409
     38 H          -6.0916   -7.5414    0.6744 H       1  LIG1        0.1072
@<TRIPOS>BOND
     1    32    29    1
     2    31    30    1
     3    13    12    1
     4    12     3    1
     5    29    30   ar
     6    29    28   ar
     7    30    26   ar
     8    25    24    1
     9    10     8    1
    10    22    20    1
    11    28    37    1
    12    28    27   ar
    13    24    16    1
    14    26    17    1
    15    26    27   ar
    16    37    38    1
    17    17    16   ar
    18    17    18   ar
    19    16    15   ar
    20     3     4   ar
    21     3     2   ar
    22    18    19    1
    23    18    14   ar
    24     9     8    1
    25    15    14   ar
    26    15    20    1
    27    27    33    1
    28     8     2    1
    29     8    11    1
    30    14     4    1
    31    20    23    1
    32    20    21    1
    33     4     5   ar
    34     2     1   ar
    35    35    33    1
    36    33    36    1
    37    33    34    1
    38     5     1   ar
    39     5     6    1
    40     1     7    1
