@<TRIPOS>MOLECULE
mol_data/opt/m06hf/geoms/mol2/13ig13ig13ig13ig-.out
 50 53 0 0 0
SMALL
GASTEIGER

@<TRIPOS>ATOM
      1 C           0.2858    0.5682    2.3554 C.ar    1  LIG1        0.0062
      2 C           0.7577    0.9670    1.1271 C.ar    1  LIG1       -0.0193
      3 C          -0.2124    0.5413    0.1714 C.ar    1  LIG1        0.0344
      4 C          -1.2311   -0.0927    0.8483 C.ar    1  LIG1        0.0768
      5 N          -0.9039   -0.0727    2.1816 N.ar    1  LIG1       -0.3584
      6 H          -1.5146   -0.3928    2.9160 H       1  LIG1        0.1654
      7 H           0.7160    0.7011    3.3337 H       1  LIG1        0.0810
      8 C           2.0426    1.6954    0.8270 C.3     1  LIG1       -0.0372
      9 H           1.8371    2.6380    0.3164 H       1  LIG1        0.0278
     10 H           2.6854    1.0908    0.1844 H       1  LIG1        0.0278
     11 H           2.5782    1.9102    1.7513 H       1  LIG1        0.0278
     12 S          -0.0561    0.7717   -1.5751 S.3     1  LIG1       -0.1403
     13 H          -1.1955    0.1317   -1.8749 H       1  LIG1        0.1072
     14 C          -2.4563   -0.7139    0.3372 C.ar    1  LIG1        0.0685
     15 C          -3.5042   -0.1518   -0.3678 C.ar    1  LIG1       -0.0099
     16 C          -4.4154   -1.2107   -0.6445 C.ar    1  LIG1        0.0351
     17 C          -3.9078   -2.3696   -0.0937 C.ar    1  LIG1        0.0772
     18 N          -2.7132   -2.0480    0.4944 N.ar    1  LIG1       -0.3508
     19 H          -2.1104   -2.6986    0.9738 H       1  LIG1        0.1660
     20 C          -3.6628    1.2971   -0.7489 C.3     1  LIG1       -0.0366
     21 H          -4.6063    1.6859   -0.3613 H       1  LIG1        0.0279
     22 H          -3.6647    1.4145   -1.8351 H       1  LIG1        0.0279
     23 H          -2.8399    1.8795   -0.3341 H       1  LIG1        0.0279
     24 S          -5.9033   -1.0164   -1.5785 S.3     1  LIG1       -0.1403
     25 H          -6.2356   -2.3137   -1.5325 H       1  LIG1        0.1072
     26 C          -4.4472   -3.7323   -0.1075 C.ar    1  LIG1        0.0685
     27 C          -5.6451   -4.2146    0.3857 C.ar    1  LIG1       -0.0099
     28 C          -5.6741   -5.6048    0.0780 C.ar    1  LIG1        0.0351
     29 C          -4.5009   -5.9265   -0.5734 C.ar    1  LIG1        0.0772
     30 N          -3.7697   -4.7728   -0.6801 N.ar    1  LIG1       -0.3508
     31 H          -2.8658   -4.7030   -1.1210 H       1  LIG1        0.1660
     32 C          -6.6995   -3.4354    1.1282 C.3     1  LIG1       -0.0366
     33 H          -6.8984   -3.9023    2.0947 H       1  LIG1        0.0279
     34 H          -7.6339   -3.4106    0.5631 H       1  LIG1        0.0279
     35 H          -6.3600   -2.4119    1.2894 H       1  LIG1        0.0279
     36 S          -7.0274   -6.6749    0.4627 S.3     1  LIG1       -0.1403
     37 H          -6.4833   -7.7589   -0.1107 H       1  LIG1        0.1072
     38 C          -4.0367   -7.2134   -1.1009 C.ar    1  LIG1        0.0680
     39 C          -3.7720   -8.3965   -0.4440 C.ar    1  LIG1       -0.0106
     40 C          -3.3658   -9.3284   -1.4472 C.ar    1  LIG1        0.0256
     41 C          -3.4015   -8.6851   -2.6628 C.ar    1  LIG1        0.0157
     42 N          -3.8081   -7.4086   -2.4434 N.ar    1  LIG1       -0.3583
     43 H          -3.9967   -6.7196   -3.1545 H       1  LIG1        0.1654
     44 H          -3.1724   -9.0569   -3.6467 H       1  LIG1        0.0818
     45 C          -3.8664   -8.6423    1.0392 C.3     1  LIG1       -0.0366
     46 H          -2.9029   -8.9705    1.4322 H       1  LIG1        0.0279
     47 H          -4.5999   -9.4224    1.2494 H       1  LIG1        0.0279
     48 H          -4.1655   -7.7250    1.5466 H       1  LIG1        0.0279
     49 S          -2.9623  -11.0360   -1.2128 S.3     1  LIG1       -0.1409
     50 H          -1.7504  -10.8516   -0.6739 H       1  LIG1        0.1072
@<TRIPOS>BOND
     1    44    41    1
     2    43    42    1
     3    41    42   ar
     4    41    40   ar
     5    42    38   ar
     6    13    12    1
     7    22    20    1
     8    24    25    1
     9    24    16    1
    10    12     3    1
    11    40    49    1
    12    40    39   ar
    13    49    50    1
    14    31    30    1
    15    38    29    1
    16    38    39   ar
    17    20    15    1
    18    20    21    1
    19    20    23    1
    20    30    29   ar
    21    30    26   ar
    22    16    15   ar
    23    16    17   ar
    24    29    28   ar
    25    39    45    1
    26    15    14   ar
    27    37    36    1
    28    26    17    1
    29    26    27   ar
    30    17    18   ar
    31    28    27   ar
    32    28    36    1
    33     3     4   ar
    34     3     2   ar
    35    10     8    1
    36     9     8    1
    37    14    18   ar
    38    14     4    1
    39    27    32    1
    40    18    19    1
    41    34    32    1
    42     8     2    1
    43     8    11    1
    44     4     5   ar
    45    45    47    1
    46    45    46    1
    47    45    48    1
    48     2     1   ar
    49    32    35    1
    50    32    33    1
    51     5     1   ar
    52     5     6    1
    53     1     7    1
