@<TRIPOS>MOLECULE
mol_data/opt/m06hf/geoms/mol2/13ih13ih.out
 28 29 0 0 0
SMALL
GASTEIGER

@<TRIPOS>ATOM
      1 C           1.0911   -0.2129    0.7434 C.ar    1  LIG1        0.0069
      2 C           0.8176    0.9670    0.0936 C.ar    1  LIG1       -0.0118
      3 C          -0.5432    0.8876   -0.3316 C.ar    1  LIG1        0.0546
      4 C          -1.0436   -0.3289    0.0760 C.ar    1  LIG1        0.0844
      5 N          -0.0272   -0.9907    0.7305 N.ar    1  LIG1       -0.3578
      6 H          -0.1518   -1.8518    1.2363 H       1  LIG1        0.1654
      7 H           2.0005   -0.5421    1.2180 H       1  LIG1        0.0810
      8 C           1.7400    2.1357   -0.1383 C.3     1  LIG1       -0.0365
      9 H           1.2770    3.0548    0.2250 H       1  LIG1        0.0279
     10 H           1.9602    2.2630   -1.2013 H       1  LIG1        0.0279
     11 H           2.6831    1.9857    0.3871 H       1  LIG1        0.0279
     12 N          -1.2472    1.9031   -1.0131 N.pl3   1  LIG1       -0.3561
     13 H          -0.7184    2.2614   -1.8015 H       1  LIG1        0.1424
     14 H          -2.1457    1.5585   -1.3381 H       1  LIG1        0.1424
     15 C          -2.3792   -0.8933   -0.1123 C.ar    1  LIG1        0.0694
     16 C          -3.6167   -0.3454    0.1575 C.ar    1  LIG1       -0.0031
     17 C          -4.5877   -1.3169   -0.2367 C.ar    1  LIG1        0.0457
     18 C          -3.9144   -2.4120   -0.7197 C.ar    1  LIG1        0.0233
     19 N          -2.5713   -2.1471   -0.6273 N.ar    1  LIG1       -0.3576
     20 H          -1.8325   -2.7222   -0.9960 H       1  LIG1        0.1654
     21 H          -4.2834   -3.3485   -1.1017 H       1  LIG1        0.0826
     22 C          -3.9095    0.9744    0.8234 C.3     1  LIG1       -0.0359
     23 H          -4.6266    0.8207    1.6320 H       1  LIG1        0.0279
     24 H          -4.3391    1.6956    0.1222 H       1  LIG1        0.0279
     25 H          -2.9899    1.4002    1.2255 H       1  LIG1        0.0279
     26 N          -5.9806   -1.1545   -0.0450 N.pl3   1  LIG1       -0.3566
     27 H          -6.3187   -0.3020   -0.4789 H       1  LIG1        0.1424
     28 H          -6.5098   -1.9404   -0.4033 H       1  LIG1        0.1424
@<TRIPOS>BOND
     1    13    12    1
     2    14    12    1
     3    10     8    1
     4    21    18    1
     5    12     3    1
     6    20    19    1
     7    18    19   ar
     8    18    17   ar
     9    19    15   ar
    10    27    26    1
    11    28    26    1
    12     3     4   ar
    13     3     2   ar
    14    17    26    1
    15    17    16   ar
    16     8     2    1
    17     8     9    1
    18     8    11    1
    19    15     4    1
    20    15    16   ar
    21     4     5   ar
    22     2     1   ar
    23    24    22    1
    24    16    22    1
    25     5     1   ar
    26     5     6    1
    27     1     7    1
    28    22    25    1
    29    22    23    1
