@<TRIPOS>MOLECULE
mol_data/opt/m06hf/geoms/mol2/13ih13ih-13ih-13ih.out
 54 57 0 0 0
SMALL
GASTEIGER

@<TRIPOS>ATOM
      1 C           1.3653   -0.4429    0.0252 C.ar    1  LIG1        0.0069
      2 C           0.9668    0.6907    0.6882 C.ar    1  LIG1       -0.0118
      3 C          -0.4606    0.6591    0.7128 C.ar    1  LIG1        0.0546
      4 C          -0.8744   -0.4893    0.0681 C.ar    1  LIG1        0.0844
      5 N           0.2500   -1.1456   -0.3423 N.ar    1  LIG1       -0.3578
      6 H           0.2465   -2.0068   -0.8626 H       1  LIG1        0.1654
      7 H           2.3539   -0.7974   -0.2119 H       1  LIG1        0.0810
      8 C           1.8396    1.7670    1.2817 C.3     1  LIG1       -0.0365
      9 H           1.6561    1.8687    2.3534 H       1  LIG1        0.0279
     10 H           1.6436    2.7329    0.8108 H       1  LIG1        0.0279
     11 H           2.8917    1.5241    1.1357 H       1  LIG1        0.0279
     12 N          -1.3608    1.6181    1.2861 N.pl3   1  LIG1       -0.3561
     13 H          -1.2527    1.6563    2.2970 H       1  LIG1        0.1424
     14 H          -1.1728    2.5484    0.9222 H       1  LIG1        0.1424
     15 C          -2.2295   -0.9689   -0.1817 C.ar    1  LIG1        0.0699
     16 C          -2.7133   -2.1512   -0.7206 C.ar    1  LIG1       -0.0024
     17 C          -4.1308   -2.0329   -0.7232 C.ar    1  LIG1        0.0552
     18 C          -4.4584   -0.8099   -0.1687 C.ar    1  LIG1        0.0849
     19 N          -3.2844   -0.1799    0.1515 N.ar    1  LIG1       -0.3501
     20 H          -3.1488    0.6975    0.6472 H       1  LIG1        0.1661
     21 C          -1.9423   -3.3604   -1.1890 C.3     1  LIG1       -0.0359
     22 H          -1.1830   -3.6479   -0.4568 H       1  LIG1        0.0279
     23 H          -1.4601   -3.1972   -2.1576 H       1  LIG1        0.0279
     24 H          -2.6316   -4.1997   -1.2889 H       1  LIG1        0.0279
     25 N          -5.0324   -3.0197   -1.1901 N.pl3   1  LIG1       -0.3561
     26 H          -5.9854   -2.6694   -1.1456 H       1  LIG1        0.1424
     27 H          -4.8277   -3.2759   -2.1511 H       1  LIG1        0.1424
     28 C          -5.7733   -0.2141    0.0560 C.ar    1  LIG1        0.0699
     29 C          -6.9032   -0.7351    0.6539 C.ar    1  LIG1       -0.0024
     30 C          -7.9003    0.2832    0.5868 C.ar    1  LIG1        0.0552
     31 C          -7.3478    1.3875   -0.0314 C.ar    1  LIG1        0.0849
     32 N          -6.0604    1.0674   -0.3464 N.ar    1  LIG1       -0.3501
     33 H          -5.4313    1.6494   -0.8763 H       1  LIG1        0.1661
     34 C          -7.0433   -2.0821    1.3173 C.3     1  LIG1       -0.0359
     35 H          -6.0776   -2.5883    1.3402 H       1  LIG1        0.0279
     36 H          -7.7539   -2.7196    0.7842 H       1  LIG1        0.0279
     37 H          -7.4027   -1.9641    2.3422 H       1  LIG1        0.0279
     38 N          -9.2482    0.2386    1.0781 N.pl3   1  LIG1       -0.3561
     39 H          -9.7442   -0.5574    0.6850 H       1  LIG1        0.1424
     40 H          -9.2565    0.1319    2.0902 H       1  LIG1        0.1424
     41 C          -7.9515    2.6799   -0.3343 C.ar    1  LIG1        0.0695
     42 C          -7.4344    3.8383   -0.8854 C.ar    1  LIG1       -0.0031
     43 C          -8.5127    4.7684   -0.9386 C.ar    1  LIG1        0.0457
     44 C          -9.6295    4.1472   -0.4184 C.ar    1  LIG1        0.0233
     45 N          -9.2698    2.8884   -0.0516 N.ar    1  LIG1       -0.3576
     46 H          -9.8262    2.1599    0.3859 H       1  LIG1        0.1654
     47 H         -10.6325    4.5141   -0.2813 H       1  LIG1        0.0826
     48 C          -6.0238    4.1350   -1.3260 C.3     1  LIG1       -0.0359
     49 H          -5.9600    5.2003   -1.5483 H       1  LIG1        0.0279
     50 H          -5.7505    3.5787   -2.2277 H       1  LIG1        0.0279
     51 H          -5.3052    3.9041   -0.5348 H       1  LIG1        0.0279
     52 N          -8.3784    6.1012   -1.4328 N.pl3   1  LIG1       -0.3566
     53 H          -8.6469    6.1632   -2.4101 H       1  LIG1        0.1424
     54 H          -8.9489    6.7511   -0.9037 H       1  LIG1        0.1424
@<TRIPOS>BOND
     1    53    52    1
     2    50    48    1
     3    23    21    1
     4    27    25    1
     5    49    48    1
     6    52    43    1
     7    52    54    1
     8    48    42    1
     9    48    51    1
    10    24    21    1
    11    25    26    1
    12    25    17    1
    13    21    16    1
    14    21    22    1
    15    43    42   ar
    16    43    44   ar
    17    42    41   ar
    18    33    32    1
    19     6     5    1
    20    17    16   ar
    21    17    18   ar
    22    16    15   ar
    23    44    47    1
    24    44    45   ar
    25    32    31   ar
    26    32    28   ar
    27     5     1   ar
    28     5     4   ar
    29    41    45   ar
    30    41    31    1
    31     7     1    1
    32    15     4    1
    33    15    19   ar
    34    18    28    1
    35    18    19   ar
    36    45    46    1
    37    31    30   ar
    38     1     2   ar
    39    28    29   ar
    40     4     3   ar
    41    19    20    1
    42    30    29   ar
    43    30    38    1
    44    29    34    1
    45    39    38    1
    46     2     3   ar
    47     2     8    1
    48     3    12    1
    49    36    34    1
    50    10     8    1
    51    14    12    1
    52    38    40    1
    53    11     8    1
    54     8     9    1
    55    12    13    1
    56    34    35    1
    57    34    37    1
