@<TRIPOS>MOLECULE
mol_data/opt/m06hf/geoms/mol2/13ih13ih13ih.out
 41 43 0 0 0
SMALL
GASTEIGER

@<TRIPOS>ATOM
      1 C           0.8930    0.0939    1.3989 C.ar    1  LIG1        0.0069
      2 C           0.8264    1.0230    0.3878 C.ar    1  LIG1       -0.0118
      3 C          -0.4393    0.8391   -0.2467 C.ar    1  LIG1        0.0546
      4 C          -1.0921   -0.1862    0.4009 C.ar    1  LIG1        0.0844
      5 N          -0.2582   -0.6339    1.4032 N.ar    1  LIG1       -0.3578
      6 H          -0.5351   -1.2937    2.1111 H       1  LIG1        0.1654
      7 H           1.6766   -0.0880    2.1153 H       1  LIG1        0.0810
      8 C           1.8616    2.0462   -0.0027 C.3     1  LIG1       -0.0365
      9 H           1.4091    3.0383   -0.0480 H       1  LIG1        0.0279
     10 H           2.2914    1.8222   -0.9824 H       1  LIG1        0.0279
     11 H           2.6714    2.0636    0.7266 H       1  LIG1        0.0279
     12 N          -0.9374    1.6088   -1.3186 N.pl3   1  LIG1       -0.3561
     13 H          -0.2419    1.7398   -2.0452 H       1  LIG1        0.1424
     14 H          -1.7678    1.1796   -1.7148 H       1  LIG1        0.1424
     15 C          -2.4077   -0.7642    0.1331 C.ar    1  LIG1        0.0699
     16 C          -3.6334   -0.1400   -0.0125 C.ar    1  LIG1       -0.0024
     17 C          -4.5850   -1.1698   -0.2732 C.ar    1  LIG1        0.0552
     18 C          -3.9195   -2.3772   -0.2673 C.ar    1  LIG1        0.0849
     19 N          -2.5920   -2.1097   -0.0183 N.ar    1  LIG1       -0.3501
     20 H          -1.8657   -2.8040    0.0524 H       1  LIG1        0.1661
     21 C          -3.9323    1.3290    0.1420 C.3     1  LIG1       -0.0359
     22 H          -4.7601    1.4639    0.8408 H       1  LIG1        0.0279
     23 H          -4.2140    1.7855   -0.8112 H       1  LIG1        0.0279
     24 H          -3.0512    1.8494    0.5181 H       1  LIG1        0.0279
     25 N          -5.9715   -0.9805   -0.4372 N.pl3   1  LIG1       -0.3561
     26 H          -6.1787   -0.1821   -1.0267 H       1  LIG1        0.1424
     27 H          -6.4106   -1.8145   -0.8139 H       1  LIG1        0.1424
     28 C          -4.4402   -3.7249   -0.4875 C.ar    1  LIG1        0.0695
     29 C          -5.5170   -4.3624    0.0945 C.ar    1  LIG1       -0.0031
     30 C          -5.5910   -5.6607   -0.4979 C.ar    1  LIG1        0.0457
     31 C          -4.5651   -5.7685   -1.4047 C.ar    1  LIG1        0.0233
     32 N          -3.8630   -4.5895   -1.3788 N.ar    1  LIG1       -0.3576
     33 H          -3.1288   -4.3314   -2.0171 H       1  LIG1        0.1654
     34 H          -4.2775   -6.5860   -2.0429 H       1  LIG1        0.0826
     35 C          -6.3970   -3.8462    1.2034 C.3     1  LIG1       -0.0359
     36 H          -6.4747   -4.6015    1.9876 H       1  LIG1        0.0279
     37 H          -7.4063   -3.6226    0.8464 H       1  LIG1        0.0279
     38 H          -5.9754   -2.9296    1.6161 H       1  LIG1        0.0279
     39 N          -6.5229   -6.6495   -0.1029 N.pl3   1  LIG1       -0.3566
     40 H          -7.4764   -6.3077   -0.1569 H       1  LIG1        0.1424
     41 H          -6.4404   -7.4961   -0.6532 H       1  LIG1        0.1424
@<TRIPOS>BOND
     1    13    12    1
     2    34    31    1
     3    33    32    1
     4    14    12    1
     5    31    32   ar
     6    31    30   ar
     7    32    28   ar
     8    12     3    1
     9    26    25    1
    10    10     8    1
    11    27    25    1
    12    23    21    1
    13    41    39    1
    14    30    39    1
    15    30    29   ar
    16    28    18    1
    17    28    29   ar
    18    25    17    1
    19    17    18   ar
    20    17    16   ar
    21    18    19   ar
    22     3     2   ar
    23     3     4   ar
    24    40    39    1
    25     9     8    1
    26    19    20    1
    27    19    15   ar
    28    16    15   ar
    29    16    21    1
    30     8     2    1
    31     8    11    1
    32    29    35    1
    33    15     4    1
    34    21    24    1
    35    21    22    1
    36     2     1   ar
    37     4     5   ar
    38    37    35    1
    39    35    38    1
    40    35    36    1
    41     1     5   ar
    42     1     7    1
    43     5     6    1
