@<TRIPOS>MOLECULE
mol_data/opt/m06hf/geoms/mol2/13ih4ff-12fe4id-.out
 51 54 0 0 0
SMALL
GASTEIGER

@<TRIPOS>ATOM
      1 C           1.2001   -0.1183    0.7919 C.ar    1  LIG1        0.0069
      2 C           0.9208    1.1082    0.2422 C.ar    1  LIG1       -0.0119
      3 C          -0.4722    1.1126   -0.0714 C.ar    1  LIG1        0.0532
      4 C          -0.9884   -0.1185    0.2937 C.ar    1  LIG1        0.0713
      5 N           0.0534   -0.8542    0.8138 N.ar    1  LIG1       -0.3588
      6 H          -0.0675   -1.7306    1.2949 H       1  LIG1        0.1654
      7 H           2.1240   -0.5086    1.1841 H       1  LIG1        0.0810
      8 C           1.8570    2.2631    0.0017 C.3     1  LIG1       -0.0365
      9 H           1.3771    3.1876    0.3247 H       1  LIG1        0.0279
     10 H           2.1013    2.3606   -1.0586 H       1  LIG1        0.0279
     11 H           2.7858    2.1257    0.5558 H       1  LIG1        0.0279
     12 N          -1.1233    2.2220   -0.6520 N.pl3   1  LIG1       -0.3561
     13 H          -0.8697    2.3485   -1.6257 H       1  LIG1        0.1424
     14 H          -2.1280    2.1686   -0.5392 H       1  LIG1        0.1424
     15 C          -3.5063   -0.0393    0.4129 C.ar    1  LIG1        0.1269
     16 C          -4.7320   -0.6796    0.3071 C.ar    1  LIG1       -0.0052
     17 C          -2.3182   -0.7321    0.1472 C.ar    1  LIG1        0.0450
     18 C          -4.8209   -2.0232   -0.0632 C.ar    1  LIG1        0.0658
     19 H          -5.6477   -0.1396    0.5214 H       1  LIG1        0.0662
     20 C          -2.4192   -2.0714   -0.2428 C.ar    1  LIG1       -0.0068
     21 C          -3.6427   -2.7207   -0.3552 C.ar    1  LIG1        0.1285
     22 H          -1.5105   -2.6045   -0.5019 H       1  LIG1        0.0662
     23 O          -3.4173    1.2711    0.7972 O.3     1  LIG1       -0.5061
     24 H          -4.2792    1.6004    1.0718 H       1  LIG1        0.2922
     25 O          -3.7337   -4.0176   -0.7678 O.3     1  LIG1       -0.5060
     26 H          -2.8642   -4.3492   -1.0140 H       1  LIG1        0.2922
     27 C          -6.1439   -2.6409   -0.1642 C.ar    1  LIG1        0.1817
     28 C          -7.3758   -2.1113   -0.3974 C.ar    1  LIG1        0.1791
     29 C          -8.3156   -3.2011   -0.3762 C.ar    1  LIG1        0.1124
     30 C          -7.5729   -4.3246   -0.1124 C.ar    1  LIG1        0.1550
     31 O          -6.2862   -3.9790    0.0182 O.2     1  LIG1       -0.4496
     32 O          -7.6760   -0.8107   -0.6203 O.3     1  LIG1       -0.5024
     33 H          -8.6073   -0.7441   -0.8687 H       1  LIG1        0.2923
     34 C          -9.6927   -3.0250   -0.7132 C.1     1  LIG1       -0.0622
     35 C         -10.8278   -2.7712   -1.0233 C.1     1  LIG1       -0.1137
     36 H         -11.8362   -2.5709   -1.3052 H       1  LIG1        0.1232
     37 C          -8.9883   -6.3255    0.5405 C.ar    1  LIG1       -0.0397
     38 C          -9.1325   -7.7170    0.5244 C.ar    1  LIG1       -0.0570
     39 C          -7.8427   -5.7732   -0.0519 C.ar    1  LIG1        0.0227
     40 C          -8.1737   -8.5465   -0.0356 C.ar    1  LIG1       -0.0441
     41 H         -10.0123   -8.1545    0.9790 H       1  LIG1        0.0621
     42 C          -6.8531   -6.5986   -0.5964 C.ar    1  LIG1       -0.0334
     43 C          -7.0239   -7.9774   -0.5882 C.ar    1  LIG1        0.0525
     44 H          -5.9581   -6.1554   -1.0147 H       1  LIG1        0.0637
     45 H          -8.2974   -9.6208   -0.0367 H       1  LIG1        0.0630
     46 C         -10.0445   -5.4814    1.2260 C.3     1  LIG1       -0.0390
     47 H         -10.5341   -6.0713    2.0004 H       1  LIG1        0.0278
     48 H         -10.7931   -5.1494    0.5063 H       1  LIG1        0.0278
     49 H          -9.5961   -4.5977    1.6801 H       1  LIG1        0.0278
     50 N          -5.1916   -9.5046   -1.6158 N.1     1  LIG1       -0.1909
     51 C          -5.9998   -8.8289   -1.1610 C.1     1  LIG1        0.0992
@<TRIPOS>BOND
     1    13    12    1
     2    50    51    3
     3    36    35    1
     4    51    43    1
     5    10     8    1
     6    35    34    3
     7    44    42    1
     8    26    25    1
     9    33    32    1
    10    25    21    1
    11    34    29    1
    12    12    14    1
    13    12     3    1
    14    32    28    1
    15    42    43   ar
    16    42    39   ar
    17    43    40   ar
    18    22    20    1
    19    28    29   ar
    20    28    27   ar
    21    29    30   ar
    22    21    20   ar
    23    21    18   ar
    24    20    17   ar
    25    27    18    1
    26    27    31   ar
    27    30    39    1
    28    30    31   ar
    29     3     2   ar
    30     3     4   ar
    31    18    16   ar
    32    39    37   ar
    33    45    40    1
    34    40    38   ar
    35     8     2    1
    36     8     9    1
    37     8    11    1
    38    17     4    1
    39    17    15   ar
    40     2     1   ar
    41     4     5   ar
    42    16    15   ar
    43    16    19    1
    44    15    23    1
    45    48    46    1
    46    38    37   ar
    47    38    41    1
    48    37    46    1
    49     1     5   ar
    50     1     7    1
    51    23    24    1
    52     5     6    1
    53    46    49    1
    54    46    47    1
