@<TRIPOS>MOLECULE
mol_data/opt/m06hf/geoms/mol2/13ih13ih13ih13ih.out
 54 57 0 0 0
SMALL
GASTEIGER

@<TRIPOS>ATOM
      1 C           0.4157    0.5407    2.1764 C.ar    1  LIG1        0.0069
      2 C           0.6854    1.1826    0.9910 C.ar    1  LIG1       -0.0118
      3 C          -0.3563    0.8132    0.0861 C.ar    1  LIG1        0.0546
      4 C          -1.2163   -0.0309    0.7533 C.ar    1  LIG1        0.0844
      5 N          -0.7243   -0.1904    2.0310 N.ar    1  LIG1       -0.3578
      6 H          -1.2265   -0.6491    2.7732 H       1  LIG1        0.1654
      7 H           0.9518    0.5662    3.1100 H       1  LIG1        0.0810
      8 C           1.8360    2.1027    0.6741 C.3     1  LIG1       -0.0365
      9 H           1.4617    3.0336    0.2444 H       1  LIG1        0.0279
     10 H           2.5234    1.6474   -0.0435 H       1  LIG1        0.0279
     11 H           2.3959    2.3345    1.5800 H       1  LIG1        0.0279
     12 N          -0.4889    1.2755   -1.2402 N.pl3   1  LIG1       -0.3561
     13 H           0.3878    1.2160   -1.7473 H       1  LIG1        0.1424
     14 H          -1.2035    0.7497   -1.7341 H       1  LIG1        0.1424
     15 C          -2.4378   -0.6784    0.2775 C.ar    1  LIG1        0.0699
     16 C          -3.5408   -0.1259   -0.3476 C.ar    1  LIG1       -0.0024
     17 C          -4.4457   -1.1990   -0.5979 C.ar    1  LIG1        0.0552
     18 C          -3.8774   -2.3581   -0.1131 C.ar    1  LIG1        0.0849
     19 N          -2.6524   -2.0208    0.4173 N.ar    1  LIG1       -0.3501
     20 H          -2.0107   -2.6655    0.8494 H       1  LIG1        0.1661
     21 C          -3.7868    1.3319   -0.6403 C.3     1  LIG1       -0.0359
     22 H          -4.7666    1.6218   -0.2564 H       1  LIG1        0.0279
     23 H          -3.7677    1.5382   -1.7145 H       1  LIG1        0.0279
     24 H          -3.0160    1.9399   -0.1660 H       1  LIG1        0.0279
     25 N          -5.7247   -1.0698   -1.1756 N.pl3   1  LIG1       -0.3561
     26 H          -5.7128   -0.4692   -1.9924 H       1  LIG1        0.1424
     27 H          -6.1083   -1.9777   -1.4196 H       1  LIG1        0.1424
     28 C          -4.4081   -3.7204   -0.1213 C.ar    1  LIG1        0.0699
     29 C          -5.6352   -4.1873    0.3138 C.ar    1  LIG1       -0.0024
     30 C          -5.6444   -5.5923    0.0710 C.ar    1  LIG1        0.0552
     31 C          -4.4324   -5.9367   -0.4884 C.ar    1  LIG1        0.0849
     32 N          -3.6905   -4.7822   -0.5971 N.ar    1  LIG1       -0.3501
     33 H          -2.7576   -4.7309   -0.9725 H       1  LIG1        0.1661
     34 C          -6.7307   -3.3964    0.9811 C.3     1  LIG1       -0.0359
     35 H          -7.0256   -3.8904    1.9087 H       1  LIG1        0.0279
     36 H          -7.6155   -3.3168    0.3431 H       1  LIG1        0.0279
     37 H          -6.3812   -2.3872    1.2008 H       1  LIG1        0.0279
     38 N          -6.6913   -6.4729    0.4110 N.pl3   1  LIG1       -0.3561
     39 H          -7.5965   -6.1041    0.1396 H       1  LIG1        0.1424
     40 H          -6.5499   -7.3842   -0.0134 H       1  LIG1        0.1424
     41 C          -3.9502   -7.2490   -0.9172 C.ar    1  LIG1        0.0695
     42 C          -3.9145   -8.4441   -0.2280 C.ar    1  LIG1       -0.0031
     43 C          -3.3672   -9.4151   -1.1230 C.ar    1  LIG1        0.0457
     44 C          -3.0865   -8.7817   -2.3090 C.ar    1  LIG1        0.0233
     45 N          -3.4323   -7.4614   -2.1669 N.ar    1  LIG1       -0.3576
     46 H          -3.4466   -6.7781   -2.9059 H       1  LIG1        0.1654
     47 H          -2.6629   -9.1613   -3.2226 H       1  LIG1        0.0826
     48 C          -4.2900   -8.6822    1.2118 C.3     1  LIG1       -0.0359
     49 H          -3.4778   -9.2063    1.7185 H       1  LIG1        0.0279
     50 H          -5.1929   -9.2937    1.2962 H       1  LIG1        0.0279
     51 H          -4.4795   -7.7304    1.7084 H       1  LIG1        0.0279
     52 N          -3.0976  -10.7551   -0.7579 N.pl3   1  LIG1       -0.3566
     53 H          -3.9185  -11.2099   -0.3725 H       1  LIG1        0.1424
     54 H          -2.7509  -11.3010   -1.5380 H       1  LIG1        0.1424
@<TRIPOS>BOND
     1    47    44    1
     2    46    45    1
     3    44    45   ar
     4    44    43   ar
     5    45    41   ar
     6    26    25    1
     7    13    12    1
     8    14    12    1
     9    23    21    1
    10    54    52    1
    11    27    25    1
    12    12     3    1
    13    25    17    1
    14    43    52    1
    15    43    42   ar
    16    33    32    1
    17    41    31    1
    18    41    42   ar
    19    52    53    1
    20    21    16    1
    21    21    22    1
    22    21    24    1
    23    17    16   ar
    24    17    18   ar
    25    32    31   ar
    26    32    28   ar
    27    31    30   ar
    28    16    15   ar
    29    42    48    1
    30    28    18    1
    31    28    29   ar
    32    18    19   ar
    33    10     8    1
    34    40    38    1
    35    30    29   ar
    36    30    38    1
    37     3     4   ar
    38     3     2   ar
    39    39    38    1
    40     9     8    1
    41    15    19   ar
    42    15     4    1
    43    29    34    1
    44    36    34    1
    45    19    20    1
    46     8     2    1
    47     8    11    1
    48     4     5   ar
    49    34    37    1
    50    34    35    1
    51     2     1   ar
    52    48    50    1
    53    48    51    1
    54    48    49    1
    55     5     1   ar
    56     5     6    1
    57     1     7    1
