@<TRIPOS>MOLECULE
mol_data/opt/m06hf/geoms/mol2/13ih4fl6ee4hh-.out
 50 53 0 0 0
SMALL
GASTEIGER

@<TRIPOS>ATOM
      1 C           1.2685   -0.1641    0.6480 C.ar    1  LIG1        0.0087
      2 C           0.7577    1.0561    1.0189 C.ar    1  LIG1        0.0090
      3 C          -0.6231    1.0311    0.6757 C.ar    1  LIG1        0.1463
      4 C          -0.9060   -0.2008    0.1156 C.ar    1  LIG1        0.1065
      5 N           0.2670   -0.9215    0.1142 N.ar    1  LIG1       -0.3563
      6 H           0.3993   -1.7935   -0.3712 H       1  LIG1        0.1655
      7 H           2.2755   -0.5400    0.7145 H       1  LIG1        0.0811
      8 C           1.4614    2.2131    1.6780 C.3     1  LIG1       -0.0348
      9 H           1.0552    2.3849    2.6751 H       1  LIG1        0.0279
     10 H           1.3161    3.1212    1.0926 H       1  LIG1        0.0279
     11 H           2.5289    2.0103    1.7603 H       1  LIG1        0.0279
     12 O          -1.4851    2.0410    0.9720 O.3     1  LIG1       -0.5043
     13 H          -1.9567    2.3441    0.1835 H       1  LIG1        0.2922
     14 C          -2.1642   -0.7653   -0.3396 C.ar    1  LIG1        0.0882
     15 C          -3.2345   -0.1495   -0.9771 C.ar    1  LIG1        0.1204
     16 C          -4.2337   -1.1392   -1.1906 C.ar    1  LIG1        0.1602
     17 C          -3.7532   -2.3272   -0.6939 C.ar    1  LIG1        0.0936
     18 N          -2.4865   -2.0712   -0.1930 N.ar    1  LIG1       -0.3489
     19 H          -1.9509   -2.7465    0.3343 H       1  LIG1        0.1661
     20 N          -3.1811    2.3310   -1.6641 N.1     1  LIG1       -0.1907
     21 C          -3.2429    1.2185   -1.3781 C.1     1  LIG1        0.1050
     22 O          -5.4168   -0.8940   -1.7998 O.3     1  LIG1       -0.5034
     23 H          -5.8155   -1.7222   -2.0935 H       1  LIG1        0.2923
     24 C          -3.6907   -4.8292   -0.9379 C.ar    1  LIG1        0.1263
     25 C          -4.4008   -3.6430   -0.6255 C.ar    1  LIG1        0.0426
     26 C          -5.7338   -3.7822   -0.2816 C.ar    1  LIG1       -0.0317
     27 C          -6.3326   -5.0496   -0.2215 C.ar    1  LIG1        0.0528
     28 C          -5.5122   -6.1616   -0.4518 C.ar    1  LIG1        0.1057
     29 N          -4.2328   -6.0287   -0.8359 N.ar    1  LIG1       -0.2290
     30 H          -6.3265   -2.9062   -0.0455 H       1  LIG1        0.0638
     31 N          -2.3584   -4.7609   -1.3141 N.pl3   1  LIG1       -0.3426
     32 H          -2.0061   -5.6454   -1.6555 H       1  LIG1        0.1437
     33 H          -2.1172   -3.9616   -1.8875 H       1  LIG1        0.1437
     34 C          -7.7503   -5.1452   -0.0077 C.1     1  LIG1       -0.0674
     35 C          -8.9427   -5.1772    0.1363 C.1     1  LIG1       -0.1138
     36 H          -9.9967   -5.2385    0.2786 H       1  LIG1        0.1232
     37 C          -5.9765   -7.5554   -0.3662 C.ar    1  LIG1        0.0820
     38 C          -6.8454   -8.2410    0.4742 C.ar    1  LIG1        0.0543
     39 C          -6.8236   -9.6161    0.0826 C.ar    1  LIG1       -0.0171
     40 C          -5.9388   -9.7097   -0.9640 C.ar    1  LIG1        0.0063
     41 N          -5.4340   -8.4702   -1.2138 N.ar    1  LIG1       -0.3582
     42 H          -4.7217   -8.2235   -1.8839 H       1  LIG1        0.1654
     43 H          -5.6381  -10.5672   -1.5418 H       1  LIG1        0.0810
     44 C          -7.5487   -7.7513    1.6206 C.1     1  LIG1       -0.0672
     45 C          -8.1307   -7.3994    2.6123 C.1     1  LIG1       -0.1138
     46 H          -8.6380   -7.0684    3.4877 H       1  LIG1        0.1232
     47 C          -7.6111  -10.7230    0.7326 C.3     1  LIG1       -0.0371
     48 H          -7.3935  -11.6754    0.2498 H       1  LIG1        0.0278
     49 H          -8.6806  -10.5242    0.6563 H       1  LIG1        0.0278
     50 H          -7.3545  -10.7953    1.7903 H       1  LIG1        0.0278
@<TRIPOS>BOND
     1    23    22    1
     2    33    31    1
     3    42    41    1
     4    22    16    1
     5    20    21    3
     6    32    31    1
     7    43    40    1
     8    21    15    1
     9    31    24    1
    10    41    40   ar
    11    41    37   ar
    12    16    15   ar
    13    16    17   ar
    14    15    14   ar
    15    40    39   ar
    16    24    29   ar
    17    24    25   ar
    18    29    28   ar
    19    17    25    1
    20    17    18   ar
    21    25    26   ar
    22    28    37    1
    23    28    27   ar
    24     6     5    1
    25    37    38   ar
    26    14    18   ar
    27    14     4    1
    28    26    27   ar
    29    26    30    1
    30    27    34    1
    31    18    19    1
    32    34    35    3
    33    39    38   ar
    34    39    47    1
    35     5     4   ar
    36     5     1   ar
    37     4     3   ar
    38    35    36    1
    39    13    12    1
    40    48    47    1
    41    38    44    1
    42     1     7    1
    43     1     2   ar
    44    49    47    1
    45     3    12    1
    46     3     2   ar
    47    47    50    1
    48     2     8    1
    49    10     8    1
    50    44    45    3
    51     8    11    1
    52     8     9    1
    53    45    46    1
