@<TRIPOS>MOLECULE
mol_data/opt/m06hf/geoms/mol2/13ih13ih13ih-13ih-.out
 54 57 0 0 0
SMALL
GASTEIGER

@<TRIPOS>ATOM
      1 C           1.1976    0.1552    0.7579 C.ar    1  LIG1        0.0069
      2 C           0.8230    1.1936   -0.0618 C.ar    1  LIG1       -0.0118
      3 C          -0.5575    0.9905   -0.3654 C.ar    1  LIG1        0.0546
      4 C          -0.9691   -0.1529    0.2832 C.ar    1  LIG1        0.0844
      5 N           0.1214   -0.6532    0.9623 N.ar    1  LIG1       -0.3578
      6 H           0.0748   -1.4211    1.6112 H       1  LIG1        0.1654
      7 H           2.1524   -0.0538    1.2105 H       1  LIG1        0.0810
      8 C           1.6722    2.3349   -0.5591 C.3     1  LIG1       -0.0365
      9 H           1.1816    3.2867   -0.3481 H       1  LIG1        0.0279
     10 H           1.8375    2.2671   -1.6374 H       1  LIG1        0.0279
     11 H           2.6445    2.3258   -0.0664 H       1  LIG1        0.0279
     12 N          -1.3551    1.8428   -1.1569 N.pl3   1  LIG1       -0.3561
     13 H          -0.8763    2.1250   -2.0054 H       1  LIG1        0.1424
     14 H          -2.2344    1.3952   -1.3964 H       1  LIG1        0.1424
     15 C          -2.2840   -0.7900    0.3039 C.ar    1  LIG1        0.0699
     16 C          -3.5269   -0.2562    0.5760 C.ar    1  LIG1       -0.0024
     17 C          -4.4630   -1.3246    0.4399 C.ar    1  LIG1        0.0552
     18 C          -3.7655   -2.4688    0.1047 C.ar    1  LIG1        0.0849
     19 N          -2.4468   -2.1266    0.0278 N.ar    1  LIG1       -0.3501
     20 H          -1.7143   -2.7262   -0.3166 H       1  LIG1        0.1661
     21 C          -3.8319    1.1601    0.9945 C.3     1  LIG1       -0.0359
     22 H          -4.4280    1.1647    1.9095 H       1  LIG1        0.0279
     23 H          -4.3931    1.6923    0.2219 H       1  LIG1        0.0279
     24 H          -2.9020    1.7002    1.1733 H       1  LIG1        0.0279
     25 N          -5.8846   -1.2879    0.6277 N.pl3   1  LIG1       -0.3561
     26 H          -6.1152   -1.1174    1.6041 H       1  LIG1        0.1424
     27 H          -6.2960   -0.5347    0.0824 H       1  LIG1        0.1424
     28 C          -4.2655   -3.8151   -0.1458 C.ar    1  LIG1        0.0699
     29 C          -3.6153   -5.0239   -0.3419 C.ar    1  LIG1       -0.0024
     30 C          -4.6371   -5.9943   -0.5368 C.ar    1  LIG1        0.0552
     31 C          -5.8586   -5.3561   -0.4302 C.ar    1  LIG1        0.0849
     32 N          -5.6075   -4.0307   -0.1940 N.ar    1  LIG1       -0.3501
     33 H          -6.2666   -3.2925    0.0381 H       1  LIG1        0.1661
     34 C          -2.1366   -5.3211   -0.3167 C.3     1  LIG1       -0.0359
     35 H          -1.6498   -4.8077    0.5163 H       1  LIG1        0.0279
     36 H          -1.6374   -5.0391   -1.2486 H       1  LIG1        0.0279
     37 H          -2.0005   -6.3932   -0.1685 H       1  LIG1        0.0279
     38 N          -4.4159   -7.3741   -0.7662 N.pl3   1  LIG1       -0.3561
     39 H          -5.3033   -7.8538   -0.8852 H       1  LIG1        0.1424
     40 H          -3.8546   -7.5203   -1.5999 H       1  LIG1        0.1424
     41 C          -7.2053   -5.9139   -0.5438 C.ar    1  LIG1        0.0695
     42 C          -7.7616   -7.0203    0.0674 C.ar    1  LIG1       -0.0031
     43 C          -9.1015   -7.1230   -0.4180 C.ar    1  LIG1        0.0457
     44 C          -9.3131   -6.0837   -1.2907 C.ar    1  LIG1        0.0233
     45 N          -8.1559   -5.3498   -1.3489 N.ar    1  LIG1       -0.3576
     46 H          -7.9814   -4.5711   -1.9622 H       1  LIG1        0.1654
     47 H         -10.1886   -5.8079   -1.8526 H       1  LIG1        0.0826
     48 C          -7.1367   -7.8995    1.1201 C.3     1  LIG1       -0.0359
     49 H          -6.2038   -7.4554    1.4690 H       1  LIG1        0.0279
     50 H          -6.9156   -8.9002    0.7369 H       1  LIG1        0.0279
     51 H          -7.8256   -8.0060    1.9599 H       1  LIG1        0.0279
     52 N         -10.0266   -8.0945    0.0353 N.pl3   1  LIG1       -0.3566
     53 H         -10.9183   -8.0225   -0.4401 H       1  LIG1        0.1424
     54 H          -9.6646   -9.0353   -0.0817 H       1  LIG1        0.1424
@<TRIPOS>BOND
     1    13    12    1
     2    46    45    1
     3    47    44    1
     4    10     8    1
     5    40    38    1
     6    14    12    1
     7    45    44   ar
     8    45    41   ar
     9    44    43   ar
    10    36    34    1
    11    12     3    1
    12    39    38    1
    13    38    30    1
    14     8     9    1
    15     8    11    1
    16     8     2    1
    17    41    31    1
    18    41    42   ar
    19    30    31   ar
    20    30    29   ar
    21    53    52    1
    22    31    32   ar
    23    43    52    1
    24    43    42   ar
    25     3     2   ar
    26     3     4   ar
    27    29    34    1
    28    29    28   ar
    29    34    37    1
    30    34    35    1
    31    20    19    1
    32    32    28   ar
    33    32    33    1
    34    28    18    1
    35    54    52    1
    36     2     1   ar
    37    19    18   ar
    38    19    15   ar
    39    42    48    1
    40    27    25    1
    41    18    17   ar
    42    23    21    1
    43     4    15    1
    44     4     5   ar
    45    15    16   ar
    46    17    16   ar
    47    17    25    1
    48    16    21    1
    49    25    26    1
    50    50    48    1
    51     1     5   ar
    52     1     7    1
    53     5     6    1
    54    21    24    1
    55    21    22    1
    56    48    49    1
    57    48    51    1
