@<TRIPOS>MOLECULE
mol_data/opt/m06hf/geoms/mol2/13ih13ih-13ih.out
 41 43 0 0 0
SMALL
GASTEIGER

@<TRIPOS>ATOM
      1 C           1.2566   -0.3186   -0.0151 C.ar    1  LIG1        0.0069
      2 C           0.8174    0.9792   -0.0853 C.ar    1  LIG1       -0.0118
      3 C          -0.6096    0.9189   -0.1080 C.ar    1  LIG1        0.0546
      4 C          -0.9829   -0.4090   -0.0518 C.ar    1  LIG1        0.0844
      5 N           0.1655   -1.1455    0.0036 N.ar    1  LIG1       -0.3578
      6 H           0.1962   -2.1491    0.0664 H       1  LIG1        0.1654
      7 H           2.2574   -0.7135    0.0233 H       1  LIG1        0.0810
      8 C           1.6512    2.2345   -0.1324 C.3     1  LIG1       -0.0365
      9 H           1.4144    2.8902    0.7083 H       1  LIG1        0.0279
     10 H           1.4694    2.7876   -1.0564 H       1  LIG1        0.0279
     11 H           2.7113    1.9862   -0.0848 H       1  LIG1        0.0279
     12 N          -1.5438    2.0059   -0.1720 N.pl3   1  LIG1       -0.3561
     13 H          -1.4298    2.6292    0.6231 H       1  LIG1        0.1424
     14 H          -1.4071    2.5534   -1.0177 H       1  LIG1        0.1424
     15 C          -2.3221   -0.9877   -0.0492 C.ar    1  LIG1        0.0699
     16 C          -2.7805   -2.2931   -0.0342 C.ar    1  LIG1       -0.0024
     17 C          -4.2032   -2.2094   -0.0458 C.ar    1  LIG1        0.0552
     18 C          -4.5553   -0.8705   -0.0648 C.ar    1  LIG1        0.0849
     19 N          -3.4024   -0.1531   -0.0675 N.ar    1  LIG1       -0.3501
     20 H          -3.2797    0.8563   -0.1088 H       1  LIG1        0.1661
     21 C          -1.9691   -3.5653   -0.0129 C.3     1  LIG1       -0.0359
     22 H          -1.3834   -3.6548    0.9065 H       1  LIG1        0.0279
     23 H          -1.2966   -3.6264   -0.8729 H       1  LIG1        0.0279
     24 H          -2.6385   -4.4256   -0.0588 H       1  LIG1        0.0279
     25 N          -5.1606   -3.2781   -0.0453 N.pl3   1  LIG1       -0.3561
     26 H          -5.0334   -3.8839   -0.8515 H       1  LIG1        0.1424
     27 H          -5.0781   -3.8464    0.7934 H       1  LIG1        0.1424
     28 C          -5.8790   -0.2589   -0.0809 C.ar    1  LIG1        0.0695
     29 C          -6.2836    1.0626   -0.0306 C.ar    1  LIG1       -0.0031
     30 C          -7.7075    1.0431   -0.0808 C.ar    1  LIG1        0.0457
     31 C          -8.1087   -0.2746   -0.1520 C.ar    1  LIG1        0.0233
     32 N          -6.9892   -1.0486   -0.1425 N.ar    1  LIG1       -0.3576
     33 H          -6.9037   -2.0602   -0.1547 H       1  LIG1        0.1654
     34 H          -9.0956   -0.7022   -0.2001 H       1  LIG1        0.0826
     35 C          -5.4381    2.3047    0.0894 C.3     1  LIG1       -0.0359
     36 H          -6.1031    3.1488    0.2742 H       1  LIG1        0.0279
     37 H          -4.8682    2.5008   -0.8232 H       1  LIG1        0.0279
     38 H          -4.7374    2.2257    0.9248 H       1  LIG1        0.0279
     39 N          -8.5151    2.2189   -0.0324 N.pl3   1  LIG1       -0.3566
     40 H          -8.6863    2.5867   -0.9634 H       1  LIG1        0.1424
     41 H          -9.4105    2.0311    0.4043 H       1  LIG1        0.1424
@<TRIPOS>BOND
     1    10     8    1
     2    14    12    1
     3    40    39    1
     4    23    21    1
     5    26    25    1
     6    37    35    1
     7    34    31    1
     8    12     3    1
     9    12    13    1
    10    33    32    1
    11    31    32   ar
    12    31    30   ar
    13    32    28   ar
    14     8     2    1
    15     8    11    1
    16     8     9    1
    17    20    19    1
    18     3     2   ar
    19     3     4   ar
    20     2     1   ar
    21    28    18    1
    22    28    29   ar
    23    30    39    1
    24    30    29   ar
    25    19    18   ar
    26    19    15   ar
    27    18    17   ar
    28    24    21    1
    29     4    15    1
    30     4     5   ar
    31    15    16   ar
    32    17    25    1
    33    17    16   ar
    34    25    27    1
    35    16    21    1
    36    39    41    1
    37    29    35    1
    38     1     5   ar
    39     1     7    1
    40    21    22    1
    41     5     6    1
    42    35    36    1
    43    35    38    1
