@<TRIPOS>MOLECULE
mol_data/opt/m06hf/geoms/mol2/13ih13ih-4ih13ih.out
 56 59 0 0 0
SMALL
GASTEIGER

@<TRIPOS>ATOM
      1 C           1.4092   -0.4489    0.1083 C.ar    1  LIG1        0.0069
      2 C           1.0052    0.7220    0.6993 C.ar    1  LIG1       -0.0118
      3 C          -0.4226    0.7151    0.6660 C.ar    1  LIG1        0.0546
      4 C          -0.8309   -0.4572    0.0620 C.ar    1  LIG1        0.0844
      5 N           0.2970   -1.1514   -0.2687 N.ar    1  LIG1       -0.3578
      6 H           0.2998   -2.0302   -0.7582 H       1  LIG1        0.1654
      7 H           2.3996   -0.8312   -0.0710 H       1  LIG1        0.0810
      8 C           1.8747    1.8107    1.2747 C.3     1  LIG1       -0.0365
      9 H           1.6464    1.9733    2.3301 H       1  LIG1        0.0279
     10 H           1.7224    2.7539    0.7452 H       1  LIG1        0.0279
     11 H           2.9265    1.5379    1.1895 H       1  LIG1        0.0279
     12 N          -1.3268    1.7190    1.1503 N.pl3   1  LIG1       -0.3561
     13 H          -1.2563    1.8128    2.1608 H       1  LIG1        0.1424
     14 H          -1.1074    2.6246    0.7427 H       1  LIG1        0.1424
     15 C          -2.1842   -0.9249   -0.2199 C.ar    1  LIG1        0.0699
     16 C          -2.6728   -2.1143   -0.7395 C.ar    1  LIG1       -0.0024
     17 C          -4.0860   -1.9683   -0.7940 C.ar    1  LIG1        0.0538
     18 C          -4.4098   -0.7167   -0.2951 C.ar    1  LIG1        0.0685
     19 N          -3.2327   -0.1049    0.0421 N.ar    1  LIG1       -0.3513
     20 H          -3.0916    0.7875    0.5077 H       1  LIG1        0.1660
     21 C          -1.9088   -3.3538   -1.1361 C.3     1  LIG1       -0.0359
     22 H          -1.1705   -3.6164   -0.3736 H       1  LIG1        0.0279
     23 H          -1.4023   -3.2431   -2.0997 H       1  LIG1        0.0279
     24 H          -2.6036   -4.1911   -1.2106 H       1  LIG1        0.0279
     25 N          -4.9807   -2.9605   -1.2658 N.pl3   1  LIG1       -0.3561
     26 H          -5.9172   -2.5796   -1.3602 H       1  LIG1        0.1424
     27 H          -4.6864   -3.3097   -2.1723 H       1  LIG1        0.1424
     28 C          -6.0111    1.2223   -0.4949 C.ar    1  LIG1       -0.0406
     29 C          -7.3037    1.7010   -0.2983 C.ar    1  LIG1       -0.0473
     30 C          -5.7378   -0.1018   -0.1114 C.ar    1  LIG1        0.0048
     31 C          -8.3320    0.9186    0.2293 C.ar    1  LIG1        0.0195
     32 H          -7.5328    2.7289   -0.5555 H       1  LIG1        0.0627
     33 C          -6.7529   -0.8919    0.4373 C.ar    1  LIG1       -0.0310
     34 C          -8.0497   -0.4070    0.6011 C.ar    1  LIG1        0.0344
     35 H          -6.5125   -1.9001    0.7593 H       1  LIG1        0.0643
     36 C          -4.9559    2.1185   -1.1204 C.3     1  LIG1       -0.0391
     37 H          -5.4392    2.9377   -1.6527 H       1  LIG1        0.0278
     38 H          -4.3416    1.5511   -1.8207 H       1  LIG1        0.0278
     39 H          -4.2961    2.5516   -0.3640 H       1  LIG1        0.0278
     40 N          -9.0477   -1.2053    1.1876 N.pl3   1  LIG1       -0.3574
     41 H          -9.9675   -1.0435    0.7912 H       1  LIG1        0.1423
     42 H          -8.8166   -2.1901    1.2006 H       1  LIG1        0.1423
     43 C          -9.6858    1.4866    0.4076 C.ar    1  LIG1        0.0530
     44 C         -10.4534    2.2731   -0.4303 C.ar    1  LIG1       -0.0045
     45 C         -11.6498    2.5838    0.2827 C.ar    1  LIG1        0.0456
     46 C         -11.5758    1.9739    1.5126 C.ar    1  LIG1        0.0233
     47 N         -10.3789    1.3147    1.5753 N.ar    1  LIG1       -0.3588
     48 H         -10.0266    0.7801    2.3547 H       1  LIG1        0.1654
     49 H         -12.2723    1.9664    2.3333 H       1  LIG1        0.0826
     50 C         -10.1448    2.7225   -1.8355 C.3     1  LIG1       -0.0360
     51 H         -10.0049    3.8049   -1.8714 H       1  LIG1        0.0279
     52 H         -10.9685    2.4704   -2.5077 H       1  LIG1        0.0279
     53 H          -9.2453    2.2308   -2.2042 H       1  LIG1        0.0279
     54 N         -12.6745    3.4237   -0.2218 N.pl3   1  LIG1       -0.3566
     55 H         -13.0468    3.0726   -1.0986 H       1  LIG1        0.1424
     56 H         -13.4372    3.5238    0.4381 H       1  LIG1        0.1424
@<TRIPOS>BOND
     1    52    50    1
     2    53    50    1
     3    27    25    1
     4    23    21    1
     5    51    50    1
     6    50    44    1
     7    38    36    1
     8    37    36    1
     9    26    25    1
    10    25    17    1
    11    24    21    1
    12    21    16    1
    13    21    22    1
    14    36    28    1
    15    36    39    1
    16    55    54    1
    17    17    16   ar
    18    17    18   ar
    19     6     5    1
    20    16    15   ar
    21    32    29    1
    22    28    29   ar
    23    28    30   ar
    24    44    45   ar
    25    44    43   ar
    26    29    31   ar
    27    18    30    1
    28    18    19   ar
    29     5     4   ar
    30     5     1   ar
    31    54    45    1
    32    54    56    1
    33    15    19   ar
    34    15     4    1
    35    30    33   ar
    36     7     1    1
    37    19    20    1
    38     4     3   ar
    39     1     2   ar
    40    31    43    1
    41    31    34   ar
    42    45    46   ar
    43    43    47   ar
    44    33    34   ar
    45    33    35    1
    46    34    40    1
    47     3     2   ar
    48     3    12    1
    49     2     8    1
    50    14    12    1
    51    10     8    1
    52    41    40    1
    53    12    13    1
    54    40    42    1
    55    11     8    1
    56     8     9    1
    57    46    47   ar
    58    46    49    1
    59    47    48    1
