@<TRIPOS>MOLECULE
mol_data/opt/m06hf/geoms/mol2/13ih13ih-13ih-13ih-.out
 54 57 0 0 0
SMALL
GASTEIGER

@<TRIPOS>ATOM
      1 C           1.3103   -0.2073    0.2090 C.ar    1  LIG1        0.0069
      2 C           0.8201    0.9173    0.8245 C.ar    1  LIG1       -0.0118
      3 C          -0.6034    0.8124    0.7749 C.ar    1  LIG1        0.0546
      4 C          -0.9231   -0.3693    0.1374 C.ar    1  LIG1        0.0844
      5 N           0.2534   -0.9748   -0.1984 N.ar    1  LIG1       -0.3578
      6 H           0.3204   -1.8418   -0.7041 H       1  LIG1        0.1654
      7 H           2.3271   -0.5145    0.0315 H       1  LIG1        0.0810
      8 C           1.6051    2.0505    1.4350 C.3     1  LIG1       -0.0365
      9 H           1.3484    2.1773    2.4887 H       1  LIG1        0.0279
     10 H           1.3980    2.9912    0.9198 H       1  LIG1        0.0279
     11 H           2.6740    1.8516    1.3637 H       1  LIG1        0.0279
     12 N          -1.5813    1.7337    1.2770 N.pl3   1  LIG1       -0.3561
     13 H          -1.5686    1.7580    2.2942 H       1  LIG1        0.1424
     14 H          -1.3921    2.6756    0.9450 H       1  LIG1        0.1424
     15 C          -2.2365   -0.9263   -0.1688 C.ar    1  LIG1        0.0699
     16 C          -2.6322   -2.1681   -0.6406 C.ar    1  LIG1       -0.0024
     17 C          -4.0506   -2.1188   -0.7404 C.ar    1  LIG1        0.0552
     18 C          -4.4663   -0.8736   -0.3083 C.ar    1  LIG1        0.0849
     19 N          -3.3445   -0.1642    0.0321 N.ar    1  LIG1       -0.3501
     20 H          -3.2824    0.7408    0.4910 H       1  LIG1        0.1661
     21 C          -1.7865   -3.3777   -0.9524 C.3     1  LIG1       -0.0359
     22 H          -1.0258   -3.5299   -0.1825 H       1  LIG1        0.0279
     23 H          -1.2967   -3.3057   -1.9283 H       1  LIG1        0.0279
     24 H          -2.4295   -4.2589   -0.9582 H       1  LIG1        0.0279
     25 N          -4.8719   -3.1852   -1.1784 N.pl3   1  LIG1       -0.3561
     26 H          -5.8463   -2.8979   -1.1849 H       1  LIG1        0.1424
     27 H          -4.6154   -3.4857   -2.1137 H       1  LIG1        0.1424
     28 C          -5.8197   -0.3282   -0.2189 C.ar    1  LIG1        0.0699
     29 C          -6.9580   -0.8688    0.3524 C.ar    1  LIG1       -0.0024
     30 C          -8.0032    0.0802    0.1501 C.ar    1  LIG1        0.0552
     31 C          -7.4728    1.1624   -0.5193 C.ar    1  LIG1        0.0849
     32 N          -6.1404    0.8942   -0.7364 N.ar    1  LIG1       -0.3501
     33 H          -5.4877    1.5208   -1.1788 H       1  LIG1        0.1661
     34 C          -7.0725   -2.1595    1.1229 C.3     1  LIG1       -0.0359
     35 H          -6.0786   -2.5573    1.3319 H       1  LIG1        0.0279
     36 H          -7.6346   -2.9179    0.5697 H       1  LIG1        0.0279
     37 H          -7.5930   -1.9750    2.0645 H       1  LIG1        0.0279
     38 N          -9.3257   -0.0509    0.6216 N.pl3   1  LIG1       -0.3561
     39 H          -9.9232    0.6694    0.2281 H       1  LIG1        0.1424
     40 H          -9.7103   -0.9665    0.4141 H       1  LIG1        0.1424
     41 C          -8.1293    2.3943   -0.9546 C.ar    1  LIG1        0.0695
     42 C          -8.9020    3.2833   -0.2349 C.ar    1  LIG1       -0.0031
     43 C          -9.3083    4.3035   -1.1490 C.ar    1  LIG1        0.0457
     44 C          -8.7702    4.0057   -2.3772 C.ar    1  LIG1        0.0233
     45 N          -8.0445    2.8491   -2.2429 N.ar    1  LIG1       -0.3576
     46 H          -7.6160    2.3353   -2.9945 H       1  LIG1        0.1654
     47 H          -8.8362    4.5282   -3.3159 H       1  LIG1        0.0826
     48 C          -9.1945    3.2523    1.2429 C.3     1  LIG1       -0.0359
     49 H          -8.5772    2.4951    1.7267 H       1  LIG1        0.0279
     50 H         -10.2429    3.0139    1.4433 H       1  LIG1        0.0279
     51 H          -8.9815    4.2311    1.6764 H       1  LIG1        0.0279
     52 N         -10.0547    5.4450   -0.7718 N.pl3   1  LIG1       -0.3566
     53 H         -10.2871    6.0282   -1.5668 H       1  LIG1        0.1424
     54 H         -10.9086    5.1892   -0.2874 H       1  LIG1        0.1424
@<TRIPOS>BOND
     1    47    44    1
     2    46    45    1
     3    44    45   ar
     4    44    43   ar
     5    45    41   ar
     6    27    25    1
     7    23    21    1
     8    53    52    1
     9    26    25    1
    10    33    32    1
    11    25    17    1
    12    43    52    1
    13    43    42   ar
    14    24    21    1
    15    41    31    1
    16    41    42   ar
    17    21    16    1
    18    21    22    1
    19    52    54    1
    20    17    16   ar
    21    17    18   ar
    22    32    31   ar
    23    32    28   ar
    24     6     5    1
    25    16    15   ar
    26    31    30   ar
    27    18    28    1
    28    18    19   ar
    29    42    48    1
    30    28    29   ar
    31     5     4   ar
    32     5     1   ar
    33    15    19   ar
    34    15     4    1
    35     7     1    1
    36    19    20    1
    37     4     3   ar
    38    30    29   ar
    39    30    38    1
    40     1     2   ar
    41    39    38    1
    42    29    34    1
    43    40    38    1
    44    36    34    1
    45     3     2   ar
    46     3    12    1
    47     2     8    1
    48    10     8    1
    49    14    12    1
    50    34    35    1
    51    34    37    1
    52    48    50    1
    53    48    51    1
    54    48    49    1
    55    12    13    1
    56    11     8    1
    57     8     9    1
