@<TRIPOS>MOLECULE
mol_data/opt/m06hf/geoms/mol2/13ih13ih13ih-13ih.out
 54 57 0 0 0
SMALL
GASTEIGER

@<TRIPOS>ATOM
      1 C           1.1062    0.2379    1.0282 C.ar    1  LIG1        0.0069
      2 C           0.8668    1.1253    0.0057 C.ar    1  LIG1       -0.0118
      3 C          -0.4675    0.8777   -0.4387 C.ar    1  LIG1        0.0546
      4 C          -0.9875   -0.1406    0.3295 C.ar    1  LIG1        0.0844
      5 N          -0.0067   -0.5225    1.2201 N.ar    1  LIG1       -0.3578
      6 H          -0.1560   -1.1666    1.9787 H       1  LIG1        0.1654
      7 H           1.9885    0.1068    1.6321 H       1  LIG1        0.0810
      8 C           1.8016    2.1634   -0.5593 C.3     1  LIG1       -0.0365
      9 H           1.3098    3.1376   -0.5816 H       1  LIG1        0.0279
     10 H           2.1058    1.9113   -1.5784 H       1  LIG1        0.0279
     11 H           2.6998    2.2384    0.0536 H       1  LIG1        0.0279
     12 N          -1.1364    1.5900   -1.4564 N.pl3   1  LIG1       -0.3561
     13 H          -0.5523    1.7088   -2.2773 H       1  LIG1        0.1424
     14 H          -1.9970    1.1191   -1.7199 H       1  LIG1        0.1424
     15 C          -2.3092   -0.7623    0.2747 C.ar    1  LIG1        0.0699
     16 C          -3.5637   -0.1896    0.3167 C.ar    1  LIG1       -0.0024
     17 C          -4.5005   -1.2593    0.2044 C.ar    1  LIG1        0.0552
     18 C          -3.7933   -2.4427    0.1025 C.ar    1  LIG1        0.0849
     19 N          -2.4682   -2.1226    0.1476 N.ar    1  LIG1       -0.3501
     20 H          -1.7072   -2.7680    0.0109 H       1  LIG1        0.1661
     21 C          -3.8857    1.2725    0.4956 C.3     1  LIG1       -0.0359
     22 H          -4.5303    1.4183    1.3652 H       1  LIG1        0.0279
     23 H          -4.4039    1.6709   -0.3803 H       1  LIG1        0.0279
     24 H          -2.9657    1.8396    0.6379 H       1  LIG1        0.0279
     25 N          -5.9333   -1.1883    0.2092 N.pl3   1  LIG1       -0.3561
     26 H          -6.2705   -0.7549    1.0653 H       1  LIG1        0.1424
     27 H          -6.2694   -0.6301   -0.5715 H       1  LIG1        0.1424
     28 C          -4.2975   -3.8033   -0.0346 C.ar    1  LIG1        0.0699
     29 C          -3.6657   -5.0258   -0.1798 C.ar    1  LIG1       -0.0024
     30 C          -4.7054   -5.9958   -0.2724 C.ar    1  LIG1        0.0552
     31 C          -5.9195   -5.3353   -0.1796 C.ar    1  LIG1        0.0849
     32 N          -5.6469   -4.0132   -0.0378 N.ar    1  LIG1       -0.3501
     33 H          -6.2956   -3.2331    0.0415 H       1  LIG1        0.1661
     34 C          -2.1844   -5.3077   -0.2343 C.3     1  LIG1       -0.0359
     35 H          -1.6852   -5.0146    0.6933 H       1  LIG1        0.0279
     36 H          -1.7083   -4.7936   -1.0740 H       1  LIG1        0.0279
     37 H          -2.0218   -6.3778   -0.3704 H       1  LIG1        0.0279
     38 N          -4.5898   -7.4162   -0.4373 N.pl3   1  LIG1       -0.3561
     39 H          -4.0749   -7.6472   -1.2828 H       1  LIG1        0.1424
     40 H          -4.1098   -7.8409    0.3515 H       1  LIG1        0.1424
     41 C          -7.2742   -5.8725   -0.2191 C.ar    1  LIG1        0.0695
     42 C          -8.5081   -5.2660   -0.0701 C.ar    1  LIG1       -0.0031
     43 C          -9.4777   -6.3006   -0.2113 C.ar    1  LIG1        0.0457
     44 C          -8.8024   -7.4835   -0.4318 C.ar    1  LIG1        0.0233
     45 N          -7.4704   -7.2065   -0.4258 N.ar    1  LIG1       -0.3576
     46 H          -6.6802   -7.8342   -0.5349 H       1  LIG1        0.1654
     47 H          -9.1758   -8.4819   -0.5825 H       1  LIG1        0.0826
     48 C          -8.8224   -3.8213    0.2234 C.3     1  LIG1       -0.0359
     49 H          -9.8863   -3.7487    0.4509 H       1  LIG1        0.0279
     50 H          -8.6010   -3.1728   -0.6291 H       1  LIG1        0.0279
     51 H          -8.2570   -3.4624    1.0875 H       1  LIG1        0.0279
     52 N         -10.8842   -6.0826   -0.1022 N.pl3   1  LIG1       -0.3566
     53 H         -11.3015   -5.8962   -1.0090 H       1  LIG1        0.1424
     54 H         -11.3519   -6.8840    0.3056 H       1  LIG1        0.1424
@<TRIPOS>BOND
     1    13    12    1
     2    14    12    1
     3    10     8    1
     4    12     3    1
     5    39    38    1
     6    36    34    1
     7    53    52    1
     8    50    48    1
     9    47    44    1
    10     9     8    1
    11    27    25    1
    12     8     2    1
    13     8    11    1
    14    46    45    1
    15     3     2   ar
    16     3     4   ar
    17    38    30    1
    18    38    40    1
    19    44    45   ar
    20    44    43   ar
    21    45    41   ar
    22    23    21    1
    23    37    34    1
    24    30    29   ar
    25    30    31   ar
    26    34    29    1
    27    34    35    1
    28    41    31    1
    29    41    42   ar
    30    43    52    1
    31    43    42   ar
    32    29    28   ar
    33    31    32   ar
    34    52    54    1
    35    42    48    1
    36    32    28   ar
    37    32    33    1
    38    28    18    1
    39     2     1   ar
    40    20    19    1
    41    18    19   ar
    42    18    17   ar
    43    19    15   ar
    44    17    25    1
    45    17    16   ar
    46    25    26    1
    47    48    49    1
    48    48    51    1
    49    15    16   ar
    50    15     4    1
    51    16    21    1
    52     4     5   ar
    53    21    24    1
    54    21    22    1
    55     1     5   ar
    56     1     7    1
    57     5     6    1
