@<TRIPOS>MOLECULE
mol_data/opt/m06hf/geoms/mol2/13ih13ih13ih13ih-.out
 54 57 0 0 0
SMALL
GASTEIGER

@<TRIPOS>ATOM
      1 C           5.1113   -1.6769    1.8844 C.ar    1  LIG1        0.0069
      2 C           5.6104   -1.8759    0.6190 C.ar    1  LIG1       -0.0118
      3 C           4.7762   -1.1272   -0.2660 C.ar    1  LIG1        0.0546
      4 C           3.8093   -0.5035    0.4912 C.ar    1  LIG1        0.0844
      5 N           4.0283   -0.8553    1.8060 N.ar    1  LIG1       -0.3578
      6 H           3.5402   -0.4491    2.5867 H       1  LIG1        0.1654
      7 H           5.4606   -2.0587    2.8291 H       1  LIG1        0.0810
      8 C           6.7986   -2.7087    0.2123 C.3     1  LIG1       -0.0365
      9 H           7.4922   -2.1103   -0.3808 H       1  LIG1        0.0279
     10 H           6.4927   -3.5705   -0.3862 H       1  LIG1        0.0279
     11 H           7.3207   -3.0784    1.0949 H       1  LIG1        0.0279
     12 N           4.9497   -1.0205   -1.6613 N.pl3   1  LIG1       -0.3561
     13 H           5.1360   -1.9213   -2.0886 H       1  LIG1        0.1424
     14 H           4.1351   -0.5972   -2.0951 H       1  LIG1        0.1424
     15 C           2.7194    0.3716    0.0632 C.ar    1  LIG1        0.0699
     16 C           2.7583    1.4971   -0.7400 C.ar    1  LIG1       -0.0024
     17 C           1.4151    1.9629   -0.8504 C.ar    1  LIG1        0.0552
     18 C           0.6098    1.1245   -0.1091 C.ar    1  LIG1        0.0849
     19 N           1.4243    0.1603    0.4423 N.ar    1  LIG1       -0.3501
     20 H           1.1086   -0.6017    1.0203 H       1  LIG1        0.1661
     21 C           3.9802    2.1526   -1.3308 C.3     1  LIG1       -0.0359
     22 H           3.9720    3.2199   -1.1011 H       1  LIG1        0.0279
     23 H           4.0145    2.0382   -2.4181 H       1  LIG1        0.0279
     24 H           4.8804    1.6986   -0.9160 H       1  LIG1        0.0279
     25 N           1.0059    3.1231   -1.5393 N.pl3   1  LIG1       -0.3561
     26 H           1.4608    3.2047   -2.4421 H       1  LIG1        0.1424
     27 H          -0.0025    3.1357   -1.6619 H       1  LIG1        0.1424
     28 C          -0.8340    1.1804    0.1136 C.ar    1  LIG1        0.0699
     29 C          -1.6238    2.2207    0.5579 C.ar    1  LIG1       -0.0024
     30 C          -2.9618    1.7271    0.5884 C.ar    1  LIG1        0.0552
     31 C          -2.9450    0.4099    0.1718 C.ar    1  LIG1        0.0849
     32 N          -1.6486    0.0954   -0.1113 N.ar    1  LIG1       -0.3501
     33 H          -1.3444   -0.7698   -0.5280 H       1  LIG1        0.1661
     34 C          -1.1629    3.5928    0.9811 C.3     1  LIG1       -0.0359
     35 H          -1.4272    3.7811    2.0242 H       1  LIG1        0.0279
     36 H          -1.6304    4.3683    0.3691 H       1  LIG1        0.0279
     37 H          -0.0816    3.6739    0.8683 H       1  LIG1        0.0279
     38 N          -4.1537    2.4203    0.9866 N.pl3   1  LIG1       -0.3561
     39 H          -4.0793    2.7348    1.9511 H       1  LIG1        0.1424
     40 H          -4.2965    3.2450    0.4089 H       1  LIG1        0.1424
     41 C          -4.0509   -0.5297    0.0269 C.ar    1  LIG1        0.0695
     42 C          -4.1015   -1.8541   -0.3685 C.ar    1  LIG1       -0.0031
     43 C          -5.4742   -2.2329   -0.3148 C.ar    1  LIG1        0.0457
     44 C          -6.1956   -1.1364    0.1119 C.ar    1  LIG1        0.0233
     45 N          -5.3191   -0.1190    0.3179 N.ar    1  LIG1       -0.3576
     46 H          -5.4937    0.8273    0.6441 H       1  LIG1        0.1654
     47 H          -7.2521   -1.0194    0.2841 H       1  LIG1        0.0826
     48 C          -2.9750   -2.7756   -0.7612 C.3     1  LIG1       -0.0359
     49 H          -2.2131   -2.8286    0.0216 H       1  LIG1        0.0279
     50 H          -2.5025   -2.4669   -1.6984 H       1  LIG1        0.0279
     51 H          -3.3930   -3.7726   -0.8996 H       1  LIG1        0.0279
     52 N          -5.9428   -3.5428   -0.6403 N.pl3   1  LIG1       -0.3566
     53 H          -6.6453   -3.8584    0.0194 H       1  LIG1        0.1424
     54 H          -6.3438   -3.5725   -1.5724 H       1  LIG1        0.1424
@<TRIPOS>BOND
     1    26    25    1
     2    23    21    1
     3    14    12    1
     4    13    12    1
     5    50    48    1
     6    27    25    1
     7    12     3    1
     8    54    52    1
     9    25    17    1
    10    21    22    1
    11    21    24    1
    12    21    16    1
    13    51    48    1
    14    17    16   ar
    15    17    18   ar
    16    48    42    1
    17    48    49    1
    18    16    15   ar
    19    52    43    1
    20    52    53    1
    21    33    32    1
    22    10     8    1
    23     9     8    1
    24    42    43   ar
    25    42    41   ar
    26    43    44   ar
    27     3     4   ar
    28     3     2   ar
    29    32    28   ar
    30    32    31   ar
    31    18    28    1
    32    18    19   ar
    33    41    31    1
    34    41    45   ar
    35    15    19   ar
    36    15     4    1
    37    44    47    1
    38    44    45   ar
    39    28    29   ar
    40    31    30   ar
    41     8     2    1
    42     8    11    1
    43    45    46    1
    44    36    34    1
    45    40    38    1
    46    19    20    1
    47     4     5   ar
    48    29    30   ar
    49    29    34    1
    50    30    38    1
    51     2     1   ar
    52    37    34    1
    53    34    35    1
    54    38    39    1
    55     5     1   ar
    56     5     6    1
    57     1     7    1
