@<TRIPOS>MOLECULE
mol_data/opt/m06hf/geoms/mol2/13ih13ih-13ih13ih-.out
 54 57 0 0 0
SMALL
GASTEIGER

@<TRIPOS>ATOM
      1 C           1.3180   -0.2680   -0.1126 C.ar    1  LIG1        0.0069
      2 C           0.8729    1.0296   -0.0953 C.ar    1  LIG1       -0.0118
      3 C          -0.5534    0.9635   -0.0778 C.ar    1  LIG1        0.0546
      4 C          -0.9207   -0.3677   -0.0834 C.ar    1  LIG1        0.0844
      5 N           0.2312   -1.1000   -0.1045 N.ar    1  LIG1       -0.3578
      6 H           0.2653   -2.1053   -0.1197 H       1  LIG1        0.1654
      7 H           2.3216   -0.6572   -0.1298 H       1  LIG1        0.0810
      8 C           1.7025    2.2881   -0.0957 C.3     1  LIG1       -0.0365
      9 H           1.4969    2.8900    0.7923 H       1  LIG1        0.0279
     10 H           1.4868    2.8971   -0.9765 H       1  LIG1        0.0279
     11 H           2.7637    2.0408   -0.1031 H       1  LIG1        0.0279
     12 N          -1.4911    2.0504   -0.0574 N.pl3   1  LIG1       -0.3561
     13 H          -1.3748    2.6108    0.7835 H       1  LIG1        0.1424
     14 H          -1.3490    2.6623   -0.8572 H       1  LIG1        0.1424
     15 C          -2.2570   -0.9519   -0.0732 C.ar    1  LIG1        0.0699
     16 C          -2.7103   -2.2590   -0.0564 C.ar    1  LIG1       -0.0024
     17 C          -4.1333   -2.1806   -0.0564 C.ar    1  LIG1        0.0552
     18 C          -4.4901   -0.8417   -0.0718 C.ar    1  LIG1        0.0849
     19 N          -3.3394   -0.1203   -0.0811 N.ar    1  LIG1       -0.3501
     20 H          -3.2157    0.8892   -0.0900 H       1  LIG1        0.1661
     21 C          -1.8936   -3.5274   -0.0391 C.3     1  LIG1       -0.0359
     22 H          -1.2427   -3.5728    0.8386 H       1  LIG1        0.0279
     23 H          -1.2846   -3.6264   -0.9423 H       1  LIG1        0.0279
     24 H          -2.5607   -4.3895    0.0024 H       1  LIG1        0.0279
     25 N          -5.0876   -3.2509   -0.0418 N.pl3   1  LIG1       -0.3561
     26 H          -4.9638   -3.8698   -0.8383 H       1  LIG1        0.1424
     27 H          -5.0126   -3.8052    0.8072 H       1  LIG1        0.1424
     28 C          -5.8186   -0.2451   -0.0764 C.ar    1  LIG1        0.0699
     29 C          -6.2444    1.0713   -0.0815 C.ar    1  LIG1       -0.0024
     30 C          -7.6682    1.0214   -0.0873 C.ar    1  LIG1        0.0552
     31 C          -8.0529   -0.3092   -0.0820 C.ar    1  LIG1        0.0849
     32 N          -6.9179   -1.0544   -0.0762 N.ar    1  LIG1       -0.3501
     33 H          -6.8219   -2.0666   -0.0889 H       1  LIG1        0.1661
     34 C          -5.3919    2.3161   -0.0802 C.3     1  LIG1       -0.0359
     35 H          -6.0330    3.1989   -0.0659 H       1  LIG1        0.0279
     36 H          -4.7630    2.3721   -0.9726 H       1  LIG1        0.0279
     37 H          -4.7465    2.3569    0.8011 H       1  LIG1        0.0279
     38 N          -8.6004    2.1130   -0.0981 N.pl3   1  LIG1       -0.3561
     39 H          -8.5162    2.6739    0.7457 H       1  LIG1        0.1424
     40 H          -8.4379    2.7214   -0.8961 H       1  LIG1        0.1424
     41 C          -9.3909   -0.8878   -0.0840 C.ar    1  LIG1        0.0695
     42 C          -9.8278   -2.1980   -0.0136 C.ar    1  LIG1       -0.0031
     43 C         -11.2508   -2.1444   -0.0623 C.ar    1  LIG1        0.0457
     44 C         -11.6197   -0.8182   -0.1531 C.ar    1  LIG1        0.0233
     45 N         -10.4816   -0.0724   -0.1578 N.ar    1  LIG1       -0.3576
     46 H         -10.3697    0.9363   -0.1901 H       1  LIG1        0.1654
     47 H         -12.5966   -0.3682   -0.2067 H       1  LIG1        0.0826
     48 C          -9.0138   -3.4592    0.1235 C.3     1  LIG1       -0.0359
     49 H          -8.2985   -3.3800    0.9464 H       1  LIG1        0.0279
     50 H          -8.4634   -3.6922   -0.7924 H       1  LIG1        0.0279
     51 H          -9.6989   -4.2800    0.3381 H       1  LIG1        0.0279
     52 N         -12.0861   -3.3000    0.0052 N.pl3   1  LIG1       -0.3566
     53 H         -12.9672   -3.0926    0.4613 H       1  LIG1        0.1424
     54 H         -12.2839   -3.6684   -0.9201 H       1  LIG1        0.1424
@<TRIPOS>BOND
     1    10     8    1
     2    36    34    1
     3    23    21    1
     4    54    52    1
     5    40    38    1
     6    14    12    1
     7    26    25    1
     8    50    48    1
     9    47    44    1
    10    46    45    1
    11    45    44   ar
    12    45    41   ar
    13    44    43   ar
    14     7     1    1
    15     6     5    1
    16     1     5   ar
    17     1     2   ar
    18     5     4   ar
    19    11     8    1
    20    38    30    1
    21    38    39    1
    22     8     2    1
    23     8     9    1
    24     2     3   ar
    25    20    19    1
    26    33    32    1
    27    30    31   ar
    28    30    29   ar
    29    41    31    1
    30    41    42   ar
    31     4     3   ar
    32     4    15    1
    33    31    32   ar
    34    29    34    1
    35    29    28   ar
    36    19    15   ar
    37    19    18   ar
    38    34    35    1
    39    34    37    1
    40     3    12    1
    41    28    32   ar
    42    28    18    1
    43    15    16   ar
    44    18    17   ar
    45    43    42   ar
    46    43    52    1
    47    12    13    1
    48    16    17   ar
    49    16    21    1
    50    17    25    1
    51    25    27    1
    52    21    24    1
    53    21    22    1
    54    42    48    1
    55    52    53    1
    56    48    51    1
    57    48    49    1
