@<TRIPOS>MOLECULE
mol_data/opt/m06hf/geoms/mol2/13ih12ih12eh-13lh.out
 52 55 0 0 0
SMALL
GASTEIGER

@<TRIPOS>ATOM
      1 C           1.2752    0.2598    0.2247 C.ar    1  LIG1        0.0070
      2 C           0.7684    1.4543   -0.2365 C.ar    1  LIG1       -0.0118
      3 C          -0.6454    1.2879   -0.3181 C.ar    1  LIG1        0.0562
      4 C          -0.9405    0.0089    0.1097 C.ar    1  LIG1        0.1036
      5 N           0.2482   -0.6031    0.4299 N.ar    1  LIG1       -0.3565
      6 H           0.3153   -1.5485    0.7679 H       1  LIG1        0.1655
      7 H           2.2958   -0.0233    0.4202 H       1  LIG1        0.0810
      8 C           1.5295    2.7047   -0.5959 C.3     1  LIG1       -0.0365
      9 H           1.1565    3.5571   -0.0249 H       1  LIG1        0.0279
     10 H           1.4321    2.9355   -1.6600 H       1  LIG1        0.0279
     11 H           2.5890    2.5774   -0.3746 H       1  LIG1        0.0279
     12 N          -1.5625    2.2723   -0.7373 N.pl3   1  LIG1       -0.3560
     13 H          -1.1616    2.8777   -1.4448 H       1  LIG1        0.1424
     14 H          -2.4178    1.8560   -1.0921 H       1  LIG1        0.1424
     15 C          -2.2178   -0.6747    0.2210 C.ar    1  LIG1        0.1584
     16 C          -3.4479   -0.2395    0.6145 C.ar    1  LIG1        0.0182
     17 C          -4.3193   -1.3849    0.4984 C.ar    1  LIG1        0.0777
     18 C          -3.5370   -2.4169    0.0546 C.ar    1  LIG1        0.1927
     19 O          -2.2507   -1.9828   -0.1140 O.2     1  LIG1       -0.4480
     20 C          -3.8343    1.0967    1.1918 C.3     1  LIG1       -0.0343
     21 H          -4.3212    0.9440    2.1571 H       1  LIG1        0.0279
     22 H          -4.5294    1.6279    0.5354 H       1  LIG1        0.0279
     23 H          -2.9492    1.7178    1.3250 H       1  LIG1        0.0279
     24 N          -5.6414   -1.3891    0.9098 N.pl3   1  LIG1       -0.3547
     25 H          -6.0922   -0.4880    0.8316 H       1  LIG1        0.1424
     26 H          -6.2114   -2.1377    0.5380 H       1  LIG1        0.1424
     27 C          -3.8101   -3.8071   -0.2249 C.ar    1  LIG1        0.1896
     28 C          -4.9450   -4.4705   -0.6167 C.ar    1  LIG1        0.0948
     29 C          -4.5969   -5.8729   -0.7012 C.ar    1  LIG1        0.0889
     30 C          -3.2782   -5.9389   -0.3694 C.ar    1  LIG1        0.1773
     31 O          -2.8073   -4.6870   -0.0708 O.2     1  LIG1       -0.4469
     32 C          -6.2118   -3.9215   -0.9783 C.1     1  LIG1       -0.0639
     33 C          -7.2914   -3.4932   -1.2978 C.1     1  LIG1       -0.1137
     34 H          -8.2403   -3.1166   -1.6021 H       1  LIG1        0.1232
     35 N          -5.4822   -6.8894   -1.0207 N.pl3   1  LIG1       -0.3540
     36 H          -6.2277   -6.5956   -1.6372 H       1  LIG1        0.1425
     37 H          -5.0284   -7.7553   -1.2936 H       1  LIG1        0.1425
     38 C          -2.3207   -7.0257   -0.2938 C.ar    1  LIG1        0.1280
     39 C          -2.4738   -8.3910   -0.4235 C.ar    1  LIG1        0.1689
     40 C          -1.1996   -8.9997   -0.2598 C.ar    1  LIG1        0.0851
     41 C          -0.3025   -7.9823   -0.0399 C.ar    1  LIG1        0.0268
     42 N          -0.9979   -6.7975   -0.0629 N.ar    1  LIG1       -0.3536
     43 H          -0.6101   -5.8769    0.0626 H       1  LIG1        0.1656
     44 H           0.7578   -8.0108    0.1365 H       1  LIG1        0.0827
     45 O          -3.6372   -9.0824   -0.6574 O.3     1  LIG1       -0.4910
     46 C          -4.2214   -9.5852    0.5513 C.3     1  LIG1        0.0790
     47 H          -5.0910  -10.1678    0.2532 H       1  LIG1        0.0660
     48 H          -3.4958  -10.2136    1.0697 H       1  LIG1        0.0660
     49 H          -4.5259   -8.7498    1.1833 H       1  LIG1        0.0660
     50 N          -1.0103  -10.3978   -0.2678 N.pl3   1  LIG1       -0.3540
     51 H          -1.6203  -10.8303   -0.9540 H       1  LIG1        0.1425
     52 H          -0.0498  -10.6588   -0.4553 H       1  LIG1        0.1425
@<TRIPOS>BOND
     1    10     8    1
     2    36    35    1
     3    34    33    1
     4    13    12    1
     5    33    32    3
     6    37    35    1
     7    14    12    1
     8    35    29    1
     9    32    28    1
    10    51    50    1
    11    12     3    1
    12    29    28   ar
    13    29    30   ar
    14    45    39    1
    15    45    46    1
    16    28    27   ar
    17     8    11    1
    18     8     2    1
    19     8     9    1
    20    52    50    1
    21    39    38   ar
    22    39    40   ar
    23    30    38    1
    24    30    31   ar
    25     3     2   ar
    26     3     4   ar
    27    38    42   ar
    28    50    40    1
    29    40    41   ar
    30     2     1   ar
    31    27    31   ar
    32    27    18    1
    33    19    18   ar
    34    19    15   ar
    35    42    41   ar
    36    42    43    1
    37    41    44    1
    38    18    17   ar
    39     4    15    1
    40     4     5   ar
    41    15    16   ar
    42     1     7    1
    43     1     5   ar
    44    47    46    1
    45     5     6    1
    46    17    16   ar
    47    17    24    1
    48    22    20    1
    49    26    24    1
    50    46    48    1
    51    46    49    1
    52    16    20    1
    53    25    24    1
    54    20    23    1
    55    20    21    1
