@<TRIPOS>MOLECULE
mol_data/opt/m06hf/geoms/mol2/13ih13ih-.out
 28 29 0 0 0
SMALL
GASTEIGER

@<TRIPOS>ATOM
      1 C           1.2126   -0.2689   -0.0182 C.ar    1  LIG1        0.0069
      2 C           0.7760    1.0310   -0.0658 C.ar    1  LIG1       -0.0118
      3 C          -0.6512    0.9728   -0.1019 C.ar    1  LIG1        0.0546
      4 C          -1.0262   -0.3551   -0.0726 C.ar    1  LIG1        0.0844
      5 N           0.1203   -1.0934   -0.0216 N.ar    1  LIG1       -0.3578
      6 H           0.1461   -2.0995   -0.0112 H       1  LIG1        0.1654
      7 H           2.2126   -0.6659    0.0175 H       1  LIG1        0.0810
      8 C           1.6111    2.2861   -0.0769 C.3     1  LIG1       -0.0365
      9 H           1.3869    2.9108    0.7904 H       1  LIG1        0.0279
     10 H           1.4191    2.8739   -0.9775 H       1  LIG1        0.0279
     11 H           2.6715    2.0359   -0.0529 H       1  LIG1        0.0279
     12 N          -1.5821    2.0639   -0.1627 N.pl3   1  LIG1       -0.3561
     13 H          -1.4929    2.6577    0.6579 H       1  LIG1        0.1424
     14 H          -1.4021    2.6414   -0.9801 H       1  LIG1        0.1424
     15 C          -2.3619   -0.9423   -0.0934 C.ar    1  LIG1        0.0694
     16 C          -2.8071   -2.2490   -0.0080 C.ar    1  LIG1       -0.0031
     17 C          -4.2284   -2.1912   -0.0894 C.ar    1  LIG1        0.0457
     18 C          -4.5885   -0.8651   -0.2130 C.ar    1  LIG1        0.0233
     19 N          -3.4482   -0.1249   -0.2075 N.ar    1  LIG1       -0.3576
     20 H          -3.3322    0.8835   -0.2567 H       1  LIG1        0.1654
     21 H          -5.5612   -0.4115   -0.2967 H       1  LIG1        0.0826
     22 C          -2.0123   -3.5170    0.1720 C.3     1  LIG1       -0.0359
     23 H          -1.3532   -3.4521    1.0424 H       1  LIG1        0.0279
     24 H          -1.4140   -3.7547   -0.7127 H       1  LIG1        0.0279
     25 H          -2.7169   -4.3320    0.3389 H       1  LIG1        0.0279
     26 N          -5.0678   -3.3441   -0.0204 N.pl3   1  LIG1       -0.3566
     27 H          -5.9215   -3.1497    0.4908 H       1  LIG1        0.1424
     28 H          -5.3180   -3.6776   -0.9461 H       1  LIG1        0.1424
@<TRIPOS>BOND
     1    14    12    1
     2    10     8    1
     3    28    26    1
     4    24    22    1
     5    21    18    1
     6    20    19    1
     7    18    19   ar
     8    18    17   ar
     9    19    15   ar
    10    12     3    1
    11    12    13    1
    12     3     4   ar
    13     3     2   ar
    14    15     4    1
    15    15    16   ar
    16    17    26    1
    17    17    16   ar
    18     8     2    1
    19     8    11    1
    20     8     9    1
    21     4     5   ar
    22     2     1   ar
    23     5     1   ar
    24     5     6    1
    25    26    27    1
    26     1     7    1
    27    16    22    1
    28    22    25    1
    29    22    23    1
