@<TRIPOS>MOLECULE
mol_data/opt/m06hf/geoms/mol2/13ih12eh-13el-12ld-6ia-6hh-12he-12ah-.out
 97 104 0 0 0
SMALL
GASTEIGER

@<TRIPOS>ATOM
      1 C          -2.5922   -0.4187   -5.0572 C.ar    1  LIG1        0.0070
      2 C          -2.2823    0.8644   -4.6670 C.ar    1  LIG1       -0.0118
      3 C          -2.7026    0.9949   -3.3098 C.ar    1  LIG1        0.0562
      4 C          -3.2623   -0.2183   -2.9363 C.ar    1  LIG1        0.1046
      5 N          -3.1684   -1.0688   -4.0197 N.ar    1  LIG1       -0.3565
      6 H          -3.5296   -2.0083   -4.0263 H       1  LIG1        0.1655
      7 H          -2.4347   -0.9025   -6.0066 H       1  LIG1        0.0810
      8 C          -1.5934    1.9354   -5.4720 C.3     1  LIG1       -0.0365
      9 H          -0.6886    2.2719   -4.9618 H       1  LIG1        0.0279
     10 H          -2.2465    2.7989   -5.6224 H       1  LIG1        0.0279
     11 H          -1.3145    1.5484   -6.4518 H       1  LIG1        0.0279
     12 N          -2.4558    2.1170   -2.5210 N.pl3   1  LIG1       -0.3560
     13 H          -2.4455    2.9769   -3.0532 H       1  LIG1        0.1424
     14 H          -3.0424    2.1993   -1.7007 H       1  LIG1        0.1424
     15 C          -3.8186   -0.6941   -1.6925 C.ar    1  LIG1        0.1708
     16 C          -4.4493   -0.0898   -0.6358 C.ar    1  LIG1        0.0932
     17 C          -4.7724   -1.1364    0.3140 C.ar    1  LIG1        0.0888
     18 C          -4.3467   -2.2961   -0.2626 C.ar    1  LIG1        0.1749
     19 O          -3.7577   -2.0218   -1.4780 O.2     1  LIG1       -0.4486
     20 C          -4.8182    1.2788   -0.4768 C.1     1  LIG1       -0.0639
     21 C          -5.1565    2.4211   -0.2999 C.1     1  LIG1       -0.1137
     22 H          -5.4678    3.4295   -0.1532 H       1  LIG1        0.1232
     23 N          -5.3247   -0.9096    1.5516 N.pl3   1  LIG1       -0.3540
     24 H          -5.7432    0.0043    1.6548 H       1  LIG1        0.1425
     25 H          -5.8679   -1.6671    1.9441 H       1  LIG1        0.1425
     26 C          -4.3054   -3.6779    0.1651 C.ar    1  LIG1        0.1037
     27 C          -5.1184   -4.4064    1.0276 C.ar    1  LIG1        0.0953
     28 C          -4.5637   -5.7211    1.0926 C.ar    1  LIG1        0.1644
     29 C          -3.4662   -5.7621    0.2658 C.ar    1  LIG1        0.1298
     30 N          -3.3328   -4.5089   -0.2849 N.ar    1  LIG1       -0.3453
     31 H          -2.5920   -4.2223   -0.9084 H       1  LIG1        0.1662
     32 C          -6.3240   -3.9763    1.6618 C.1     1  LIG1       -0.0637
     33 C          -7.3464   -3.6339    2.2001 C.1     1  LIG1       -0.1137
     34 H          -8.2720   -3.3571    2.6501 H       1  LIG1        0.1232
     35 O          -5.0507   -6.7654    1.8109 O.3     1  LIG1       -0.4916
     36 C          -4.7707   -6.6798    3.2110 C.3     1  LIG1        0.0789
     37 H          -5.1936   -7.5748    3.6593 H       1  LIG1        0.0660
     38 H          -3.6911   -6.6487    3.3682 H       1  LIG1        0.0660
     39 H          -5.2383   -5.7885    3.6311 H       1  LIG1        0.0660
     40 C          -2.5201   -6.8350   -0.0073 C.ar    1  LIG1        0.1981
     41 C          -2.6119   -8.1546   -0.3421 C.ar    1  LIG1        0.1853
     42 C          -1.2578   -8.6485   -0.3861 C.ar    1  LIG1        0.1397
     43 C          -0.4394   -7.5903   -0.0989 C.ar    1  LIG1        0.1585
     44 O          -1.1932   -6.5083    0.1262 O.2     1  LIG1       -0.4480
     45 O          -3.6423   -8.9546   -0.6255 O.3     1  LIG1       -0.4901
     46 C          -4.8932   -8.3449   -0.9495 C.3     1  LIG1        0.0790
     47 H          -5.4952   -9.1415   -1.3773 H       1  LIG1        0.0660
     48 H          -5.3618   -7.9498   -0.0500 H       1  LIG1        0.0660
     49 H          -4.7377   -7.5518   -1.6838 H       1  LIG1        0.0660
     50 N          -0.5383  -11.0572   -0.9588 N.1     1  LIG1       -0.1906
     51 C          -0.8696   -9.9907   -0.6930 C.1     1  LIG1        0.1067
     52 C           1.6594   -6.5480    0.8163 C.ar    1  LIG1        0.0496
     53 C           1.0226   -7.4615   -0.0411 C.ar    1  LIG1        0.0397
     54 C           1.8188   -8.2833   -0.8430 C.ar    1  LIG1       -0.0473
     55 C           3.1943   -8.1577   -0.7977 C.ar    1  LIG1       -0.0349
     56 C           3.7569   -7.1798    0.0340 C.ar    1  LIG1        0.0746
     57 N           2.9845   -6.4262    0.8255 N.ar    1  LIG1       -0.2511
     58 H           1.3607   -9.0202   -1.4905 H       1  LIG1        0.0626
     59 C           0.9079   -5.6547    1.7844 C.3     1  LIG1       -0.0216
     60 H           0.1233   -6.2108    2.2971 H       1  LIG1        0.0293
     61 H           0.4434   -4.8246    1.2515 H       1  LIG1        0.0293
     62 H           1.6239   -5.2661    2.5048 H       1  LIG1        0.0293
     63 H           3.8224   -8.8180   -1.3772 H       1  LIG1        0.0639
     64 C           5.9068   -6.4038    1.1808 C.ar    1  LIG1        0.1263
     65 C           5.2227   -6.9515    0.0602 C.ar    1  LIG1        0.0416
     66 C           5.9952   -7.2603   -1.0569 C.ar    1  LIG1       -0.0264
     67 C           7.3731   -7.1031   -1.0576 C.ar    1  LIG1        0.0548
     68 C           7.9568   -6.6461    0.1355 C.ar    1  LIG1        0.1305
     69 N           7.2342   -6.2832    1.1892 N.ar    1  LIG1       -0.2268
     70 H           5.5060   -7.5914   -1.9664 H       1  LIG1        0.0644
     71 N           5.2668   -6.0219    2.3163 N.pl3   1  LIG1       -0.3426
     72 H           5.8446   -5.5607    3.0006 H       1  LIG1        0.1437
     73 H           4.2781   -5.8267    2.2522 H       1  LIG1        0.1437
     74 N           8.1746   -7.3708   -2.2009 N.pl3   1  LIG1       -0.3562
     75 H           7.6115   -7.5548   -3.0234 H       1  LIG1        0.1424
     76 H           8.8059   -6.5942   -2.3890 H       1  LIG1        0.1424
     77 C           9.4117   -6.5089    0.2622 C.ar    1  LIG1        0.1776
     78 C          10.4671   -7.2774   -0.1639 C.ar    1  LIG1        0.0889
     79 C          11.6454   -6.6624    0.4041 C.ar    1  LIG1        0.0948
     80 C          11.1981   -5.5934    1.1346 C.ar    1  LIG1        0.1878
     81 O           9.8747   -5.4977    1.0587 O.2     1  LIG1       -0.4469
     82 N          10.4735   -8.4477   -0.8856 N.pl3   1  LIG1       -0.3540
     83 H           9.6938   -8.5409   -1.5333 H       1  LIG1        0.1425
     84 H          11.3808   -8.7059   -1.2465 H       1  LIG1        0.1425
     85 C          12.9858   -7.1159    0.2192 C.1     1  LIG1       -0.0639
     86 C          14.1004   -7.5299    0.0344 C.1     1  LIG1       -0.1137
     87 H          15.0867   -7.9007   -0.1213 H       1  LIG1        0.1232
     88 C          11.9153   -4.6005    1.9157 C.ar    1  LIG1        0.1728
     89 C          13.2376   -4.4588    2.2083 C.ar    1  LIG1        0.0080
     90 C          13.3275   -3.2747    3.0190 C.ar    1  LIG1        0.0635
     91 C          12.0545   -2.8123    3.1449 C.ar    1  LIG1        0.1133
     92 O          11.1934   -3.6192    2.4806 O.2     1  LIG1       -0.4579
     93 H          11.6298   -1.9701    3.6604 H       1  LIG1        0.1049
     94 H          14.0376   -5.1107    1.9021 H       1  LIG1        0.0675
     95 N          14.5055   -2.7787    3.6030 N.pl3   1  LIG1       -0.3555
     96 H          15.2900   -2.8032    2.9631 H       1  LIG1        0.1424
     97 H          14.3947   -1.8441    3.9762 H       1  LIG1        0.1424
@<TRIPOS>BOND
     1    11     8    1
     2     7     1    1
     3    10     8    1
     4     8     9    1
     5     8     2    1
     6     1     2   ar
     7     1     5   ar
     8     2     3   ar
     9     6     5    1
    10     5     4   ar
    11     3     4   ar
    12     3    12    1
    13    13    12    1
    14    75    74    1
    15     4    15    1
    16    12    14    1
    17    76    74    1
    18    74    67    1
    19    70    66    1
    20    15    19   ar
    21    15    16   ar
    22    49    46    1
    23    83    82    1
    24    58    54    1
    25    19    18   ar
    26    47    46    1
    27    63    55    1
    28    84    82    1
    29    67    66   ar
    30    67    68   ar
    31    66    65   ar
    32    50    51    3
    33    46    45    1
    34    46    48    1
    35    31    30    1
    36    82    78    1
    37    54    55   ar
    38    54    53   ar
    39    55    56   ar
    40    51    42    1
    41    16    20    1
    42    16    17   ar
    43    45    41    1
    44    20    21    3
    45    42    41   ar
    46    42    43   ar
    47    41    40   ar
    48    21    22    1
    49    30    26   ar
    50    30    29   ar
    51    18    26    1
    52    18    17   ar
    53    78    77   ar
    54    78    79   ar
    55    87    86    1
    56    43    53    1
    57    43    44   ar
    58    53    52   ar
    59    40    44   ar
    60    40    29    1
    61    56    65    1
    62    56    57   ar
    63    86    85    3
    64    65    64   ar
    65    68    77    1
    66    68    69   ar
    67    26    27   ar
    68    85    79    1
    69    77    81   ar
    70    29    28   ar
    71    17    23    1
    72    79    80   ar
    73    52    57   ar
    74    52    59    1
    75    27    28   ar
    76    27    32    1
    77    81    80   ar
    78    28    35    1
    79    80    88    1
    80    64    69   ar
    81    64    71    1
    82    61    59    1
    83    23    24    1
    84    23    25    1
    85    32    33    3
    86    59    60    1
    87    59    62    1
    88    35    36    1
    89    94    89    1
    90    88    89   ar
    91    88    92   ar
    92    33    34    1
    93    89    90   ar
    94    73    71    1
    95    71    72    1
    96    92    91   ar
    97    96    95    1
    98    90    91   ar
    99    90    95    1
   100    91    93    1
   101    36    38    1
   102    36    39    1
   103    36    37    1
   104    95    97    1
