@<TRIPOS>MOLECULE
mol_data/opt/m06hf/geoms/mol2/13ii13ii-4ii13ii.out
 60 63 0 0 0
SMALL
GASTEIGER

@<TRIPOS>ATOM
      1 C           1.1169   -0.8191   -1.4141 C.ar    1  LIG1        0.0054
      2 C           1.0366    0.5174   -1.1054 C.ar    1  LIG1       -0.0296
      3 C          -0.2395    0.7298   -0.4957 C.ar    1  LIG1       -0.0209
      4 C          -0.8824   -0.4909   -0.4670 C.ar    1  LIG1        0.0663
      5 N          -0.0446   -1.4194   -1.0249 N.ar    1  LIG1       -0.3590
      6 H          -0.2975   -2.3831   -1.1712 H       1  LIG1        0.1654
      7 H           1.9128   -1.3785   -1.8762 H       1  LIG1        0.0810
      8 C           2.0956    1.5659   -1.3386 C.3     1  LIG1       -0.0380
      9 H           2.4377    1.9904   -0.3924 H       1  LIG1        0.0278
     10 H           1.7062    2.3800   -1.9534 H       1  LIG1        0.0278
     11 H           2.9548    1.1299   -1.8485 H       1  LIG1        0.0278
     12 C          -0.7632    2.0346    0.0516 C.3     1  LIG1       -0.0374
     13 H          -1.6466    1.8561    0.6664 H       1  LIG1        0.0278
     14 H          -1.0285    2.7264   -0.7524 H       1  LIG1        0.0278
     15 H          -0.0052    2.5178    0.6707 H       1  LIG1        0.0278
     16 C          -2.2130   -0.8610    0.0248 C.ar    1  LIG1        0.0668
     17 C          -2.6272   -1.8890    0.8483 C.ar    1  LIG1       -0.0203
     18 C          -4.0456   -1.7784    0.9784 C.ar    1  LIG1       -0.0216
     19 C          -4.4400   -0.6827    0.2355 C.ar    1  LIG1        0.0504
     20 N          -3.3193   -0.1385   -0.3285 N.ar    1  LIG1       -0.3526
     21 H          -3.3134    0.6107   -1.0029 H       1  LIG1        0.1660
     22 C          -1.7463   -2.9042    1.5333 C.3     1  LIG1       -0.0374
     23 H          -0.6964   -2.6356    1.4111 H       1  LIG1        0.0278
     24 H          -1.9049   -3.9061    1.1265 H       1  LIG1        0.0278
     25 H          -1.9672   -2.9396    2.6018 H       1  LIG1        0.0278
     26 C          -4.9275   -2.6630    1.8239 C.3     1  LIG1       -0.0374
     27 H          -4.5255   -2.7451    2.8357 H       1  LIG1        0.0278
     28 H          -4.9908   -3.6700    1.4043 H       1  LIG1        0.0278
     29 H          -5.9329   -2.2465    1.8853 H       1  LIG1        0.0278
     30 C          -6.0526    1.2445    0.3279 C.ar    1  LIG1       -0.0407
     31 C          -7.3400    1.7248    0.0993 C.ar    1  LIG1       -0.0488
     32 C          -5.7847   -0.0986    0.0213 C.ar    1  LIG1        0.0018
     33 C          -8.3622    0.9108   -0.3953 C.ar    1  LIG1        0.0017
     34 H          -7.5702    2.7625    0.3128 H       1  LIG1        0.0627
     35 C          -6.8078   -0.9147   -0.4680 C.ar    1  LIG1       -0.0488
     36 C          -8.1014   -0.4404   -0.6722 C.ar    1  LIG1       -0.0407
     37 H          -6.5758   -1.9506   -0.6884 H       1  LIG1        0.0627
     38 C          -4.9902    2.1584    0.9155 C.3     1  LIG1       -0.0391
     39 H          -5.4652    2.9726    1.4621 H       1  LIG1        0.0278
     40 H          -4.3661    2.5974    0.1327 H       1  LIG1        0.0278
     41 H          -4.3440    1.5986    1.5933 H       1  LIG1        0.0278
     42 C          -9.1921   -1.3800   -1.1574 C.3     1  LIG1       -0.0391
     43 H          -8.9235   -2.4098   -0.9238 H       1  LIG1        0.0278
     44 H          -9.3292   -1.3056   -2.2390 H       1  LIG1        0.0278
     45 H         -10.1401   -1.1363   -0.6767 H       1  LIG1        0.0278
     46 C          -9.7102    1.4954   -0.5919 C.ar    1  LIG1        0.0499
     47 C         -10.5409    2.1493    0.2936 C.ar    1  LIG1       -0.0223
     48 C         -11.7195    2.5192   -0.4287 C.ar    1  LIG1       -0.0297
     49 C         -11.5554    2.0779   -1.7183 C.ar    1  LIG1        0.0053
     50 N         -10.3445    1.4543   -1.8063 N.ar    1  LIG1       -0.3602
     51 H          -9.9302    1.0872   -2.6471 H       1  LIG1        0.1654
     52 H         -12.2070    2.1647   -2.5716 H       1  LIG1        0.0810
     53 C         -10.2870    2.3988    1.7595 C.3     1  LIG1       -0.0375
     54 H         -11.1424    2.0701    2.3532 H       1  LIG1        0.0278
     55 H         -10.1306    3.4623    1.9558 H       1  LIG1        0.0278
     56 H          -9.4047    1.8506    2.0899 H       1  LIG1        0.0278
     57 C         -12.9143    3.2464    0.1358 C.3     1  LIG1       -0.0380
     58 H         -13.6457    3.4408   -0.6491 H       1  LIG1        0.0278
     59 H         -12.6144    4.2018    0.5711 H       1  LIG1        0.0278
     60 H         -13.3973    2.6553    0.9168 H       1  LIG1        0.0278
@<TRIPOS>BOND
     1    51    50    1
     2    52    49    1
     3    44    42    1
     4    10     8    1
     5     7     1    1
     6    11     8    1
     7    50    49   ar
     8    50    46   ar
     9    49    48   ar
    10     1     2   ar
    11     1     5   ar
    12     8     2    1
    13     8     9    1
    14     6     5    1
    15    42    43    1
    16    42    45    1
    17    42    36    1
    18     2     3   ar
    19     5     4   ar
    20    21    20    1
    21    14    12    1
    22    37    35    1
    23    36    35   ar
    24    36    33   ar
    25    58    57    1
    26    46    33    1
    27    46    47   ar
    28     3     4   ar
    29     3    12    1
    30    35    32   ar
    31     4    16    1
    32    48    57    1
    33    48    47   ar
    34    33    31   ar
    35    20    16   ar
    36    20    19   ar
    37    32    19    1
    38    32    30   ar
    39    16    17   ar
    40    12    13    1
    41    12    15    1
    42    31    34    1
    43    31    30   ar
    44    40    38    1
    45    57    59    1
    46    57    60    1
    47    19    18   ar
    48    47    53    1
    49    30    38    1
    50    17    18   ar
    51    17    22    1
    52    38    39    1
    53    38    41    1
    54    18    26    1
    55    24    22    1
    56    28    26    1
    57    23    22    1
    58    22    25    1
    59    53    55    1
    60    53    56    1
    61    53    54    1
    62    26    29    1
    63    26    27    1
