@<TRIPOS>MOLECULE
mol_data/opt/m06hf/geoms/mol2/13ii13ii-13ii13ii-.out
 58 61 0 0 0
SMALL
GASTEIGER

@<TRIPOS>ATOM
      1 C           0.8995   -0.2465   -1.7365 C.ar    1  LIG1        0.0054
      2 C           0.8163    0.9586   -1.0820 C.ar    1  LIG1       -0.0296
      3 C          -0.3989    0.9431   -0.3291 C.ar    1  LIG1       -0.0209
      4 C          -1.0051   -0.2738   -0.5641 C.ar    1  LIG1        0.0663
      5 N          -0.2032   -0.9837   -1.4180 N.ar    1  LIG1       -0.3590
      6 H          -0.4436   -1.8897   -1.7860 H       1  LIG1        0.1654
      7 H           1.6595   -0.6271   -2.3980 H       1  LIG1        0.0810
      8 C           1.8189    2.0846   -1.1255 C.3     1  LIG1       -0.0380
      9 H           2.2314    2.2765   -0.1328 H       1  LIG1        0.0278
     10 H           1.3522    3.0051   -1.4816 H       1  LIG1        0.0278
     11 H           2.6416    1.8344   -1.7957 H       1  LIG1        0.0278
     12 C          -0.8965    2.0338    0.5866 C.3     1  LIG1       -0.0374
     13 H          -1.7374    1.6711    1.1790 H       1  LIG1        0.0278
     14 H          -1.2171    2.9127    0.0216 H       1  LIG1        0.0278
     15 H          -0.1042    2.3461    1.2696 H       1  LIG1        0.0278
     16 C          -2.2740   -0.8257   -0.0762 C.ar    1  LIG1        0.0668
     17 C          -2.5731   -2.0419    0.5075 C.ar    1  LIG1       -0.0202
     18 C          -3.9764   -2.0495    0.7697 C.ar    1  LIG1       -0.0202
     19 C          -4.4776   -0.8369    0.3367 C.ar    1  LIG1        0.0668
     20 N          -3.4355   -0.1112   -0.1693 N.ar    1  LIG1       -0.3514
     21 H          -3.5259    0.7794   -0.6335 H       1  LIG1        0.1660
     22 C          -1.5955   -3.1350    0.8613 C.3     1  LIG1       -0.0374
     23 H          -0.5740   -2.7981    0.6824 H       1  LIG1        0.0278
     24 H          -1.7798   -4.0363    0.2716 H       1  LIG1        0.0278
     25 H          -1.6880   -3.4014    1.9160 H       1  LIG1        0.0278
     26 C          -4.7504   -3.1511    1.4496 C.3     1  LIG1       -0.0374
     27 H          -4.2485   -3.4554    2.3698 H       1  LIG1        0.0278
     28 H          -4.8357   -4.0315    0.8077 H       1  LIG1        0.0278
     29 H          -5.7520   -2.8039    1.7049 H       1  LIG1        0.0278
     30 C          -5.8441   -0.3045    0.3376 C.ar    1  LIG1        0.0668
     31 C          -6.3448    0.9080    0.7715 C.ar    1  LIG1       -0.0202
     32 C          -7.7484    0.9005    0.5109 C.ar    1  LIG1       -0.0202
     33 C          -8.0482   -0.3156   -0.0726 C.ar    1  LIG1        0.0668
     34 N          -6.8868   -1.0300   -0.1673 N.ar    1  LIG1       -0.3514
     35 H          -6.7970   -1.9205   -0.6317 H       1  LIG1        0.1660
     36 C          -5.5699    2.0096    1.4505 C.3     1  LIG1       -0.0374
     37 H          -6.0707    2.3136    2.3714 H       1  LIG1        0.0278
     38 H          -5.4854    2.8901    0.8087 H       1  LIG1        0.0278
     39 H          -4.5680    1.6623    1.7046 H       1  LIG1        0.0278
     40 C          -8.7256    1.9935    0.8662 C.3     1  LIG1       -0.0374
     41 H          -9.7473    1.6566    0.6885 H       1  LIG1        0.0278
     42 H          -8.5419    2.8949    0.2764 H       1  LIG1        0.0278
     43 H          -8.6317    2.2597    1.9208 H       1  LIG1        0.0278
     44 C          -9.3177   -0.8675   -0.5590 C.ar    1  LIG1        0.0663
     45 C          -9.9236   -2.0844   -0.3234 C.ar    1  LIG1       -0.0209
     46 C         -11.1397   -2.0998   -1.0748 C.ar    1  LIG1       -0.0296
     47 C         -11.2237   -0.8945   -1.7290 C.ar    1  LIG1        0.0054
     48 N         -10.1207   -0.1574   -1.4117 N.ar    1  LIG1       -0.3590
     49 H          -9.8807    0.7486   -1.7799 H       1  LIG1        0.1654
     50 H         -11.9845   -0.5138   -2.3895 H       1  LIG1        0.0810
     51 C          -9.4248   -3.1753    0.5915 C.3     1  LIG1       -0.0374
     52 H          -8.5832   -2.8127    1.1828 H       1  LIG1        0.0278
     53 H          -9.1050   -4.0541    0.0259 H       1  LIG1        0.0278
     54 H         -10.2163   -3.4877    1.2753 H       1  LIG1        0.0278
     55 C         -12.1424   -3.2258   -1.1172 C.3     1  LIG1       -0.0380
     56 H         -12.5536   -3.4179   -0.1241 H       1  LIG1        0.0278
     57 H         -11.6761   -4.1462   -1.4741 H       1  LIG1        0.0278
     58 H         -12.9659   -2.9755   -1.7864 H       1  LIG1        0.0278
@<TRIPOS>BOND
     1     7     1    1
     2    50    47    1
     3    11     8    1
     4    58    55    1
     5     6     5    1
     6    49    48    1
     7     1     5   ar
     8     1     2   ar
     9    47    48   ar
    10    47    46   ar
    11    10     8    1
    12    57    55    1
    13     5     4   ar
    14    48    44   ar
    15     8     2    1
    16     8     9    1
    17    55    46    1
    18    55    56    1
    19     2     3   ar
    20    46    45   ar
    21    21    20    1
    22    35    34    1
    23     4     3   ar
    24     4    16    1
    25    44    45   ar
    26    44    33    1
    27     3    12    1
    28    45    51    1
    29    20    16   ar
    30    20    19   ar
    31    34    33   ar
    32    34    30   ar
    33    16    17   ar
    34    33    32   ar
    35    14    12    1
    36    53    51    1
    37    24    22    1
    38    42    40    1
    39    19    30    1
    40    19    18   ar
    41    30    31   ar
    42    17    18   ar
    43    17    22    1
    44    32    31   ar
    45    32    40    1
    46    12    13    1
    47    12    15    1
    48    51    52    1
    49    51    54    1
    50    23    22    1
    51    41    40    1
    52    18    26    1
    53    31    36    1
    54    28    26    1
    55    38    36    1
    56    22    25    1
    57    40    43    1
    58    26    29    1
    59    26    27    1
    60    36    39    1
    61    36    37    1
