@<TRIPOS>MOLECULE
mol_data/opt/m06hf/geoms/mol2/13ii13ii-13ii.out
 44 46 0 0 0
SMALL
GASTEIGER

@<TRIPOS>ATOM
      1 C           1.1137   -0.2832   -1.1450 C.ar    1  LIG1        0.0054
      2 C           0.9175    0.9108   -0.4938 C.ar    1  LIG1       -0.0296
      3 C          -0.4187    0.8960    0.0143 C.ar    1  LIG1       -0.0209
      4 C          -0.9796   -0.3086   -0.3571 C.ar    1  LIG1        0.0663
      5 N          -0.0359   -1.0123   -1.0572 N.ar    1  LIG1       -0.3590
      6 H          -0.2098   -1.9086   -1.4818 H       1  LIG1        0.1654
      7 H           1.9827   -0.6610   -1.6567 H       1  LIG1        0.0810
      8 C           1.9198    2.0253   -0.3246 C.3     1  LIG1       -0.0380
      9 H           2.1349    2.1979    0.7320 H       1  LIG1        0.0278
     10 H           1.5387    2.9564   -0.7486 H       1  LIG1        0.0278
     11 H           2.8540    1.7751   -0.8273 H       1  LIG1        0.0278
     12 C          -1.0720    1.9766    0.8397 C.3     1  LIG1       -0.0374
     13 H          -1.9993    1.6054    1.2776 H       1  LIG1        0.0278
     14 H          -1.2964    2.8593    0.2356 H       1  LIG1        0.0278
     15 H          -0.4095    2.2862    1.6501 H       1  LIG1        0.0278
     16 C          -2.3205   -0.8572   -0.1293 C.ar    1  LIG1        0.0668
     17 C          -2.7296   -2.0879    0.3485 C.ar    1  LIG1       -0.0202
     18 C          -4.1569   -2.0856    0.3492 C.ar    1  LIG1       -0.0202
     19 C          -4.5625   -0.8536   -0.1283 C.ar    1  LIG1        0.0668
     20 N          -3.4405   -0.1266   -0.4113 N.ar    1  LIG1       -0.3514
     21 H          -3.4393    0.7774   -0.8582 H       1  LIG1        0.1660
     22 C          -1.8386   -3.2012    0.8410 C.3     1  LIG1       -0.0374
     23 H          -0.8084   -2.8517    0.9164 H       1  LIG1        0.0278
     24 H          -1.8715   -4.0635    0.1702 H       1  LIG1        0.0278
     25 H          -2.1592   -3.5351    1.8295 H       1  LIG1        0.0278
     26 C          -5.0510   -3.1961    0.8425 C.3     1  LIG1       -0.0374
     27 H          -4.7305   -3.5310    1.8308 H       1  LIG1        0.0278
     28 H          -5.0214   -4.0585    0.1717 H       1  LIG1        0.0278
     29 H          -6.0799   -2.8433    0.9188 H       1  LIG1        0.0278
     30 C          -5.9018   -0.3007   -0.3548 C.ar    1  LIG1        0.0663
     31 C          -6.4586    0.9056    0.0171 C.ar    1  LIG1       -0.0209
     32 C          -7.7952    0.9246   -0.4897 C.ar    1  LIG1       -0.0296
     33 C          -7.9958   -0.2687   -1.1407 C.ar    1  LIG1        0.0054
     34 N          -6.8484   -1.0015   -1.0541 N.ar    1  LIG1       -0.3590
     35 H          -6.6777   -1.8983   -1.4788 H       1  LIG1        0.1654
     36 H          -8.8665   -0.6438   -1.6517 H       1  LIG1        0.0810
     37 C          -5.8011    1.9841    0.8419 C.3     1  LIG1       -0.0374
     38 H          -6.4618    2.2958    1.6529 H       1  LIG1        0.0278
     39 H          -5.5745    2.8661    0.2376 H       1  LIG1        0.0278
     40 H          -4.8745    1.6100    1.2789 H       1  LIG1        0.0278
     41 C          -8.7938    2.0423   -0.3195 C.3     1  LIG1       -0.0380
     42 H          -9.7293    1.7950   -0.8214 H       1  LIG1        0.0278
     43 H          -8.4102    2.9721   -0.7439 H       1  LIG1        0.0278
     44 H          -9.0074    2.2155    0.7374 H       1  LIG1        0.0278
@<TRIPOS>BOND
     1     7     1    1
     2    36    33    1
     3     6     5    1
     4    35    34    1
     5     1     5   ar
     6     1     2   ar
     7    33    34   ar
     8    33    32   ar
     9     5     4   ar
    10    34    30   ar
    11    21    20    1
    12    11     8    1
    13    42    41    1
    14    10     8    1
    15    43    41    1
    16     2     8    1
    17     2     3   ar
    18    32    41    1
    19    32    31   ar
    20    20    16   ar
    21    20    19   ar
    22     4    16    1
    23     4     3   ar
    24    30    19    1
    25    30    31   ar
    26     8     9    1
    27    41    44    1
    28    16    17   ar
    29    19    18   ar
    30     3    12    1
    31    31    37    1
    32    24    22    1
    33    28    26    1
    34    14    12    1
    35    39    37    1
    36    17    18   ar
    37    17    22    1
    38    18    26    1
    39    12    13    1
    40    12    15    1
    41    22    23    1
    42    22    25    1
    43    37    40    1
    44    37    38    1
    45    26    29    1
    46    26    27    1
