@<TRIPOS>MOLECULE
mol_data/opt/m06hf/geoms/mol2/13ii13ii13ii-13ii-.out
 58 61 0 0 0
SMALL
GASTEIGER

@<TRIPOS>ATOM
      1 C           1.1986   -0.0293   -0.1264 C.ar    1  LIG1        0.0054
      2 C           0.6818    0.8911   -1.0053 C.ar    1  LIG1       -0.0296
      3 C          -0.7422    0.7634   -0.9558 C.ar    1  LIG1       -0.0209
      4 C          -1.0284   -0.2277   -0.0417 C.ar    1  LIG1        0.0663
      5 N           0.1613   -0.7058    0.4476 N.ar    1  LIG1       -0.3590
      6 H           0.2339   -1.3769    1.1948 H       1  LIG1        0.1654
      7 H           2.2219   -0.2491    0.1281 H       1  LIG1        0.0810
      8 C           1.4565    1.8471   -1.8773 C.3     1  LIG1       -0.0380
      9 H           1.1614    2.8785   -1.6752 H       1  LIG1        0.0278
     10 H           1.2737    1.6438   -2.9347 H       1  LIG1        0.0278
     11 H           2.5262    1.7513   -1.6894 H       1  LIG1        0.0278
     12 C          -1.7423    1.5349   -1.7783 C.3     1  LIG1       -0.0374
     13 H          -2.7371    1.1082   -1.6454 H       1  LIG1        0.0278
     14 H          -1.4794    1.4922   -2.8371 H       1  LIG1        0.0278
     15 H          -1.7712    2.5855   -1.4788 H       1  LIG1        0.0278
     16 C          -2.3143   -0.7760    0.4012 C.ar    1  LIG1        0.0668
     17 C          -3.4237   -0.1509    0.9322 C.ar    1  LIG1       -0.0202
     18 C          -4.3981   -1.1641    1.1865 C.ar    1  LIG1       -0.0202
     19 C          -3.8423   -2.3686    0.8017 C.ar    1  LIG1        0.0668
     20 N          -2.5804   -2.1186    0.3366 N.ar    1  LIG1       -0.3514
     21 H          -2.0034   -2.7998   -0.1323 H       1  LIG1        0.1660
     22 C          -3.5536    1.3191    1.2389 C.3     1  LIG1       -0.0374
     23 H          -3.8585    1.4686    2.2768 H       1  LIG1        0.0278
     24 H          -4.3001    1.7909    0.5952 H       1  LIG1        0.0278
     25 H          -2.5942    1.8126    1.0803 H       1  LIG1        0.0278
     26 C          -5.7541   -0.9560    1.8137 C.3     1  LIG1       -0.0374
     27 H          -6.1977   -1.9167    2.0770 H       1  LIG1        0.0278
     28 H          -6.4280   -0.4292    1.1333 H       1  LIG1        0.0278
     29 H          -5.6646   -0.3593    2.7233 H       1  LIG1        0.0278
     30 C          -4.3909   -3.7284    0.8038 C.ar    1  LIG1        0.0668
     31 C          -3.8435   -4.9284    1.2140 C.ar    1  LIG1       -0.0202
     32 C          -4.8125   -5.9446    0.9508 C.ar    1  LIG1       -0.0202
     33 C          -5.9103   -5.3257    0.3895 C.ar    1  LIG1        0.0668
     34 N          -5.6427   -3.9839    0.3151 N.ar    1  LIG1       -0.3514
     35 H          -6.2097   -3.3082   -0.1736 H       1  LIG1        0.1660
     36 C          -2.5010   -5.1291    1.8719 C.3     1  LIG1       -0.0374
     37 H          -2.0630   -4.1653    2.1335 H       1  LIG1        0.0278
     38 H          -1.8130   -5.6636    1.2120 H       1  LIG1        0.0278
     39 H          -2.6097   -5.7153    2.7862 H       1  LIG1        0.0278
     40 C          -4.6892   -7.4109    1.2772 C.3     1  LIG1       -0.0374
     41 H          -4.4062   -7.5484    2.3228 H       1  LIG1        0.0278
     42 H          -3.9294   -7.8900    0.6548 H       1  LIG1        0.0278
     43 H          -5.6451   -7.9062    1.1041 H       1  LIG1        0.0278
     44 C          -7.1866   -5.8792   -0.0741 C.ar    1  LIG1        0.0663
     45 C          -7.4537   -6.8807   -0.9826 C.ar    1  LIG1       -0.0209
     46 C          -8.8764   -7.0092   -1.0606 C.ar    1  LIG1       -0.0296
     47 C          -9.4114   -6.0788   -0.2034 C.ar    1  LIG1        0.0054
     48 N          -8.3863   -5.3957    0.3844 N.ar    1  LIG1       -0.3590
     49 H          -8.4746   -4.7160    1.1222 H       1  LIG1        0.1654
     50 H         -10.4399   -5.8563    0.0270 H       1  LIG1        0.0810
     51 C          -6.4366   -7.6615   -1.7751 C.3     1  LIG1       -0.0374
     52 H          -5.4448   -7.2331   -1.6262 H       1  LIG1        0.0278
     53 H          -6.6771   -7.6309   -2.8395 H       1  LIG1        0.0278
     54 H          -6.4141   -8.7086   -1.4629 H       1  LIG1        0.0278
     55 C          -9.6327   -7.9752   -1.9377 C.3     1  LIG1       -0.0380
     56 H          -9.3418   -9.0042   -1.7179 H       1  LIG1        0.0278
     57 H          -9.4277   -7.7838   -2.9933 H       1  LIG1        0.0278
     58 H         -10.7060   -7.8775   -1.7734 H       1  LIG1        0.0278
@<TRIPOS>BOND
     1    57    55    1
     2    10     8    1
     3    53    51    1
     4    14    12    1
     5    55    58    1
     6    55    56    1
     7    55    46    1
     8     8    11    1
     9     8     9    1
    10     8     2    1
    11    12    13    1
    12    12    15    1
    13    12     3    1
    14    51    52    1
    15    51    54    1
    16    51    45    1
    17    46    45   ar
    18    46    47   ar
    19     2     3   ar
    20     2     1   ar
    21    45    44   ar
    22     3     4   ar
    23    47    50    1
    24    47    48   ar
    25    35    34    1
    26    21    20    1
    27     1     7    1
    28     1     5   ar
    29    44    48   ar
    30    44    33    1
    31     4    16    1
    32     4     5   ar
    33    34    33   ar
    34    34    30   ar
    35    20    16   ar
    36    20    19   ar
    37    48    49    1
    38    33    32   ar
    39    16    17   ar
    40     5     6    1
    41    24    22    1
    42    42    40    1
    43    19    30    1
    44    19    18   ar
    45    30    31   ar
    46    17    18   ar
    47    17    22    1
    48    32    31   ar
    49    32    40    1
    50    25    22    1
    51    43    40    1
    52    28    26    1
    53    18    26    1
    54    38    36    1
    55    31    36    1
    56    22    23    1
    57    40    41    1
    58    26    27    1
    59    26    29    1
    60    36    37    1
    61    36    39    1
