@<TRIPOS>MOLECULE
mol_data/opt/m06hf/geoms/mol2/13ii13ii13ii13ii-.out
 58 61 0 0 0
SMALL
GASTEIGER

@<TRIPOS>ATOM
      1 C          -0.0198    0.9691   -2.7389 C.ar    1  LIG1        0.0054
      2 C           0.4863    1.4115   -1.5413 C.ar    1  LIG1       -0.0296
      3 C          -0.3664    0.9007   -0.5123 C.ar    1  LIG1       -0.0209
      4 C          -1.3588    0.1726   -1.1327 C.ar    1  LIG1        0.0663
      5 N          -1.1299    0.2167   -2.4855 N.ar    1  LIG1       -0.3590
      6 H          -1.7595   -0.1583   -3.1761 H       1  LIG1        0.1654
      7 H           0.3290    1.1367   -3.7442 H       1  LIG1        0.0810
      8 C           1.7147    2.2622   -1.3360 C.3     1  LIG1       -0.0380
      9 H           2.4621    1.7299   -0.7442 H       1  LIG1        0.0278
     10 H           1.4611    3.1850   -0.8104 H       1  LIG1        0.0278
     11 H           2.1600    2.5233   -2.2961 H       1  LIG1        0.0278
     12 C          -0.1961    1.0899    0.9735 C.3     1  LIG1       -0.0374
     13 H          -0.9003    0.4525    1.5093 H       1  LIG1        0.0278
     14 H          -0.3779    2.1285    1.2600 H       1  LIG1        0.0278
     15 H           0.8186    0.8272    1.2793 H       1  LIG1        0.0278
     16 C          -2.4963   -0.5642   -0.5702 C.ar    1  LIG1        0.0668
     17 C          -3.5237   -0.1400    0.2482 C.ar    1  LIG1       -0.0202
     18 C          -4.3657   -1.2683    0.4882 C.ar    1  LIG1       -0.0202
     19 C          -3.8265   -2.3339   -0.2035 C.ar    1  LIG1        0.0668
     20 N          -2.6946   -1.8930   -0.8373 N.ar    1  LIG1       -0.3514
     21 H          -2.0909   -2.4629   -1.4088 H       1  LIG1        0.1660
     22 C          -3.7270    1.2598    0.7685 C.3     1  LIG1       -0.0374
     23 H          -3.5674    1.3041    1.8486 H       1  LIG1        0.0278
     24 H          -4.7440    1.5994    0.5618 H       1  LIG1        0.0278
     25 H          -3.0235    1.9380    0.2846 H       1  LIG1        0.0278
     26 C          -5.6012   -1.3003    1.3510 C.3     1  LIG1       -0.0374
     27 H          -5.9448   -2.3294    1.4643 H       1  LIG1        0.0278
     28 H          -6.4063   -0.7108    0.9060 H       1  LIG1        0.0278
     29 H          -5.3863   -0.8888    2.3392 H       1  LIG1        0.0278
     30 C          -4.2756   -3.7271   -0.3059 C.ar    1  LIG1        0.0668
     31 C          -5.4779   -4.2518   -0.7357 C.ar    1  LIG1       -0.0202
     32 C          -5.3834   -5.6716   -0.6220 C.ar    1  LIG1       -0.0202
     33 C          -4.1218   -5.9587   -0.1384 C.ar    1  LIG1        0.0668
     34 N          -3.4645   -4.7732    0.0441 N.ar    1  LIG1       -0.3514
     35 H          -2.5356   -4.6893    0.4267 H       1  LIG1        0.1660
     36 C          -6.6612   -3.4676   -1.2425 C.3     1  LIG1       -0.0374
     37 H          -6.9877   -3.8500   -2.2117 H       1  LIG1        0.0278
     38 H          -6.3871   -2.4174   -1.3513 H       1  LIG1        0.0278
     39 H          -7.5034   -3.5364   -0.5498 H       1  LIG1        0.0278
     40 C          -6.4730   -6.6642   -0.9430 C.3     1  LIG1       -0.0374
     41 H          -6.2020   -7.6541   -0.5744 H       1  LIG1        0.0278
     42 H          -6.6502   -6.7245   -2.0200 H       1  LIG1        0.0278
     43 H          -7.4087   -6.3643   -0.4680 H       1  LIG1        0.0278
     44 C          -3.4741   -7.2397    0.1667 C.ar    1  LIG1        0.0663
     45 C          -2.8120   -7.6727    1.2973 C.ar    1  LIG1       -0.0209
     46 C          -2.3629   -9.0047    1.0362 C.ar    1  LIG1       -0.0296
     47 C          -2.7751   -9.3262   -0.2345 C.ar    1  LIG1        0.0054
     48 N          -3.4448   -8.2561   -0.7509 N.ar    1  LIG1       -0.3590
     49 H          -3.8230   -8.1796   -1.6810 H       1  LIG1        0.1654
     50 H          -2.6421  -10.2333   -0.7998 H       1  LIG1        0.0810
     51 C          -2.6322   -6.9089    2.5859 C.3     1  LIG1       -0.0374
     52 H          -3.2544   -6.0131    2.5849 H       1  LIG1        0.0278
     53 H          -1.5898   -6.6147    2.7317 H       1  LIG1        0.0278
     54 H          -2.9255   -7.5281    3.4359 H       1  LIG1        0.0278
     55 C          -1.6022   -9.8877    1.9937 C.3     1  LIG1       -0.0380
     56 H          -2.1907  -10.0830    2.8926 H       1  LIG1        0.0278
     57 H          -0.6672   -9.4132    2.2982 H       1  LIG1        0.0278
     58 H          -1.3664  -10.8429    1.5240 H       1  LIG1        0.0278
@<TRIPOS>BOND
     1     7     1    1
     2     6     5    1
     3     1     5   ar
     4     1     2   ar
     5     5     4   ar
     6    11     8    1
     7    37    36    1
     8    42    40    1
     9    49    48    1
    10     2     8    1
    11     2     3   ar
    12    21    20    1
    13    38    36    1
    14     8    10    1
    15     8     9    1
    16    36    31    1
    17    36    39    1
    18     4    16    1
    19     4     3   ar
    20    40    32    1
    21    40    41    1
    22    40    43    1
    23    20    16   ar
    24    20    19   ar
    25    50    47    1
    26    48    47   ar
    27    48    44   ar
    28    31    32   ar
    29    31    30   ar
    30    32    33   ar
    31    16    17   ar
    32     3    12    1
    33    30    19    1
    34    30    34   ar
    35    47    46   ar
    36    19    18   ar
    37    33    34   ar
    38    33    44    1
    39    34    35    1
    40    44    45   ar
    41    17    18   ar
    42    17    22    1
    43    25    22    1
    44    18    26    1
    45    24    22    1
    46    22    23    1
    47    28    26    1
    48    12    14    1
    49    12    15    1
    50    12    13    1
    51    46    45   ar
    52    46    55    1
    53    45    51    1
    54    26    27    1
    55    26    29    1
    56    58    55    1
    57    55    57    1
    58    55    56    1
    59    52    51    1
    60    51    53    1
    61    51    54    1
