@<TRIPOS>MOLECULE
mol_data/opt/m06hf/geoms/mol2/13ii13ii13ii-13ii.out
 58 61 0 0 0
SMALL
GASTEIGER

@<TRIPOS>ATOM
      1 C           1.2713    0.0315    0.0987 C.ar    1  LIG1        0.0054
      2 C           0.8198    0.9858   -0.7795 C.ar    1  LIG1       -0.0296
      3 C          -0.6042    0.8611   -0.8396 C.ar    1  LIG1       -0.0209
      4 C          -0.9564   -0.1631    0.0135 C.ar    1  LIG1        0.0663
      5 N           0.1943   -0.6626    0.5697 N.ar    1  LIG1       -0.3590
      6 H           0.2108   -1.3646    1.2916 H       1  LIG1        0.1654
      7 H           2.2734   -0.2004    0.4186 H       1  LIG1        0.0810
      8 C           1.6576    1.9728   -1.5535 C.3     1  LIG1       -0.0380
      9 H           1.3601    2.9973   -1.3216 H       1  LIG1        0.0278
     10 H           1.5408    1.8221   -2.6287 H       1  LIG1        0.0278
     11 H           2.7120    1.8544   -1.3028 H       1  LIG1        0.0278
     12 C          -1.5413    1.6658   -1.7036 C.3     1  LIG1       -0.0374
     13 H          -1.5933    2.7041   -1.3668 H       1  LIG1        0.0278
     14 H          -2.5426    1.2361   -1.6606 H       1  LIG1        0.0278
     15 H          -1.2010    1.6629   -2.7411 H       1  LIG1        0.0278
     16 C          -2.2708   -0.7227    0.3457 C.ar    1  LIG1        0.0668
     17 C          -3.4138   -0.1129    0.8206 C.ar    1  LIG1       -0.0202
     18 C          -4.4017   -1.1329    0.9802 C.ar    1  LIG1       -0.0202
     19 C          -3.8205   -2.3250    0.5958 C.ar    1  LIG1        0.0668
     20 N          -2.5311   -2.0622    0.2213 N.ar    1  LIG1       -0.3514
     21 H          -1.9220   -2.7309   -0.2247 H       1  LIG1        0.1660
     22 C          -3.5647    1.3470    1.1637 C.3     1  LIG1       -0.0374
     23 H          -3.9446    1.4641    2.1805 H       1  LIG1        0.0278
     24 H          -4.2614    1.8413    0.4826 H       1  LIG1        0.0278
     25 H          -2.5956    1.8418    1.0915 H       1  LIG1        0.0278
     26 C          -5.7939   -0.9449    1.5293 C.3     1  LIG1       -0.0374
     27 H          -6.2581   -1.9134    1.7178 H       1  LIG1        0.0278
     28 H          -6.4211   -0.3812    0.8345 H       1  LIG1        0.0278
     29 H          -5.7585   -0.3933    2.4707 H       1  LIG1        0.0278
     30 C          -4.3667   -3.6840    0.5289 C.ar    1  LIG1        0.0668
     31 C          -3.8615   -4.8891    0.9786 C.ar    1  LIG1       -0.0202
     32 C          -4.8079   -5.8990    0.6287 C.ar    1  LIG1       -0.0202
     33 C          -5.8525   -5.2702   -0.0214 C.ar    1  LIG1        0.0668
     34 N          -5.5696   -3.9337   -0.0695 N.ar    1  LIG1       -0.3514
     35 H          -6.1171   -3.2498   -0.5690 H       1  LIG1        0.1660
     36 C          -2.5836   -5.0975    1.7524 C.3     1  LIG1       -0.0374
     37 H          -2.1496   -4.1350    2.0254 H       1  LIG1        0.0278
     38 H          -1.8533   -5.6619    1.1674 H       1  LIG1        0.0278
     39 H          -2.7812   -5.6558    2.6694 H       1  LIG1        0.0278
     40 C          -4.7109   -7.3664    0.9644 C.3     1  LIG1       -0.0374
     41 H          -4.5004   -7.4996    2.0273 H       1  LIG1        0.0278
     42 H          -3.9085   -7.8496    0.4014 H       1  LIG1        0.0278
     43 H          -5.6528   -7.8662    0.7366 H       1  LIG1        0.0278
     44 C          -7.0816   -5.8058   -0.6159 C.ar    1  LIG1        0.0663
     45 C          -8.3990   -5.4237   -0.4684 C.ar    1  LIG1       -0.0209
     46 C          -9.1797   -6.2790   -1.3081 C.ar    1  LIG1       -0.0296
     47 C          -8.3072   -7.1432   -1.9237 C.ar    1  LIG1        0.0054
     48 N          -7.0441   -6.8513   -1.5001 N.ar    1  LIG1       -0.3590
     49 H          -6.1919   -7.2831   -1.8181 H       1  LIG1        0.1654
     50 H          -8.4964   -7.9382   -2.6255 H       1  LIG1        0.0810
     51 C          -8.9271   -4.3392    0.4371 C.3     1  LIG1       -0.0374
     52 H          -9.7595   -4.7170    1.0338 H       1  LIG1        0.0278
     53 H          -9.2889   -3.4827   -0.1374 H       1  LIG1        0.0278
     54 H          -8.1435   -4.0009    1.1160 H       1  LIG1        0.0278
     55 C         -10.6792   -6.2413   -1.4638 C.3     1  LIG1       -0.0380
     56 H         -11.0050   -6.9939   -2.1823 H       1  LIG1        0.0278
     57 H         -11.0072   -5.2618   -1.8176 H       1  LIG1        0.0278
     58 H         -11.1740   -6.4403   -0.5108 H       1  LIG1        0.0278
@<TRIPOS>BOND
     1    15    12    1
     2    10     8    1
     3    50    47    1
     4    56    55    1
     5    47    48   ar
     6    47    46   ar
     7    49    48    1
     8    57    55    1
     9    12    14    1
    10    12    13    1
    11    12     3    1
    12     8     9    1
    13     8    11    1
    14     8     2    1
    15    48    44   ar
    16    55    46    1
    17    55    58    1
    18    46    45   ar
    19     3     2   ar
    20     3     4   ar
    21     2     1   ar
    22    44    45   ar
    23    44    33    1
    24    35    34    1
    25    45    51    1
    26    21    20    1
    27    53    51    1
    28    34    33   ar
    29    34    30   ar
    30    33    32   ar
    31     4    16    1
    32     4     5   ar
    33     1     7    1
    34     1     5   ar
    35    20    16   ar
    36    20    19   ar
    37    16    17   ar
    38    42    40    1
    39    51    52    1
    40    51    54    1
    41    24    22    1
    42    30    19    1
    43    30    31   ar
    44     5     6    1
    45    19    18   ar
    46    32    40    1
    47    32    31   ar
    48    43    40    1
    49    17    18   ar
    50    17    22    1
    51    28    26    1
    52    40    41    1
    53    31    36    1
    54    18    26    1
    55    25    22    1
    56    22    23    1
    57    38    36    1
    58    26    27    1
    59    26    29    1
    60    36    37    1
    61    36    39    1
