@<TRIPOS>MOLECULE
mol_data/opt/m06hf/geoms/mol2/13ii13ii-13ii-13ii-.out
 58 61 0 0 0
SMALL
GASTEIGER

@<TRIPOS>ATOM
      1 C           1.1847   -0.6088   -1.0089 C.ar    1  LIG1        0.0054
      2 C           1.0336    0.6911   -0.5909 C.ar    1  LIG1       -0.0296
      3 C          -0.3016    0.8192   -0.0965 C.ar    1  LIG1       -0.0209
      4 C          -0.9072   -0.4121   -0.2419 C.ar    1  LIG1        0.0663
      5 N           0.0095   -1.2670   -0.7938 N.ar    1  LIG1       -0.3590
      6 H          -0.1992   -2.2172   -1.0538 H       1  LIG1        0.1654
      7 H           2.0375   -1.1059   -1.4399 H       1  LIG1        0.0810
      8 C           2.0775    1.7792   -0.6230 C.3     1  LIG1       -0.0380
      9 H           2.3115    2.1244    0.3862 H       1  LIG1        0.0278
     10 H           1.7261    2.6365   -1.2008 H       1  LIG1        0.0278
     11 H           2.9957    1.4099   -1.0802 H       1  LIG1        0.0278
     12 C          -0.9104    2.0581    0.5118 C.3     1  LIG1       -0.0374
     13 H          -1.8735    1.8204    0.9650 H       1  LIG1        0.0278
     14 H          -1.0567    2.8377   -0.2402 H       1  LIG1        0.0278
     15 H          -0.2564    2.4610    1.2875 H       1  LIG1        0.0278
     16 C          -2.2677   -0.8603    0.0751 C.ar    1  LIG1        0.0668
     17 C          -2.7218   -1.9622    0.7727 C.ar    1  LIG1       -0.0202
     18 C          -4.1497   -1.9134    0.7544 C.ar    1  LIG1       -0.0202
     19 C          -4.5094   -0.7855    0.0451 C.ar    1  LIG1        0.0668
     20 N          -3.3598   -0.1552   -0.3516 N.ar    1  LIG1       -0.3514
     21 H          -3.3169    0.6238   -0.9899 H       1  LIG1        0.1660
     22 C          -1.8766   -2.9892    1.4846 C.3     1  LIG1       -0.0374
     23 H          -0.8267   -2.6952    1.4613 H       1  LIG1        0.0278
     24 H          -1.9797   -3.9742    1.0232 H       1  LIG1        0.0278
     25 H          -2.1853   -3.0754    2.5282 H       1  LIG1        0.0278
     26 C          -5.0906   -2.8738    1.4358 C.3     1  LIG1       -0.0374
     27 H          -4.8075   -3.0091    2.4818 H       1  LIG1        0.0278
     28 H          -5.0740   -3.8527    0.9509 H       1  LIG1        0.0278
     29 H          -6.1076   -2.4816    1.3955 H       1  LIG1        0.0278
     30 C          -5.8312   -0.2389   -0.2764 C.ar    1  LIG1        0.0668
     31 C          -6.9263   -0.8271   -0.8738 C.ar    1  LIG1       -0.0202
     32 C          -7.9535    0.1652   -0.9406 C.ar    1  LIG1       -0.0202
     33 C          -7.4440    1.3181   -0.3817 C.ar    1  LIG1        0.0668
     34 N          -6.1522    1.0650    0.0036 N.ar    1  LIG1       -0.3514
     35 H          -5.6029    1.6735    0.5908 H       1  LIG1        0.1660
     36 C          -7.0034   -2.2335   -1.4103 C.3     1  LIG1       -0.0374
     37 H          -7.6966   -2.8403   -0.8228 H       1  LIG1        0.0278
     38 H          -6.0168   -2.6975   -1.3733 H       1  LIG1        0.0278
     39 H          -7.3516   -2.2291   -2.4452 H       1  LIG1        0.0278
     40 C          -9.3190    0.0035   -1.5578 C.3     1  LIG1       -0.0374
     41 H          -9.9407   -0.6713   -0.9644 H       1  LIG1        0.0278
     42 H          -9.2371   -0.4102   -2.5649 H       1  LIG1        0.0278
     43 H          -9.8136    0.9738   -1.6154 H       1  LIG1        0.0278
     44 C          -8.0590    2.6344   -0.1838 C.ar    1  LIG1        0.0663
     45 C          -9.2321    2.9912    0.4459 C.ar    1  LIG1       -0.0209
     46 C          -9.3473    4.4137    0.3456 C.ar    1  LIG1       -0.0296
     47 C          -8.2393    4.8602   -0.3322 C.ar    1  LIG1        0.0054
     48 N          -7.4627    3.7814   -0.6441 N.ar    1  LIG1       -0.3590
     49 H          -6.6303    3.7958   -1.2102 H       1  LIG1        0.1654
     50 H          -7.9531    5.8602   -0.6127 H       1  LIG1        0.0810
     51 C         -10.1903    2.0593    1.1432 C.3     1  LIG1       -0.0374
     52 H          -9.7507    1.0637    1.2147 H       1  LIG1        0.0278
     53 H         -11.1344    1.9845    0.5979 H       1  LIG1        0.0278
     54 H         -10.4092    2.4203    2.1500 H       1  LIG1        0.0278
     55 C         -10.4701    5.2543    0.8996 C.3     1  LIG1       -0.0380
     56 H         -10.5311    5.1549    1.9854 H       1  LIG1        0.0278
     57 H         -11.4284    4.9449    0.4778 H       1  LIG1        0.0278
     58 H         -10.3116    6.3058    0.6595 H       1  LIG1        0.0278
@<TRIPOS>BOND
     1    42    40    1
     2    39    36    1
     3    43    40    1
     4    40    41    1
     5    40    32    1
     6     7     1    1
     7    36    38    1
     8    36    31    1
     9    36    37    1
    10    49    48    1
    11    10     8    1
    12    11     8    1
    13     6     5    1
    14     1     5   ar
    15     1     2   ar
    16    21    20    1
    17    32    31   ar
    18    32    33   ar
    19    31    30   ar
    20     5     4   ar
    21    48    47   ar
    22    48    44   ar
    23     8     2    1
    24     8     9    1
    25    50    47    1
    26     2     3   ar
    27    33    44    1
    28    33    34   ar
    29    20    19   ar
    30    20    16   ar
    31    47    46   ar
    32    30    34   ar
    33    30    19    1
    34     4     3   ar
    35     4    16    1
    36    14    12    1
    37    44    45   ar
    38     3    12    1
    39    34    35    1
    40    19    18   ar
    41    16    17   ar
    42    46    45   ar
    43    46    55    1
    44    45    51    1
    45    57    55    1
    46    12    13    1
    47    12    15    1
    48    53    51    1
    49    58    55    1
    50    18    17   ar
    51    18    26    1
    52    17    22    1
    53    55    56    1
    54    28    26    1
    55    24    22    1
    56    51    52    1
    57    51    54    1
    58    29    26    1
    59    26    27    1
    60    23    22    1
    61    22    25    1
