@<TRIPOS>MOLECULE
mol_data/opt/m06hf/geoms/mol2/13ii13ii-.out
 30 31 0 0 0
SMALL
GASTEIGER

@<TRIPOS>ATOM
      1 C           1.1440   -0.1792   -0.7901 C.ar    1  LIG1        0.0054
      2 C           0.8018    1.0040   -0.1812 C.ar    1  LIG1       -0.0296
      3 C          -0.6000    0.9419    0.0956 C.ar    1  LIG1       -0.0209
      4 C          -1.0504   -0.2780   -0.3655 C.ar    1  LIG1        0.0663
      5 N           0.0211   -0.9461   -0.8966 N.ar    1  LIG1       -0.3590
      6 H          -0.0495   -1.8460   -1.3431 H       1  LIG1        0.1654
      7 H           2.0982   -0.5256   -1.1500 H       1  LIG1        0.0810
      8 C           1.7230    2.1499    0.1546 C.3     1  LIG1       -0.0380
      9 H           1.7506    2.3239    1.2326 H       1  LIG1        0.0278
     10 H           1.3884    3.0707   -0.3275 H       1  LIG1        0.0278
     11 H           2.7367    1.9333   -0.1833 H       1  LIG1        0.0278
     12 C          -1.4172    1.9956    0.8005 C.3     1  LIG1       -0.0374
     13 H          -2.4170    1.6158    1.0137 H       1  LIG1        0.0278
     14 H          -1.5055    2.9007    0.1944 H       1  LIG1        0.0278
     15 H          -0.9462    2.2713    1.7461 H       1  LIG1        0.0278
     16 C          -2.3918   -0.8742   -0.3651 C.ar    1  LIG1        0.0663
     17 C          -2.8418   -2.0942    0.0960 C.ar    1  LIG1       -0.0209
     18 C          -4.2438   -2.1562   -0.1799 C.ar    1  LIG1       -0.0296
     19 C          -4.5864   -0.9729   -0.7884 C.ar    1  LIG1        0.0054
     20 N          -3.4636   -0.2060   -0.8954 N.ar    1  LIG1       -0.3590
     21 H          -3.3933    0.6940   -1.3418 H       1  LIG1        0.1654
     22 H          -5.5408   -0.6264   -1.1476 H       1  LIG1        0.0810
     23 C          -2.0242   -3.1480    0.8002 C.3     1  LIG1       -0.0374
     24 H          -1.0242   -2.7683    1.0127 H       1  LIG1        0.0278
     25 H          -1.9363   -4.0530    0.1937 H       1  LIG1        0.0278
     26 H          -2.4946   -3.4239    1.7460 H       1  LIG1        0.0278
     27 C          -5.1648   -3.3022    0.1564 C.3     1  LIG1       -0.0380
     28 H          -5.1917   -3.4764    1.2343 H       1  LIG1        0.0278
     29 H          -4.8306   -4.2229   -0.3261 H       1  LIG1        0.0278
     30 H          -6.1787   -3.0855   -0.1809 H       1  LIG1        0.0278
@<TRIPOS>BOND
     1     6     5    1
     2    21    20    1
     3     7     1    1
     4    22    19    1
     5     5     1   ar
     6     5     4   ar
     7    20    19   ar
     8    20    16   ar
     9     1     2   ar
    10    19    18   ar
    11     4    16    1
    12     4     3   ar
    13    16    17   ar
    14    10     8    1
    15    29    27    1
    16    11     8    1
    17     2     3   ar
    18     2     8    1
    19    30    27    1
    20    18    17   ar
    21    18    27    1
    22     3    12    1
    23    17    23    1
    24     8     9    1
    25    27    28    1
    26    25    23    1
    27    14    12    1
    28    23    24    1
    29    23    26    1
    30    12    13    1
    31    12    15    1
