@<TRIPOS>MOLECULE
mol_data/opt/m06hf/geoms/mol2/13ii6de6lh-13ea-.out
 53 56 0 0 0
SMALL
GASTEIGER

@<TRIPOS>ATOM
      1 C           1.4021   -0.2451   -0.0418 C.ar    1  LIG1        0.0053
      2 C           0.9582    1.0520    0.0805 C.ar    1  LIG1       -0.0297
      3 C          -0.4643    1.0003    0.1366 C.ar    1  LIG1       -0.0222
      4 C          -0.8247   -0.3349    0.0411 C.ar    1  LIG1        0.0524
      5 N           0.3256   -1.0722   -0.0625 N.ar    1  LIG1       -0.3601
      6 H           0.3685   -2.0786   -0.1125 H       1  LIG1        0.1654
      7 H           2.4049   -0.6323   -0.1109 H       1  LIG1        0.0810
      8 C           1.8105    2.2943    0.1575 C.3     1  LIG1       -0.0380
      9 H           1.6792    2.7983    1.1170 H       1  LIG1        0.0278
     10 H           1.5456    2.9961   -0.6356 H       1  LIG1        0.0278
     11 H           2.8637    2.0349    0.0496 H       1  LIG1        0.0278
     12 C          -1.3648    2.1975    0.3277 C.3     1  LIG1       -0.0375
     13 H          -2.3070    1.9100    0.7954 H       1  LIG1        0.0278
     14 H          -1.5806    2.6926   -0.6228 H       1  LIG1        0.0278
     15 H          -0.8719    2.9217    0.9772 H       1  LIG1        0.0278
     16 C          -2.5020   -2.1684    0.5912 C.ar    1  LIG1        0.1499
     17 C          -2.1684   -0.9296    0.0210 C.ar    1  LIG1        0.0356
     18 C          -3.2251   -0.2565   -0.5965 C.ar    1  LIG1       -0.0324
     19 C          -4.5077   -0.7968   -0.5927 C.ar    1  LIG1        0.0515
     20 C          -4.7175   -2.0438    0.0303 C.ar    1  LIG1        0.0930
     21 N          -3.7157   -2.7042    0.5956 N.ar    1  LIG1       -0.2343
     22 H          -3.0432    0.6779   -1.1093 H       1  LIG1        0.0638
     23 N          -0.6367   -3.6178    1.6949 N.1     1  LIG1       -0.1893
     24 C          -1.4717   -2.9821    1.2310 C.1     1  LIG1        0.1198
     25 C          -5.5743   -0.0905   -1.2584 C.1     1  LIG1       -0.0675
     26 C          -6.4396    0.5223   -1.8228 C.1     1  LIG1       -0.1138
     27 H          -7.2107    1.0568   -2.3281 H       1  LIG1        0.1232
     28 C          -6.2718   -3.9982   -0.3490 C.ar    1  LIG1        0.2246
     29 C          -6.0648   -2.6740    0.0935 C.ar    1  LIG1        0.0648
     30 C          -7.1519   -2.0056    0.6118 C.ar    1  LIG1       -0.0246
     31 C          -8.4187   -2.6136    0.7046 C.ar    1  LIG1        0.0532
     32 C          -8.5123   -3.9166    0.2080 C.ar    1  LIG1        0.1127
     33 N          -7.4441   -4.5754   -0.2838 N.ar    1  LIG1       -0.2090
     34 H          -7.0256   -0.9946    0.9830 H       1  LIG1        0.0645
     35 O          -5.2287   -4.6586   -0.8795 O.3     1  LIG1       -0.4792
     36 C          -5.4655   -5.9960   -1.2971 C.3     1  LIG1        0.0804
     37 H          -4.5236   -6.3357   -1.7185 H       1  LIG1        0.0660
     38 H          -5.7451   -6.6137   -0.4427 H       1  LIG1        0.0660
     39 H          -6.2607   -6.0279   -2.0415 H       1  LIG1        0.0660
     40 N          -9.4506   -1.9594    1.3618 N.pl3   1  LIG1       -0.3563
     41 H          -9.3176   -0.9630    1.4567 H       1  LIG1        0.1424
     42 H         -10.3922   -2.1924    1.0768 H       1  LIG1        0.1424
     43 C          -9.7413   -4.7389    0.2422 C.ar    1  LIG1        0.0824
     44 C         -11.1029   -4.5019    0.0813 C.ar    1  LIG1        0.0514
     45 C         -11.7688   -5.7612    0.1868 C.ar    1  LIG1       -0.0283
     46 C         -10.8013   -6.7104    0.3907 C.ar    1  LIG1        0.0034
     47 N          -9.5955   -6.0778    0.4172 N.ar    1  LIG1       -0.3584
     48 H          -8.6806   -6.4985    0.4942 H       1  LIG1        0.1654
     49 H         -10.8782   -7.7757    0.5187 H       1  LIG1        0.0807
     50 C         -11.7420   -3.2599   -0.2350 C.1     1  LIG1       -0.0675
     51 C         -12.2889   -2.2200   -0.4990 C.1     1  LIG1       -0.1138
     52 H         -12.7821   -1.3123   -0.7588 H       1  LIG1        0.1232
     53 H         -12.8300   -5.9197    0.1034 H       1  LIG1        0.0645
@<TRIPOS>BOND
     1    27    26    1
     2    39    36    1
     3    26    25    3
     4    37    36    1
     5    36    35    1
     6    36    38    1
     7    25    19    1
     8    22    18    1
     9    35    28    1
    10    52    51    1
    11    10     8    1
    12    14    12    1
    13    18    19   ar
    14    18    17   ar
    15    19    20   ar
    16    51    50    3
    17    28    33   ar
    18    28    29   ar
    19    33    32   ar
    20    50    44    1
    21     6     5    1
    22     7     1    1
    23     5     1   ar
    24     5     4   ar
    25     1     2   ar
    26    17     4    1
    27    17    16   ar
    28    20    29    1
    29    20    21   ar
    30     4     3   ar
    31    11     8    1
    32     2     3   ar
    33     2     8    1
    34    44    45   ar
    35    44    43   ar
    36    29    30   ar
    37    53    45    1
    38     3    12    1
    39     8     9    1
    40    45    46   ar
    41    32    43    1
    42    32    31   ar
    43    43    47   ar
    44    12    13    1
    45    12    15    1
    46    46    47   ar
    47    46    49    1
    48    47    48    1
    49    16    21   ar
    50    16    24    1
    51    30    31   ar
    52    30    34    1
    53    31    40    1
    54    42    40    1
    55    24    23    3
    56    40    41    1
