@<TRIPOS>MOLECULE
mol_data/opt/m06hf/geoms/mol2/13ii6fa-13ia-12fh-12fl-6ea-4ei-6lf-.out
 99 106 0 0 0
SMALL
GASTEIGER

@<TRIPOS>ATOM
      1 C          -0.5604    1.2852   -1.8822 C.ar    1  LIG1        0.0053
      2 C          -0.2986    1.8187   -0.6453 C.ar    1  LIG1       -0.0297
      3 C          -1.3696    1.4243    0.2187 C.ar    1  LIG1       -0.0221
      4 C          -2.2430    0.6710   -0.5350 C.ar    1  LIG1        0.0548
      5 N          -1.7268    0.5770   -1.8090 N.ar    1  LIG1       -0.3600
      6 H          -2.2246    0.1806   -2.5917 H       1  LIG1        0.1654
      7 H          -0.0035    1.3532   -2.8015 H       1  LIG1        0.0810
      8 C           0.8998    2.6451   -0.2502 C.3     1  LIG1       -0.0380
      9 H           1.4985    2.1259    0.5011 H       1  LIG1        0.0278
     10 H           0.5860    3.6032    0.1681 H       1  LIG1        0.0278
     11 H           1.5298    2.8376   -1.1187 H       1  LIG1        0.0278
     12 C          -1.4872    1.7449    1.6876 C.3     1  LIG1       -0.0375
     13 H          -2.2897    1.1618    2.1398 H       1  LIG1        0.0278
     14 H          -1.6961    2.8061    1.8397 H       1  LIG1        0.0278
     15 H          -0.5545    1.5072    2.2020 H       1  LIG1        0.0278
     16 C          -3.6910   -1.3674   -0.4016 C.ar    1  LIG1        0.2222
     17 C          -3.5134    0.0114   -0.1746 C.ar    1  LIG1        0.0599
     18 C          -4.5802    0.6816    0.4139 C.ar    1  LIG1       -0.0454
     19 C          -5.7496    0.0025    0.7366 C.ar    1  LIG1       -0.0334
     20 C          -5.8234   -1.3604    0.4399 C.ar    1  LIG1        0.0912
     21 N          -4.7936   -2.0207   -0.1168 N.ar    1  LIG1       -0.2110
     22 H          -4.4861    1.7431    0.6070 H       1  LIG1        0.0626
     23 O          -2.7088   -2.1142   -0.9561 O.3     1  LIG1       -0.4919
     24 H          -1.8772   -1.6195   -0.9533 H       1  LIG1        0.2937
     25 H          -6.5789    0.5111    1.2012 H       1  LIG1        0.0640
     26 C          -7.0017   -2.1858    0.7128 C.ar    1  LIG1        0.0685
     27 C          -8.2920   -1.9235    1.1661 C.ar    1  LIG1       -0.0230
     28 C          -8.9691   -3.1665    1.2008 C.ar    1  LIG1       -0.0297
     29 C          -8.0765   -4.1361    0.7719 C.ar    1  LIG1        0.0866
     30 N          -6.9053   -3.5258    0.4833 N.ar    1  LIG1       -0.3503
     31 H          -6.0642   -3.9724    0.1422 H       1  LIG1        0.1660
     32 C          -8.8966   -0.5928    1.5462 C.3     1  LIG1       -0.0376
     33 H          -9.9552   -0.7292    1.7639 H       1  LIG1        0.0278
     34 H          -8.8070    0.1290    0.7316 H       1  LIG1        0.0278
     35 H          -8.4183   -0.1792    2.4370 H       1  LIG1        0.0278
     36 H          -9.9891   -3.3438    1.4992 H       1  LIG1        0.0643
     37 C          -8.1995   -5.5678    0.5929 C.ar    1  LIG1        0.1950
     38 C          -9.2097   -6.4698    0.7109 C.ar    1  LIG1        0.1861
     39 C          -8.6647   -7.7559    0.3827 C.ar    1  LIG1        0.1170
     40 C          -7.3574   -7.5299    0.0685 C.ar    1  LIG1        0.1987
     41 O          -7.0717   -6.2194    0.1907 O.2     1  LIG1       -0.4444
     42 O         -10.4948   -6.2593    1.0674 O.3     1  LIG1       -0.5019
     43 H         -10.9600   -7.0949    0.9073 H       1  LIG1        0.2924
     44 N          -9.4553   -8.9320    0.4085 N.pl3   1  LIG1       -0.3521
     45 H          -9.2144   -9.5517   -0.3611 H       1  LIG1        0.1425
     46 H          -9.3287   -9.4370    1.2814 H       1  LIG1        0.1425
     47 C          -6.3072   -8.4175   -0.3797 C.ar    1  LIG1        0.2175
     48 C          -6.3464   -9.6134   -1.0286 C.ar    1  LIG1        0.2092
     49 C          -4.9873  -10.0209   -1.1910 C.ar    1  LIG1        0.2085
     50 C          -4.2136   -9.0382   -0.6398 C.ar    1  LIG1        0.1837
     51 O          -5.0168   -8.0739   -0.1519 O.2     1  LIG1       -0.4439
     52 O          -7.4379  -10.2936   -1.4655 O.3     1  LIG1       -0.5007
     53 H          -7.1403  -11.1460   -1.8105 H       1  LIG1        0.2924
     54 O          -4.6276  -11.1795   -1.8148 O.3     1  LIG1       -0.4884
     55 C          -4.1130  -10.9722   -3.1376 C.3     1  LIG1        0.0791
     56 H          -3.9299  -11.9608   -3.5506 H       1  LIG1        0.0660
     57 H          -4.8489  -10.4359   -3.7390 H       1  LIG1        0.0660
     58 H          -3.1846  -10.4021   -3.0907 H       1  LIG1        0.0660
     59 C          -2.0325   -7.7646   -0.3832 C.ar    1  LIG1        0.1246
     60 C          -2.7610   -8.9645   -0.4674 C.ar    1  LIG1        0.0549
     61 C          -2.0450  -10.1637   -0.3921 C.ar    1  LIG1       -0.0463
     62 C          -0.6732  -10.1402   -0.2157 C.ar    1  LIG1       -0.0349
     63 C          -0.0409   -8.8971   -0.0972 C.ar    1  LIG1        0.0736
     64 N          -0.7110   -7.7529   -0.2000 N.ar    1  LIG1       -0.2377
     65 H          -2.5818  -11.1016   -0.4722 H       1  LIG1        0.0626
     66 C          -2.6498   -6.4602   -0.5121 C.1     1  LIG1       -0.0491
     67 C          -3.0868   -5.3464   -0.6233 C.1     1  LIG1       -0.1124
     68 H          -3.4359   -4.3373   -0.7160 H       1  LIG1        0.1232
     69 H          -0.1014  -11.0543   -0.1616 H       1  LIG1        0.0639
     70 C           2.2034   -9.6494    0.8615 C.ar    1  LIG1        0.0344
     71 C           3.5820   -9.4381    0.9769 C.ar    1  LIG1       -0.0376
     72 C           1.4365   -8.7638    0.0909 C.ar    1  LIG1        0.0160
     73 C           4.2034   -8.3700    0.3416 C.ar    1  LIG1       -0.0086
     74 H           4.1686  -10.1236    1.5747 H       1  LIG1        0.0636
     75 C           2.0726   -7.6811   -0.5199 C.ar    1  LIG1       -0.0479
     76 C           3.4423   -7.4653   -0.4169 C.ar    1  LIG1       -0.0419
     77 H           1.4549   -6.9864   -1.0752 H       1  LIG1        0.0627
     78 C           1.6351  -10.7566    1.5986 C.1     1  LIG1       -0.0690
     79 C           1.2133  -11.6832    2.2386 C.1     1  LIG1       -0.1139
     80 H           0.8289  -12.4965    2.8093 H       1  LIG1        0.1232
     81 C           4.0850   -6.2725   -1.0956 C.3     1  LIG1       -0.0391
     82 H           3.3194   -5.5738   -1.4294 H       1  LIG1        0.0278
     83 H           4.6669   -6.6125   -1.9542 H       1  LIG1        0.0278
     84 H           4.7578   -5.7607   -0.4052 H       1  LIG1        0.0278
     85 C           6.5846   -8.2615   -0.5378 C.ar    1  LIG1        0.2226
     86 C           5.6705   -8.1744    0.5379 C.ar    1  LIG1        0.0474
     87 C           6.1955   -7.9148    1.7886 C.ar    1  LIG1       -0.0059
     88 C           7.5764   -7.7366    1.9401 C.ar    1  LIG1        0.1357
     89 C           8.3741   -7.8285    0.8159 C.ar    1  LIG1        0.0728
     90 N           7.8786   -8.0905   -0.4007 N.ar    1  LIG1       -0.2172
     91 H           5.5509   -7.8336    2.6551 H       1  LIG1        0.0662
     92 H           9.4486   -7.6919    0.8819 H       1  LIG1        0.0868
     93 O           6.0808   -8.5433   -1.7552 O.3     1  LIG1       -0.4792
     94 C           7.0115   -8.6082   -2.8305 C.3     1  LIG1        0.0804
     95 H           6.4180   -8.8448   -3.7090 H       1  LIG1        0.0660
     96 H           7.5194   -7.6509   -2.9495 H       1  LIG1        0.0660
     97 H           7.7532   -9.3835   -2.6414 H       1  LIG1        0.0660
     98 O           8.0536   -7.4719    3.1885 O.3     1  LIG1       -0.5052
     99 H           9.0114   -7.3726    3.1739 H       1  LIG1        0.2922
@<TRIPOS>BOND
     1    57    55    1
     2    95    94    1
     3    56    55    1
     4    55    58    1
     5    55    54    1
     6    96    94    1
     7    94    97    1
     8    94    93    1
     9     7     1    1
    10     6     5    1
    11    83    81    1
    12     1     5   ar
    13     1     2   ar
    14    54    49    1
    15    53    52    1
    16     5     4   ar
    17    93    85    1
    18    52    48    1
    19    82    81    1
    20    49    48   ar
    21    49    50   ar
    22    11     8    1
    23    81    76    1
    24    81    84    1
    25    77    75    1
    26    48    47   ar
    27    23    24    1
    28    23    16    1
    29    68    67    1
    30     2     8    1
    31     2     3   ar
    32    50    60    1
    33    50    51   ar
    34    67    66    3
    35    85    90   ar
    36    85    86   ar
    37     4    17    1
    38     4     3   ar
    39    75    76   ar
    40    75    72   ar
    41    66    59    1
    42    65    61    1
    43    60    61   ar
    44    60    59   ar
    45    76    73   ar
    46    16    17   ar
    47    16    21   ar
    48    90    89   ar
    49    61    62   ar
    50    59    64   ar
    51    47    51   ar
    52    47    40    1
    53    45    44    1
    54     8    10    1
    55     8     9    1
    56    62    69    1
    57    62    63   ar
    58    64    63   ar
    59    17    18   ar
    60    21    20   ar
    61    63    72    1
    62    40    41   ar
    63    40    39   ar
    64    72    70   ar
    65    31    30    1
    66    41    37   ar
    67     3    12    1
    68    73    86    1
    69    73    71   ar
    70    39    44    1
    71    39    38   ar
    72    44    46    1
    73    18    22    1
    74    18    19   ar
    75    20    26    1
    76    20    19   ar
    77    30    26   ar
    78    30    29   ar
    79    86    87   ar
    80    37    38   ar
    81    37    29    1
    82    38    42    1
    83    26    27   ar
    84    34    32    1
    85    19    25    1
    86    29    28   ar
    87    89    92    1
    88    89    88   ar
    89    70    71   ar
    90    70    78    1
    91    43    42    1
    92    71    74    1
    93    27    28   ar
    94    27    32    1
    95    28    36    1
    96    32    33    1
    97    32    35    1
    98    78    79    3
    99    12    14    1
   100    12    13    1
   101    12    15    1
   102    87    88   ar
   103    87    91    1
   104    88    98    1
   105    79    80    1
   106    99    98    1
