@<TRIPOS>MOLECULE
mol_data/opt/m06hf/geoms/mol2/13ii.out
 16 16 0 0 0
SMALL
GASTEIGER

@<TRIPOS>ATOM
      1 C           1.1156   -0.4396    0.0590 C.ar    1  LIG1        0.0048
      2 C           0.7177    0.8721    0.0008 C.ar    1  LIG1       -0.0303
      3 C          -0.7149    0.8744    0.0012 C.ar    1  LIG1       -0.0303
      4 C          -1.1170   -0.4360    0.0594 C.ar    1  LIG1        0.0048
      5 N          -0.0019   -1.2259    0.0942 N.ar    1  LIG1       -0.3665
      6 H          -0.0035   -2.2307    0.1389 H       1  LIG1        0.1648
      7 H          -2.1066   -0.8605    0.0785 H       1  LIG1        0.0809
      8 H           2.1039   -0.8672    0.0776 H       1  LIG1        0.0809
      9 C           1.6102    2.0872   -0.0533 C.3     1  LIG1       -0.0381
     10 H           1.4290    2.7409    0.8026 H       1  LIG1        0.0278
     11 H           1.4281    2.6628   -0.9634 H       1  LIG1        0.0278
     12 H           2.6588    1.7881   -0.0406 H       1  LIG1        0.0278
     13 C          -1.6036    2.0924   -0.0525 C.3     1  LIG1       -0.0381
     14 H          -2.6530    1.7966   -0.0394 H       1  LIG1        0.0278
     15 H          -1.4200    2.6674   -0.9627 H       1  LIG1        0.0278
     16 H          -1.4198    2.7454    0.8033 H       1  LIG1        0.0278
@<TRIPOS>BOND
     1    11     9    1
     2    15    13    1
     3     9    12    1
     4     9     2    1
     5     9    10    1
     6    13    14    1
     7    13     3    1
     8    13    16    1
     9     2     3   ar
    10     2     1   ar
    11     3     4   ar
    12     1     8    1
    13     1     5   ar
    14     4     7    1
    15     4     5   ar
    16     5     6    1
