@<TRIPOS>MOLECULE
mol_data/opt/m06hf/geoms/mol2/13ii13ii.out
 30 31 0 0 0
SMALL
GASTEIGER

@<TRIPOS>ATOM
      1 C           1.0832   -0.2953   -0.7470 C.ar    1  LIG1        0.0054
      2 C           0.8318    0.9417   -0.2059 C.ar    1  LIG1       -0.0296
      3 C          -0.5313    0.9393    0.2290 C.ar    1  LIG1       -0.0209
      4 C          -1.0513   -0.3008   -0.0729 C.ar    1  LIG1        0.0663
      5 N          -0.0559   -1.0423   -0.6592 N.ar    1  LIG1       -0.3590
      6 H          -0.1954   -1.9578   -1.0545 H       1  LIG1        0.1654
      7 H           1.9844   -0.6919   -1.1845 H       1  LIG1        0.0810
      8 C           1.8028    2.0879   -0.0720 C.3     1  LIG1       -0.0380
      9 H           1.9518    2.3507    0.9774 H       1  LIG1        0.0278
     10 H           1.4300    2.9727   -0.5918 H       1  LIG1        0.0278
     11 H           2.7695    1.8194   -0.4988 H       1  LIG1        0.0278
     12 C          -1.2550    2.0650    0.9227 C.3     1  LIG1       -0.0374
     13 H          -2.2122    1.7081    1.3049 H       1  LIG1        0.0278
     14 H          -1.4417    2.8949    0.2365 H       1  LIG1        0.0278
     15 H          -0.6617    2.4434    1.7578 H       1  LIG1        0.0278
     16 C          -2.3921   -0.8548    0.1460 C.ar    1  LIG1        0.0663
     17 C          -3.6298   -0.3939   -0.2476 C.ar    1  LIG1       -0.0209
     18 C          -4.6003   -1.3267    0.2375 C.ar    1  LIG1       -0.0296
     19 C          -3.9128   -2.3148    0.8984 C.ar    1  LIG1        0.0054
     20 N          -2.5799   -2.0269    0.8353 N.ar    1  LIG1       -0.3590
     21 H          -1.8435   -2.5261    1.3068 H       1  LIG1        0.1654
     22 H          -4.2756   -3.1939    1.4046 H       1  LIG1        0.0810
     23 C          -3.9021    0.8407   -1.0685 C.3     1  LIG1       -0.0374
     24 H          -4.5547    0.6030   -1.9111 H       1  LIG1        0.0278
     25 H          -2.9638    1.2424   -1.4530 H       1  LIG1        0.0278
     26 H          -4.3912    1.6123   -0.4685 H       1  LIG1        0.0278
     27 C          -6.0925   -1.2379    0.0370 C.3     1  LIG1       -0.0380
     28 H          -6.5922   -2.0759    0.5234 H       1  LIG1        0.0278
     29 H          -6.3440   -1.2579   -1.0255 H       1  LIG1        0.0278
     30 H          -6.4844   -0.3104    0.4592 H       1  LIG1        0.0278
@<TRIPOS>BOND
     1    24    23    1
     2    25    23    1
     3     7     1    1
     4    23    26    1
     5    23    17    1
     6     6     5    1
     7    29    27    1
     8     1     5   ar
     9     1     2   ar
    10     5     4   ar
    11    10     8    1
    12    11     8    1
    13    17    16   ar
    14    17    18   ar
    15     2     8    1
    16     2     3   ar
    17     4    16    1
    18     4     3   ar
    19     8     9    1
    20    27    18    1
    21    27    30    1
    22    27    28    1
    23    16    20   ar
    24     3    12    1
    25    14    12    1
    26    18    19   ar
    27    20    19   ar
    28    20    21    1
    29    19    22    1
    30    12    13    1
    31    12    15    1
