@<TRIPOS>MOLECULE
mol_data/opt/m06hf/geoms/mol2/13ii4hh13il12ii-.out
 58 61 0 0 0
SMALL
GASTEIGER

@<TRIPOS>ATOM
      1 C           0.9710    0.6868   -1.3557 C.ar    1  LIG1        0.0053
      2 C           1.0290    1.0760   -0.0403 C.ar    1  LIG1       -0.0297
      3 C          -0.2120    0.6981    0.5647 C.ar    1  LIG1       -0.0223
      4 C          -0.9745    0.0952   -0.4166 C.ar    1  LIG1        0.0515
      5 N          -0.2376    0.0909   -1.5729 N.ar    1  LIG1       -0.3601
      6 H          -0.5876   -0.2355   -2.4587 H       1  LIG1        0.1654
      7 H           1.6965    0.7928   -2.1448 H       1  LIG1        0.0810
      8 C           2.1831    1.7530    0.6554 C.3     1  LIG1       -0.0380
      9 H           2.5570    1.1359    1.4752 H       1  LIG1        0.0278
     10 H           1.8753    2.7149    1.0698 H       1  LIG1        0.0278
     11 H           3.0006    1.9248   -0.0453 H       1  LIG1        0.0278
     12 C          -0.5744    0.8554    2.0215 C.3     1  LIG1       -0.0375
     13 H          -1.5131    0.3461    2.2360 H       1  LIG1        0.0278
     14 H          -0.6900    1.9087    2.2884 H       1  LIG1        0.0278
     15 H           0.2124    0.4302    2.6480 H       1  LIG1        0.0278
     16 C          -3.4281    0.2349    0.0793 C.ar    1  LIG1        0.0345
     17 C          -4.6855   -0.3766    0.0803 C.ar    1  LIG1       -0.0295
     18 C          -2.3260   -0.5060   -0.3755 C.ar    1  LIG1        0.0209
     19 C          -4.8788   -1.6756   -0.3835 C.ar    1  LIG1        0.0211
     20 H          -5.5330    0.1643    0.4824 H       1  LIG1        0.0643
     21 C          -2.5217   -1.8105   -0.8383 C.ar    1  LIG1       -0.0295
     22 C          -3.7745   -2.4087   -0.8592 C.ar    1  LIG1        0.0345
     23 H          -1.6567   -2.3713   -1.1764 H       1  LIG1        0.0643
     24 N          -3.2728    1.5352    0.5646 N.pl3   1  LIG1       -0.3574
     25 H          -2.4119    1.9774    0.2638 H       1  LIG1        0.1423
     26 H          -4.0843    2.1252    0.4479 H       1  LIG1        0.1423
     27 N          -3.9425   -3.7528   -1.2896 N.pl3   1  LIG1       -0.3574
     28 H          -4.6815   -3.8419   -1.9824 H       1  LIG1        0.1423
     29 H          -3.0822   -4.1458   -1.6521 H       1  LIG1        0.1423
     30 C          -6.2330   -2.2636   -0.3444 C.ar    1  LIG1        0.0553
     31 C          -7.4771   -1.6711   -0.5082 C.ar    1  LIG1        0.0173
     32 C          -8.4306   -2.7013   -0.3168 C.ar    1  LIG1        0.1518
     33 C          -7.7607   -3.8822   -0.0424 C.ar    1  LIG1        0.1252
     34 N          -6.4304   -3.5880   -0.0753 N.ar    1  LIG1       -0.3485
     35 H          -5.6750   -4.2508    0.0543 H       1  LIG1        0.1661
     36 C          -7.8248   -0.2476   -0.8632 C.3     1  LIG1       -0.0342
     37 H          -8.7701   -0.2394   -1.4066 H       1  LIG1        0.0279
     38 H          -7.0465    0.1942   -1.4863 H       1  LIG1        0.0279
     39 H          -7.9503    0.3666    0.0313 H       1  LIG1        0.0279
     40 O          -9.7835   -2.5203   -0.4270 O.3     1  LIG1       -0.4926
     41 C         -10.3494   -3.1657   -1.5652 C.3     1  LIG1        0.0789
     42 H         -11.4116   -2.9290   -1.5572 H       1  LIG1        0.0660
     43 H          -9.8834   -2.7854   -2.4774 H       1  LIG1        0.0660
     44 H         -10.2047   -4.2465   -1.4995 H       1  LIG1        0.0660
     45 C          -8.2163   -5.2448    0.2093 C.ar    1  LIG1        0.1576
     46 C          -9.3548   -5.7855    0.7240 C.ar    1  LIG1       -0.0003
     47 C          -9.1464   -7.2192    0.7048 C.ar    1  LIG1       -0.0092
     48 C          -7.9062   -7.4076    0.1992 C.ar    1  LIG1        0.0958
     49 O          -7.3297   -6.2233   -0.1104 O.2     1  LIG1       -0.4608
     50 H          -7.3221   -8.2913    0.0064 H       1  LIG1        0.1032
     51 C         -10.5675   -5.0739    1.2661 C.3     1  LIG1       -0.0358
     52 H         -10.7077   -5.3283    2.3187 H       1  LIG1        0.0279
     53 H         -11.4638   -5.3815    0.7214 H       1  LIG1        0.0279
     54 H         -10.4505   -3.9955    1.1680 H       1  LIG1        0.0279
     55 C         -10.1223   -8.2651    1.1759 C.3     1  LIG1       -0.0365
     56 H          -9.6956   -9.2615    1.0640 H       1  LIG1        0.0279
     57 H         -11.0455   -8.2141    0.5962 H       1  LIG1        0.0279
     58 H         -10.3708   -8.1083    2.2268 H       1  LIG1        0.0279
@<TRIPOS>BOND
     1    43    41    1
     2     6     5    1
     3     7     1    1
     4    28    27    1
     5    29    27    1
     6     5     1   ar
     7     5     4   ar
     8    41    42    1
     9    41    44    1
    10    41    40    1
    11    38    36    1
    12    37    36    1
    13     1     2   ar
    14    27    22    1
    15    23    21    1
    16    36    31    1
    17    36    39    1
    18    22    21   ar
    19    22    19   ar
    20    21    18   ar
    21    31    30   ar
    22    31    32   ar
    23    40    32    1
    24     4    18    1
    25     4     3   ar
    26    19    30    1
    27    19    17   ar
    28    18    16   ar
    29    30    34   ar
    30    32    33   ar
    31    49    48   ar
    32    49    45   ar
    33    34    33   ar
    34    34    35    1
    35    11     8    1
    36    33    45    1
    37     2     3   ar
    38     2     8    1
    39    50    48    1
    40    16    17   ar
    41    16    24    1
    42    17    20    1
    43    48    47   ar
    44    45    46   ar
    45    25    24    1
    46    26    24    1
    47     3    12    1
    48    57    55    1
    49     8    10    1
    50     8     9    1
    51    47    46   ar
    52    47    55    1
    53    53    51    1
    54    46    51    1
    55    56    55    1
    56    54    51    1
    57    55    58    1
    58    51    52    1
    59    12    13    1
    60    12    14    1
    61    12    15    1
