@<TRIPOS>MOLECULE
mol_data/opt/m06hf/geoms/mol2/13ii13ii13ii.out
 44 46 0 0 0
SMALL
GASTEIGER

@<TRIPOS>ATOM
      1 C           1.1551    0.0326    0.7290 C.ar    1  LIG1        0.0054
      2 C           0.8127    0.9756   -0.2086 C.ar    1  LIG1       -0.0296
      3 C          -0.5885    0.8297   -0.4582 C.ar    1  LIG1       -0.0209
      4 C          -1.0383   -0.1954    0.3462 C.ar    1  LIG1        0.0663
      5 N           0.0343   -0.6761    1.0549 N.ar    1  LIG1       -0.3590
      6 H          -0.0375   -1.3688    1.7818 H       1  LIG1        0.1654
      7 H           2.1085   -0.1831    1.1814 H       1  LIG1        0.0810
      8 C           1.7333    1.9691   -0.8718 C.3     1  LIG1       -0.0380
      9 H           1.3865    2.9900   -0.7008 H       1  LIG1        0.0278
     10 H           1.7741    1.8012   -1.9501 H       1  LIG1        0.0278
     11 H           2.7433    1.8762   -0.4720 H       1  LIG1        0.0278
     12 C          -1.4119    1.6192   -1.4435 C.3     1  LIG1       -0.0374
     13 H          -1.5253    2.6563   -1.1185 H       1  LIG1        0.0278
     14 H          -2.4030    1.1741   -1.5375 H       1  LIG1        0.0278
     15 H          -0.9335    1.6223   -2.4248 H       1  LIG1        0.0278
     16 C          -2.3781   -0.7730    0.4943 C.ar    1  LIG1        0.0668
     17 C          -3.5849   -0.1762    0.7926 C.ar    1  LIG1       -0.0202
     18 C          -4.5767   -1.2059    0.7928 C.ar    1  LIG1       -0.0202
     19 C          -3.9350   -2.3895    0.4946 C.ar    1  LIG1        0.0668
     20 N          -2.6005   -2.1169    0.3314 N.ar    1  LIG1       -0.3514
     21 H          -1.9332   -2.7596   -0.0662 H       1  LIG1        0.1660
     22 C          -3.8011    1.2810    1.1120 C.3     1  LIG1       -0.0374
     23 H          -4.3343    1.3907    2.0584 H       1  LIG1        0.0278
     24 H          -4.3900    1.7700    0.3323 H       1  LIG1        0.0278
     25 H          -2.8378    1.7861    1.1904 H       1  LIG1        0.0278
     26 C          -6.0409   -1.0446    1.1125 C.3     1  LIG1       -0.0374
     27 H          -6.5095   -2.0262    1.1912 H       1  LIG1        0.0278
     28 H          -6.5519   -0.4746    0.3328 H       1  LIG1        0.0278
     29 H          -6.1704   -0.5157    2.0588 H       1  LIG1        0.0278
     30 C          -4.4620   -3.7502    0.3467 C.ar    1  LIG1        0.0663
     31 C          -5.4695   -4.2382   -0.4575 C.ar    1  LIG1       -0.0209
     32 C          -5.5627   -5.6439   -0.2076 C.ar    1  LIG1       -0.0296
     33 C          -4.6074   -5.9504    0.7299 C.ar    1  LIG1        0.0054
     34 N          -3.9412   -4.8038    1.0555 N.ar    1  LIG1       -0.3590
     35 H          -3.2516   -4.7059    1.7823 H       1  LIG1        0.1654
     36 H          -4.3561   -6.8951    1.1825 H       1  LIG1        0.0810
     37 C          -6.2894   -3.4453   -1.4430 C.3     1  LIG1       -0.0374
     38 H          -6.2746   -3.9237   -2.4242 H       1  LIG1        0.0278
     39 H          -5.8817   -2.4382   -1.5373 H       1  LIG1        0.0278
     40 H          -7.3300   -3.3708   -1.1180 H       1  LIG1        0.0278
     41 C          -6.5211   -6.6013   -0.8705 C.3     1  LIG1       -0.0380
     42 H          -6.3903   -7.6070   -0.4706 H       1  LIG1        0.0278
     43 H          -6.3519   -6.6359   -1.9489 H       1  LIG1        0.0278
     44 H          -7.5542   -6.2930   -0.6994 H       1  LIG1        0.0278
@<TRIPOS>BOND
     1    15    12    1
     2    38    37    1
     3    10     8    1
     4    43    41    1
     5    14    12    1
     6    39    37    1
     7    12    13    1
     8    12     3    1
     9    37    40    1
    10    37    31    1
    11     8     9    1
    12     8    11    1
    13     8     2    1
    14    41    44    1
    15    41    42    1
    16    41    32    1
    17     3     2   ar
    18     3     4   ar
    19    31    32   ar
    20    31    30   ar
    21     2     1   ar
    22    32    33   ar
    23    21    20    1
    24    20    16   ar
    25    20    19   ar
    26    24    22    1
    27    28    26    1
    28     4    16    1
    29     4     5   ar
    30    30    19    1
    31    30    34   ar
    32    16    17   ar
    33    19    18   ar
    34     1     5   ar
    35     1     7    1
    36    33    34   ar
    37    33    36    1
    38    17    18   ar
    39    17    22    1
    40    18    26    1
    41     5     6    1
    42    34    35    1
    43    22    25    1
    44    22    23    1
    45    26    27    1
    46    26    29    1
