@<TRIPOS>MOLECULE
mol_data/opt/m06hf/geoms/mol2/13ii13ii-13ii-13ii.out
 58 61 0 0 0
SMALL
GASTEIGER

@<TRIPOS>ATOM
      1 C           1.1304   -0.8655   -1.6164 C.ar    1  LIG1        0.0054
      2 C           1.0705    0.4703   -1.3001 C.ar    1  LIG1       -0.0296
      3 C          -0.1944    0.6955   -0.6731 C.ar    1  LIG1       -0.0209
      4 C          -0.8517   -0.5175   -0.6399 C.ar    1  LIG1        0.0663
      5 N          -0.0324   -1.4533   -1.2138 N.ar    1  LIG1       -0.3590
      6 H          -0.2991   -2.4130   -1.3626 H       1  LIG1        0.1654
      7 H           1.9115   -1.4322   -2.0948 H       1  LIG1        0.0810
      8 C           2.1369    1.5084   -1.5459 C.3     1  LIG1       -0.0380
      9 H           2.4935    1.9307   -0.6042 H       1  LIG1        0.0278
     10 H           1.7481    2.3252   -2.1573 H       1  LIG1        0.0278
     11 H           2.9858    1.0639   -2.0658 H       1  LIG1        0.0278
     12 C          -0.6895    2.0069   -0.1156 C.3     1  LIG1       -0.0374
     13 H          -1.6129    1.8539    0.4440 H       1  LIG1        0.0278
     14 H          -0.8765    2.7301   -0.9133 H       1  LIG1        0.0278
     15 H           0.0532    2.4373    0.5589 H       1  LIG1        0.0278
     16 C          -2.1807   -0.8824   -0.1366 C.ar    1  LIG1        0.0668
     17 C          -2.5844   -1.9006    0.7045 C.ar    1  LIG1       -0.0202
     18 C          -4.0038   -1.8029    0.8334 C.ar    1  LIG1       -0.0202
     19 C          -4.4094   -0.7307    0.0652 C.ar    1  LIG1        0.0668
     20 N          -3.2940   -0.1804   -0.5091 N.ar    1  LIG1       -0.3514
     21 H          -3.3011    0.5357   -1.2190 H       1  LIG1        0.1660
     22 C          -1.6942   -2.8926    1.4105 C.3     1  LIG1       -0.0374
     23 H          -0.6461   -2.6275    1.2681 H       1  LIG1        0.0278
     24 H          -1.8573   -3.9061    1.0358 H       1  LIG1        0.0278
     25 H          -1.9054   -2.8953    2.4816 H       1  LIG1        0.0278
     26 C          -4.8879   -2.6661    1.6966 C.3     1  LIG1       -0.0374
     27 H          -4.5084   -2.6975    2.7201 H       1  LIG1        0.0278
     28 H          -4.9277   -3.6901    1.3180 H       1  LIG1        0.0278
     29 H          -5.8997   -2.2591    1.7100 H       1  LIG1        0.0278
     30 C          -5.7464   -0.1757   -0.1682 C.ar    1  LIG1        0.0668
     31 C          -6.9024   -0.7803   -0.6201 C.ar    1  LIG1       -0.0202
     32 C          -7.9142    0.2257   -0.6645 C.ar    1  LIG1       -0.0202
     33 C          -7.3325    1.4082   -0.2501 C.ar    1  LIG1        0.0668
     34 N          -6.0222    1.1482    0.0441 N.ar    1  LIG1       -0.3514
     35 H          -5.3709    1.8306    0.3992 H       1  LIG1        0.1660
     36 C          -7.0576   -2.2267   -1.0158 C.3     1  LIG1       -0.0374
     37 H          -7.6919   -2.7638   -0.3063 H       1  LIG1        0.0278
     38 H          -6.0793   -2.7086   -1.0409 H       1  LIG1        0.0278
     39 H          -7.5146   -2.3048   -2.0043 H       1  LIG1        0.0278
     40 C          -9.3545    0.0218   -1.0630 C.3     1  LIG1       -0.0374
     41 H          -9.7838   -0.8163   -0.5110 H       1  LIG1        0.0278
     42 H          -9.4430   -0.2004   -2.1295 H       1  LIG1        0.0278
     43 H          -9.9377    0.9159   -0.8396 H       1  LIG1        0.0278
     44 C          -7.8898    2.7591   -0.1137 C.ar    1  LIG1        0.0663
     45 C          -7.8854    3.6402    0.9478 C.ar    1  LIG1       -0.0209
     46 C          -8.5614    4.8230    0.5145 C.ar    1  LIG1       -0.0296
     47 C          -8.9529    4.6091   -0.7853 C.ar    1  LIG1        0.0054
     48 N          -8.5444    3.3618   -1.1556 N.ar    1  LIG1       -0.3590
     49 H          -8.6439    2.9446   -2.0666 H       1  LIG1        0.1654
     50 H          -9.4891    5.2510   -1.4643 H       1  LIG1        0.0810
     51 C          -7.3190    3.3931    2.3241 C.3     1  LIG1       -0.0374
     52 H          -8.0750    3.5945    3.0857 H       1  LIG1        0.0278
     53 H          -6.4633    4.0430    2.5222 H       1  LIG1        0.0278
     54 H          -7.0033    2.3539    2.4227 H       1  LIG1        0.0278
     55 C          -8.8066    6.0585    1.3441 C.3     1  LIG1       -0.0380
     56 H          -9.3438    6.8069    0.7614 H       1  LIG1        0.0278
     57 H          -7.8626    6.4942    1.6782 H       1  LIG1        0.0278
     58 H          -9.4007    5.8205    2.2289 H       1  LIG1        0.0278
@<TRIPOS>BOND
     1    10     8    1
     2    42    40    1
     3     7     1    1
     4    49    48    1
     5    11     8    1
     6    39    36    1
     7     1     2   ar
     8     1     5   ar
     9     8     2    1
    10     8     9    1
    11    50    47    1
    12     6     5    1
    13     2     3   ar
    14    21    20    1
    15     5     4   ar
    16    48    47   ar
    17    48    44   ar
    18    40    43    1
    19    40    32    1
    20    40    41    1
    21    38    36    1
    22    36    31    1
    23    36    37    1
    24    14    12    1
    25    47    46   ar
    26     3     4   ar
    27     3    12    1
    28    32    31   ar
    29    32    33   ar
    30     4    16    1
    31    31    30   ar
    32    20    16   ar
    33    20    19   ar
    34    33    44    1
    35    33    34   ar
    36    30    34   ar
    37    30    19    1
    38    16    17   ar
    39    12    13    1
    40    12    15    1
    41    44    45   ar
    42    34    35    1
    43    19    18   ar
    44    46    45   ar
    45    46    55    1
    46    17    18   ar
    47    17    22    1
    48    56    55    1
    49    18    26    1
    50    45    51    1
    51    24    22    1
    52    23    22    1
    53    28    26    1
    54    55    57    1
    55    55    58    1
    56    22    25    1
    57    26    29    1
    58    26    27    1
    59    51    54    1
    60    51    53    1
    61    51    52    1
