@<TRIPOS>MOLECULE
mol_data/opt/m06hf/geoms/mol2/13ii13ii13ii13ii.out
 58 61 0 0 0
SMALL
GASTEIGER

@<TRIPOS>ATOM
      1 C           1.2469   -0.0232   -0.1195 C.ar    1  LIG1        0.0054
      2 C           0.7584    1.0453   -0.8305 C.ar    1  LIG1       -0.0296
      3 C          -0.6685    0.9409   -0.8170 C.ar    1  LIG1       -0.0209
      4 C          -0.9851   -0.1861   -0.0890 C.ar    1  LIG1        0.0663
      5 N           0.1893   -0.7659    0.3211 N.ar    1  LIG1       -0.3590
      6 H           0.2405   -1.5610    0.9363 H       1  LIG1        0.1654
      7 H           2.2631   -0.3028    0.1032 H       1  LIG1        0.0810
      8 C           1.5625    2.1205   -1.5173 C.3     1  LIG1       -0.0380
      9 H           1.2932    3.1073   -1.1356 H       1  LIG1        0.0278
     10 H           1.3809    2.1133   -2.5941 H       1  LIG1        0.0278
     11 H           2.6281    1.9647   -1.3475 H       1  LIG1        0.0278
     12 C          -1.6422    1.8647   -1.5033 C.3     1  LIG1       -0.0374
     13 H          -2.6442    1.4352   -1.4721 H       1  LIG1        0.0278
     14 H          -1.3559    2.0137   -2.5463 H       1  LIG1        0.0278
     15 H          -1.6673    2.8428   -1.0165 H       1  LIG1        0.0278
     16 C          -2.2869   -0.7706    0.2478 C.ar    1  LIG1        0.0668
     17 C          -3.3924   -0.2086    0.8505 C.ar    1  LIG1       -0.0202
     18 C          -4.3929   -1.2267    0.9321 C.ar    1  LIG1       -0.0202
     19 C          -3.8571   -2.3693    0.3767 C.ar    1  LIG1        0.0668
     20 N          -2.5749   -2.0847   -0.0212 N.ar    1  LIG1       -0.3514
     21 H          -2.0169   -2.6797   -0.6141 H       1  LIG1        0.1660
     22 C          -3.4997    1.1995    1.3774 C.3     1  LIG1       -0.0374
     23 H          -3.8465    1.1947    2.4126 H       1  LIG1        0.0278
     24 H          -4.2062    1.7872    0.7863 H       1  LIG1        0.0278
     25 H          -2.5228    1.6827    1.3357 H       1  LIG1        0.0278
     26 C          -5.7571   -1.0945    1.5589 C.3     1  LIG1       -0.0374
     27 H          -6.2262   -2.0764    1.6326 H       1  LIG1        0.0278
     28 H          -6.4011   -0.4442    0.9622 H       1  LIG1        0.0278
     29 H          -5.6782   -0.6657    2.5599 H       1  LIG1        0.0278
     30 C          -4.4385   -3.7039    0.1982 C.ar    1  LIG1        0.0668
     31 C          -5.6090   -4.0989   -0.4176 C.ar    1  LIG1       -0.0202
     32 C          -5.6853   -5.5211   -0.3056 C.ar    1  LIG1       -0.0202
     33 C          -4.5519   -5.9396    0.3615 C.ar    1  LIG1        0.0668
     34 N          -3.8088   -4.8286    0.6621 N.ar    1  LIG1       -0.3514
     35 H          -2.9247   -4.8384    1.1455 H       1  LIG1        0.1660
     36 C          -6.6035   -3.1984   -1.1049 C.3     1  LIG1       -0.0374
     37 H          -7.5336   -3.1294   -0.5356 H       1  LIG1        0.0278
     38 H          -6.8423   -3.5861   -2.0970 H       1  LIG1        0.0278
     39 H          -6.1841   -2.1968   -1.2091 H       1  LIG1        0.0278
     40 C          -6.8000   -6.4041   -0.8055 C.3     1  LIG1       -0.0374
     41 H          -6.6506   -7.4234   -0.4475 H       1  LIG1        0.0278
     42 H          -6.8282   -6.4193   -1.8979 H       1  LIG1        0.0278
     43 H          -7.7651   -6.0413   -0.4462 H       1  LIG1        0.0278
     44 C          -4.1150   -7.2853    0.7504 C.ar    1  LIG1        0.0663
     45 C          -3.9036   -8.4147   -0.0107 C.ar    1  LIG1       -0.0209
     46 C          -3.4820   -9.4506    0.8816 C.ar    1  LIG1       -0.0296
     47 C          -3.4510   -8.9070    2.1425 C.ar    1  LIG1        0.0054
     48 N          -3.8279   -7.5978    2.0561 N.ar    1  LIG1       -0.3590
     49 H          -3.9863   -6.9765    2.8324 H       1  LIG1        0.1654
     50 H          -3.1907   -9.3566    3.0863 H       1  LIG1        0.0810
     51 C          -4.0564   -8.5227   -1.5065 C.3     1  LIG1       -0.0374
     52 H          -4.8844   -9.1858   -1.7685 H       1  LIG1        0.0278
     53 H          -3.1463   -8.9235   -1.9574 H       1  LIG1        0.0278
     54 H          -4.2536   -7.5366   -1.9283 H       1  LIG1        0.0278
     55 C          -3.1254  -10.8645    0.4958 C.3     1  LIG1       -0.0380
     56 H          -2.8597  -11.4433    1.3805 H       1  LIG1        0.0278
     57 H          -2.2771  -10.8780   -0.1916 H       1  LIG1        0.0278
     58 H          -3.9676  -11.3543    0.0030 H       1  LIG1        0.0278
@<TRIPOS>BOND
     1    10     8    1
     2    14    12    1
     3    38    36    1
     4    53    51    1
     5    54    51    1
     6    42    40    1
     7    52    51    1
     8     8    11    1
     9     8     9    1
    10     8     2    1
    11    51    45    1
    12    12    13    1
    13    12    15    1
    14    12     3    1
    15    39    36    1
    16    36    37    1
    17    36    31    1
    18     2     3   ar
    19     2     1   ar
    20     3     4   ar
    21    40    41    1
    22    40    43    1
    23    40    32    1
    24    21    20    1
    25    31    32   ar
    26    31    30   ar
    27    32    33   ar
    28    57    55    1
    29     1     7    1
    30     1     5   ar
    31     4    16    1
    32     4     5   ar
    33    20    16   ar
    34    20    19   ar
    35    45    44   ar
    36    45    46   ar
    37    58    55    1
    38    30    19    1
    39    30    34   ar
    40    16    17   ar
    41     5     6    1
    42    33    34   ar
    43    33    44    1
    44    19    18   ar
    45    55    46    1
    46    55    56    1
    47    34    35    1
    48    44    48   ar
    49    24    22    1
    50    17    18   ar
    51    17    22    1
    52    46    47   ar
    53    18    26    1
    54    28    26    1
    55    25    22    1
    56    22    23    1
    57    26    27    1
    58    26    29    1
    59    48    47   ar
    60    48    49    1
    61    47    50    1
