@<TRIPOS>MOLECULE
mol_data/opt/m06hf/geoms/mol2/13il13il13il13il-.out
 62 65 0 0 0
SMALL
GASTEIGER

@<TRIPOS>ATOM
      1 C           0.5834    0.4889    2.3661 C.ar    1  LIG1        0.0087
      2 C           0.8409    1.2275    1.2360 C.ar    1  LIG1        0.0092
      3 C          -0.2773    1.0178    0.3702 C.ar    1  LIG1        0.1495
      4 C          -1.1622    0.1668    0.9946 C.ar    1  LIG1        0.1057
      5 N          -0.6099   -0.1531    2.2115 N.ar    1  LIG1       -0.3563
      6 H          -1.0956   -0.6660    2.9294 H       1  LIG1        0.1655
      7 H           1.1699    0.3745    3.2621 H       1  LIG1        0.0811
      8 C           2.0846    2.0326    0.9469 C.3     1  LIG1       -0.0348
      9 H           1.9077    3.1036    1.0643 H       1  LIG1        0.0279
     10 H           2.4211    1.8460   -0.0741 H       1  LIG1        0.0279
     11 H           2.8813    1.7415    1.6316 H       1  LIG1        0.0279
     12 O          -0.4460    1.4964   -0.8979 O.3     1  LIG1       -0.4927
     13 C          -0.4470    2.9145   -1.0021 C.3     1  LIG1        0.0789
     14 H          -0.8152    3.1489   -1.9989 H       1  LIG1        0.0660
     15 H          -1.1060    3.3504   -0.2481 H       1  LIG1        0.0660
     16 H           0.5609    3.3158   -0.8841 H       1  LIG1        0.0660
     17 C          -2.4201   -0.4169    0.5326 C.ar    1  LIG1        0.0735
     18 C          -3.5120    0.1673   -0.0751 C.ar    1  LIG1        0.0187
     19 C          -4.4551   -0.8769   -0.2732 C.ar    1  LIG1        0.1502
     20 C          -3.9270   -2.0582    0.2078 C.ar    1  LIG1        0.1062
     21 N          -2.6818   -1.7534    0.6931 N.ar    1  LIG1       -0.3486
     22 H          -2.0422   -2.4188    1.0973 H       1  LIG1        0.1661
     23 C          -3.6960    1.6090   -0.4636 C.3     1  LIG1       -0.0341
     24 H          -4.7571    1.8041   -0.6164 H       1  LIG1        0.0279
     25 H          -3.1544    1.8267   -1.3854 H       1  LIG1        0.0279
     26 H          -3.3180    2.2635    0.3237 H       1  LIG1        0.0279
     27 O          -5.6905   -0.7157   -0.8378 O.3     1  LIG1       -0.4927
     28 C          -5.7741   -1.2103   -2.1729 C.3     1  LIG1        0.0789
     29 H          -6.7800   -0.9872   -2.5217 H       1  LIG1        0.0660
     30 H          -5.0359   -0.7074   -2.8017 H       1  LIG1        0.0660
     31 H          -5.6041   -2.2887   -2.1856 H       1  LIG1        0.0660
     32 C          -4.4719   -3.4141    0.2121 C.ar    1  LIG1        0.0735
     33 C          -5.7334   -3.8699    0.5401 C.ar    1  LIG1        0.0187
     34 C          -5.6958   -5.2753    0.3331 C.ar    1  LIG1        0.1502
     35 C          -4.4370   -5.6400   -0.0966 C.ar    1  LIG1        0.1062
     36 N          -3.7025   -4.4903   -0.1645 N.ar    1  LIG1       -0.3486
     37 H          -2.7989   -4.4181   -0.6050 H       1  LIG1        0.1661
     38 C          -6.9125   -3.0728    1.0395 C.3     1  LIG1       -0.0341
     39 H          -6.8267   -2.8834    2.1119 H       1  LIG1        0.0279
     40 H          -7.8250   -3.6417    0.8567 H       1  LIG1        0.0279
     41 H          -6.9655   -2.1163    0.5197 H       1  LIG1        0.0279
     42 O          -6.7331   -6.1571    0.5283 O.3     1  LIG1       -0.4927
     43 C          -6.8337   -6.5944    1.8837 C.3     1  LIG1        0.0789
     44 H          -7.6954   -7.2572    1.9350 H       1  LIG1        0.0660
     45 H          -5.9252   -7.1287    2.1697 H       1  LIG1        0.0660
     46 H          -6.9810   -5.7368    2.5428 H       1  LIG1        0.0660
     47 C          -3.9481   -6.9626   -0.4614 C.ar    1  LIG1        0.0730
     48 C          -2.6727   -7.4556   -0.6583 C.ar    1  LIG1        0.0180
     49 C          -2.8400   -8.8275   -0.9965 C.ar    1  LIG1        0.1408
     50 C          -4.1851   -9.1273   -0.9890 C.ar    1  LIG1        0.0447
     51 N          -4.8422   -7.9717   -0.6598 N.ar    1  LIG1       -0.3561
     52 H          -5.8395   -7.8335   -0.5723 H       1  LIG1        0.1655
     53 H          -4.7144  -10.0413   -1.1874 H       1  LIG1        0.0844
     54 C          -1.3480   -6.7475   -0.5297 C.3     1  LIG1       -0.0342
     55 H          -1.3465   -6.0833    0.3376 H       1  LIG1        0.0279
     56 H          -1.1098   -6.1672   -1.4252 H       1  LIG1        0.0279
     57 H          -0.5628   -7.4909   -0.3963 H       1  LIG1        0.0279
     58 O          -1.7790   -9.6386   -1.2575 O.3     1  LIG1       -0.4933
     59 C          -2.1147  -10.9841   -1.5199 C.3     1  LIG1        0.0789
     60 H          -1.1804  -11.5110   -1.6963 H       1  LIG1        0.0660
     61 H          -2.6334  -11.4209   -0.6614 H       1  LIG1        0.0660
     62 H          -2.7517  -11.0524   -2.4068 H       1  LIG1        0.0660
@<TRIPOS>BOND
     1    30    28    1
     2    29    28    1
     3    62    59    1
     4    31    28    1
     5    28    27    1
     6    14    13    1
     7    60    59    1
     8    59    58    1
     9    59    61    1
    10    56    54    1
    11    25    23    1
    12    58    49    1
    13    53    50    1
    14    13    12    1
    15    13    16    1
    16    13    15    1
    17    49    50   ar
    18    49    48   ar
    19    50    51   ar
    20    12     3    1
    21    27    19    1
    22    51    52    1
    23    51    47   ar
    24    48    54    1
    25    48    47   ar
    26    24    23    1
    27    37    36    1
    28    54    57    1
    29    54    55    1
    30    23    18    1
    31    23    26    1
    32    47    35    1
    33    19    18   ar
    34    19    20   ar
    35    36    35   ar
    36    36    32   ar
    37    35    34   ar
    38    18    17   ar
    39    10     8    1
    40    20    32    1
    41    20    21   ar
    42    32    33   ar
    43    34    42    1
    44    34    33   ar
    45     3     4   ar
    46     3     2   ar
    47    41    38    1
    48    42    43    1
    49    17    21   ar
    50    17     4    1
    51    33    38    1
    52    21    22    1
    53    40    38    1
    54     8     9    1
    55     8     2    1
    56     8    11    1
    57     4     5   ar
    58    38    39    1
    59     2     1   ar
    60    43    44    1
    61    43    45    1
    62    43    46    1
    63     5     1   ar
    64     5     6    1
    65     1     7    1
