@<TRIPOS>MOLECULE
mol_data/opt/m06hf/geoms/mol2/13il13il13il-13il-.out
 62 65 0 0 0
SMALL
GASTEIGER

@<TRIPOS>ATOM
      1 C           1.3005   -0.0444    0.0426 C.ar    1  LIG1        0.0087
      2 C           0.8362    1.1763   -0.3839 C.ar    1  LIG1        0.0092
      3 C          -0.5900    1.0859   -0.3515 C.ar    1  LIG1        0.1495
      4 C          -0.9407   -0.1737    0.0850 C.ar    1  LIG1        0.1057
      5 N           0.2337   -0.8504    0.3122 N.ar    1  LIG1       -0.3563
      6 H           0.2787   -1.7599    0.7422 H       1  LIG1        0.1655
      7 H           2.3121   -0.3933    0.1629 H       1  LIG1        0.0811
      8 C           1.6629    2.3441   -0.8644 C.3     1  LIG1       -0.0348
      9 H           1.7709    3.1078   -0.0912 H       1  LIG1        0.0279
     10 H           1.1906    2.7978   -1.7371 H       1  LIG1        0.0279
     11 H           2.6585    2.0035   -1.1486 H       1  LIG1        0.0279
     12 O          -1.4802    2.0420   -0.7528 O.3     1  LIG1       -0.4927
     13 C          -1.4213    3.2477    0.0005 C.3     1  LIG1        0.0789
     14 H          -2.2643    3.8543   -0.3245 H       1  LIG1        0.0660
     15 H          -1.5040    3.0315    1.0676 H       1  LIG1        0.0660
     16 H          -0.4906    3.7833   -0.1935 H       1  LIG1        0.0660
     17 C          -2.2357   -0.8347    0.2308 C.ar    1  LIG1        0.0735
     18 C          -3.4305   -0.3929    0.7601 C.ar    1  LIG1        0.0187
     19 C          -4.3274   -1.4886    0.6491 C.ar    1  LIG1        0.1502
     20 C          -3.6725   -2.5562    0.0698 C.ar    1  LIG1        0.1062
     21 N          -2.3941   -2.1398   -0.1730 N.ar    1  LIG1       -0.3486
     22 H          -1.7318   -2.6342   -0.7494 H       1  LIG1        0.1661
     23 C          -3.7500    0.9658    1.3251 C.3     1  LIG1       -0.0341
     24 H          -4.7706    0.9659    1.7082 H       1  LIG1        0.0279
     25 H          -3.6658    1.7188    0.5418 H       1  LIG1        0.0279
     26 H          -3.0621    1.2205    2.1340 H       1  LIG1        0.0279
     27 O          -5.6387   -1.5165    1.0635 O.3     1  LIG1       -0.4927
     28 C          -5.7769   -1.9161    2.4282 C.3     1  LIG1        0.0789
     29 H          -6.8400   -1.8738    2.6577 H       1  LIG1        0.0660
     30 H          -5.3991   -2.9325    2.5590 H       1  LIG1        0.0660
     31 H          -5.2243   -1.2325    3.0749 H       1  LIG1        0.0660
     32 C          -4.2048   -3.8650   -0.2739 C.ar    1  LIG1        0.0735
     33 C          -3.5992   -5.0431   -0.6769 C.ar    1  LIG1        0.0187
     34 C          -4.6603   -5.9644   -0.8722 C.ar    1  LIG1        0.1502
     35 C          -5.8597   -5.3424   -0.5852 C.ar    1  LIG1        0.1062
     36 N          -5.5563   -4.0638   -0.2237 N.ar    1  LIG1       -0.3486
     37 H          -6.2069   -3.3171   -0.0108 H       1  LIG1        0.1661
     38 C          -2.1341   -5.3301   -0.8880 C.3     1  LIG1       -0.0341
     39 H          -1.5447   -5.0338   -0.0173 H       1  LIG1        0.0279
     40 H          -1.7496   -4.8146   -1.7724 H       1  LIG1        0.0279
     41 H          -2.0028   -6.3999   -1.0519 H       1  LIG1        0.0279
     42 O          -4.5342   -7.2765   -1.2664 O.3     1  LIG1       -0.4927
     43 C          -4.4742   -8.1761   -0.1585 C.3     1  LIG1        0.0789
     44 H          -4.3433   -9.1735   -0.5742 H       1  LIG1        0.0660
     45 H          -3.6276   -7.9224    0.4825 H       1  LIG1        0.0660
     46 H          -5.4005   -8.1221    0.4172 H       1  LIG1        0.0660
     47 C          -7.2085   -5.8836   -0.6644 C.ar    1  LIG1        0.0730
     48 C          -8.4009   -5.4574   -0.1146 C.ar    1  LIG1        0.0180
     49 C          -9.3779   -6.3997   -0.5416 C.ar    1  LIG1        0.1408
     50 C          -8.7638   -7.3584   -1.3183 C.ar    1  LIG1        0.0447
     51 N          -7.4364   -7.0227   -1.3781 N.ar    1  LIG1       -0.3561
     52 H          -6.7043   -7.4976   -1.8868 H       1  LIG1        0.1655
     53 H          -9.1508   -8.2262   -1.8203 H       1  LIG1        0.0844
     54 C          -8.6574   -4.2721    0.7815 C.3     1  LIG1       -0.0342
     55 H          -7.9010   -4.2144    1.5677 H       1  LIG1        0.0279
     56 H          -9.6357   -4.3887    1.2465 H       1  LIG1        0.0279
     57 H          -8.6586   -3.3324    0.2227 H       1  LIG1        0.0279
     58 O         -10.6850   -6.2951   -0.1779 O.3     1  LIG1       -0.4933
     59 C         -11.5271   -7.3055   -0.6892 C.3     1  LIG1        0.0789
     60 H         -12.5281   -7.0918   -0.3234 H       1  LIG1        0.0660
     61 H         -11.5189   -7.2912   -1.7832 H       1  LIG1        0.0660
     62 H         -11.2025   -8.2885   -0.3342 H       1  LIG1        0.0660
@<TRIPOS>BOND
     1    52    51    1
     2    53    50    1
     3    61    59    1
     4    40    38    1
     5    10     8    1
     6    51    50   ar
     7    51    47   ar
     8    50    49   ar
     9    42    34    1
    10    42    43    1
    11    11     8    1
    12    41    38    1
    13    38    33    1
    14    38    39    1
    15    34    33   ar
    16    34    35   ar
    17     8     2    1
    18     8     9    1
    19    12     3    1
    20    12    13    1
    21    22    21    1
    22    59    62    1
    23    59    60    1
    24    59    58    1
    25    33    32   ar
    26    47    35    1
    27    47    48   ar
    28    35    36   ar
    29    44    43    1
    30    49    58    1
    31    49    48   ar
    32     2     3   ar
    33     2     1   ar
    34     3     4   ar
    35    14    13    1
    36    32    36   ar
    37    32    20    1
    38    36    37    1
    39    16    13    1
    40    21    20   ar
    41    21    17   ar
    42    43    46    1
    43    43    45    1
    44    48    54    1
    45    13    15    1
    46     1     7    1
    47     1     5   ar
    48    20    19   ar
    49     4    17    1
    50     4     5   ar
    51    57    54    1
    52    17    18   ar
    53     5     6    1
    54    25    23    1
    55    19    18   ar
    56    19    27    1
    57    18    23    1
    58    54    56    1
    59    54    55    1
    60    27    28    1
    61    23    24    1
    62    23    26    1
    63    28    30    1
    64    28    29    1
    65    28    31    1
