@<TRIPOS>MOLECULE
mol_data/opt/m06hf/geoms/mol2/13il12ia6ia-4df6fi-6hh-4ii13ef-.out
 104 111 0 0 0
SMALL
GASTEIGER

@<TRIPOS>ATOM
      1 C           1.0113    0.7222   -1.3866 C.ar    1  LIG1        0.0088
      2 C           0.7564    1.8612   -0.6586 C.ar    1  LIG1        0.0092
      3 C          -0.5561    1.7053   -0.1366 C.ar    1  LIG1        0.1511
      4 C          -1.0573    0.4889   -0.5600 C.ar    1  LIG1        0.1248
      5 N          -0.0771   -0.0942   -1.3179 N.ar    1  LIG1       -0.3551
      6 H          -0.1774   -0.9945   -1.7587 H       1  LIG1        0.1655
      7 H           1.8878    0.4404   -1.9451 H       1  LIG1        0.0811
      8 C           1.6484    3.0558   -0.4381 C.3     1  LIG1       -0.0348
      9 H           1.7947    3.2337    0.6281 H       1  LIG1        0.0279
     10 H           1.2008    3.9504   -0.8719 H       1  LIG1        0.0279
     11 H           2.6214    2.8890   -0.8998 H       1  LIG1        0.0279
     12 O          -1.1826    2.6239    0.6617 O.3     1  LIG1       -0.4926
     13 C          -1.2540    2.2263    2.0292 C.3     1  LIG1        0.0789
     14 H          -1.7229    3.0487    2.5653 H       1  LIG1        0.0660
     15 H          -1.8564    1.3207    2.1289 H       1  LIG1        0.0660
     16 H          -0.2497    2.0448    2.4178 H       1  LIG1        0.0660
     17 C          -2.3193   -0.1991   -0.3210 C.ar    1  LIG1        0.1582
     18 C          -3.5889    0.2045   -0.0284 C.ar    1  LIG1       -0.0025
     19 C          -4.3539   -1.0109    0.0789 C.ar    1  LIG1       -0.0122
     20 C          -3.5038   -2.0416   -0.1722 C.ar    1  LIG1        0.1377
     21 O          -2.2629   -1.5543   -0.4131 O.2     1  LIG1       -0.4529
     22 C          -4.1127    1.6111    0.1146 C.3     1  LIG1       -0.0360
     23 H          -4.9048    1.7854   -0.6151 H       1  LIG1        0.0279
     24 H          -3.3107    2.3312   -0.0391 H       1  LIG1        0.0279
     25 H          -4.5301    1.7565    1.1133 H       1  LIG1        0.0279
     26 H          -5.4006   -1.0917    0.3245 H       1  LIG1        0.0658
     27 C          -2.7328   -4.4163    0.2087 C.ar    1  LIG1        0.0495
     28 C          -3.7071   -3.4969   -0.2334 C.ar    1  LIG1        0.0383
     29 C          -4.9139   -4.0001   -0.7099 C.ar    1  LIG1       -0.0473
     30 C          -5.1291   -5.3721   -0.7541 C.ar    1  LIG1       -0.0350
     31 C          -4.0950   -6.2058   -0.3358 C.ar    1  LIG1        0.0726
     32 N          -2.9454   -5.7249    0.1461 N.ar    1  LIG1       -0.2511
     33 H          -5.6783   -3.3175   -1.0586 H       1  LIG1        0.0626
     34 C          -1.4038   -3.9829    0.7943 C.3     1  LIG1       -0.0216
     35 H          -1.5476   -3.1914    1.5299 H       1  LIG1        0.0293
     36 H          -0.7498   -3.5998    0.0109 H       1  LIG1        0.0293
     37 H          -0.9466   -4.8537    1.2578 H       1  LIG1        0.0293
     38 H          -6.0683   -5.7670   -1.1100 H       1  LIG1        0.0639
     39 C          -4.9675   -8.4556   -1.2264 C.ar    1  LIG1        0.0617
     40 C          -4.9886   -9.8501   -1.1487 C.ar    1  LIG1       -0.0323
     41 C          -4.1936   -7.7004   -0.3333 C.ar    1  LIG1        0.0212
     42 C          -4.2560  -10.5433   -0.1896 C.ar    1  LIG1        0.0299
     43 H          -5.5730  -10.4071   -1.8695 H       1  LIG1        0.0638
     44 C          -3.4375   -8.3910    0.6103 C.ar    1  LIG1       -0.0092
     45 C          -3.4748   -9.7755    0.6850 C.ar    1  LIG1        0.1254
     46 H          -2.8123   -7.8129    1.2806 H       1  LIG1        0.0661
     47 N          -6.3588   -7.4035   -3.1492 N.1     1  LIG1       -0.1908
     48 C          -5.7337   -7.8494   -2.2955 C.1     1  LIG1        0.0998
     49 O          -2.7443  -10.4483    1.6235 O.3     1  LIG1       -0.5061
     50 H          -2.2938   -9.8410    2.2217 H       1  LIG1        0.2922
     51 C          -3.2533  -12.8972   -0.0572 C.ar    1  LIG1        0.2209
     52 C          -4.3627  -12.0275   -0.1128 C.ar    1  LIG1        0.0473
     53 C          -5.6165  -12.6275   -0.1471 C.ar    1  LIG1       -0.0439
     54 C          -5.7788  -14.0121   -0.1793 C.ar    1  LIG1       -0.0235
     55 C          -4.5996  -14.7710   -0.1995 C.ar    1  LIG1        0.0811
     56 N          -3.3900  -14.2059   -0.1139 N.ar    1  LIG1       -0.2121
     57 H          -6.4965  -11.9929   -0.1287 H       1  LIG1        0.0629
     58 O          -1.9846  -12.4525    0.0134 O.3     1  LIG1       -0.4920
     59 H          -1.9449  -11.6694    0.5847 H       1  LIG1        0.2937
     60 C          -7.1751  -14.6079   -0.1356 C.3     1  LIG1       -0.0377
     61 H          -7.1602  -15.5859    0.3429 H       1  LIG1        0.0278
     62 H          -7.5928  -14.7183   -1.1383 H       1  LIG1        0.0278
     63 H          -7.8299  -13.9467    0.4323 H       1  LIG1        0.0278
     64 C          -3.7646  -17.0604    0.5163 C.ar    1  LIG1        0.1262
     65 C          -4.6070  -16.2594   -0.2956 C.ar    1  LIG1        0.0420
     66 C          -5.4221  -16.9091   -1.2096 C.ar    1  LIG1       -0.0265
     67 C          -5.4504  -18.3022   -1.2929 C.ar    1  LIG1        0.0517
     68 C          -4.6426  -19.0002   -0.3882 C.ar    1  LIG1        0.0939
     69 N          -3.8147  -18.3867    0.4582 N.ar    1  LIG1       -0.2299
     70 H          -6.0349  -16.3249   -1.8872 H       1  LIG1        0.0644
     71 N          -2.8976  -16.5089    1.4323 N.pl3   1  LIG1       -0.3426
     72 H          -2.2650  -17.1896    1.8273 H       1  LIG1        0.1437
     73 H          -2.4941  -15.6228    1.1565 H       1  LIG1        0.1437
     74 N          -6.2766  -18.9604   -2.2252 N.pl3   1  LIG1       -0.3563
     75 H          -6.3871  -18.4427   -3.0881 H       1  LIG1        0.1424
     76 H          -5.9654  -19.9073   -2.4140 H       1  LIG1        0.1424
     77 C          -5.7467  -21.2636   -0.0974 C.ar    1  LIG1       -0.0406
     78 C          -5.6294  -22.6504   -0.1534 C.ar    1  LIG1       -0.0488
     79 C          -4.6078  -20.4982   -0.3905 C.ar    1  LIG1        0.0054
     80 C          -4.4206  -23.2794   -0.4641 C.ar    1  LIG1        0.0028
     81 H          -6.4920  -23.2691    0.0634 H       1  LIG1        0.0627
     82 C          -3.3930  -21.1261   -0.6619 C.ar    1  LIG1       -0.0487
     83 C          -3.2687  -22.5131   -0.6993 C.ar    1  LIG1       -0.0407
     84 H          -2.5210  -20.5030   -0.8256 H       1  LIG1        0.0627
     85 C          -7.0558  -20.6166    0.3197 C.3     1  LIG1       -0.0391
     86 H          -7.7513  -21.3820    0.6623 H       1  LIG1        0.0278
     87 H          -7.4985  -20.0671   -0.5136 H       1  LIG1        0.0278
     88 H          -6.8732  -19.9150    1.1353 H       1  LIG1        0.0278
     89 C          -1.9030  -23.1350   -0.9456 C.3     1  LIG1       -0.0391
     90 H          -1.1276  -22.4459   -0.6125 H       1  LIG1        0.0278
     91 H          -1.7360  -23.3307   -2.0089 H       1  LIG1        0.0278
     92 H          -1.8018  -24.0723   -0.3989 H       1  LIG1        0.0278
     93 C          -4.3999  -24.7582   -0.5119 C.ar    1  LIG1        0.0660
     94 C          -4.9504  -25.6868    0.3609 C.ar    1  LIG1        0.0912
     95 C          -4.6692  -26.9770   -0.1790 C.ar    1  LIG1        0.1500
     96 C          -3.9716  -26.8041   -1.3459 C.ar    1  LIG1        0.0454
     97 N          -3.8152  -25.4498   -1.5233 N.ar    1  LIG1       -0.3566
     98 H          -3.3977  -25.0163   -2.3300 H       1  LIG1        0.1655
     99 H          -3.5830  -27.5200   -2.0484 H       1  LIG1        0.0845
    100 C          -5.6417  -25.4179    1.5844 C.1     1  LIG1       -0.0639
    101 C          -6.2264  -25.1946    2.6111 C.1     1  LIG1       -0.1137
    102 H          -6.7357  -25.0002    3.5260 H       1  LIG1        0.1232
    103 O          -5.0591  -28.1279    0.4309 O.3     1  LIG1       -0.5040
    104 H          -4.7336  -28.8896   -0.0587 H       1  LIG1        0.2923
@<TRIPOS>BOND
     1    47    48    3
     2    75    74    1
     3    76    74    1
     4    98    97    1
     5    48    39    1
     6    74    67    1
     7    99    96    1
     8    91    89    1
     9     7     1    1
    10    70    66    1
    11    43    40    1
    12     6     5    1
    13    97    96   ar
    14    97    93   ar
    15     1     5   ar
    16     1     2   ar
    17    96    95   ar
    18     5     4   ar
    19    67    66   ar
    20    67    68   ar
    21    39    40   ar
    22    39    41   ar
    23    66    65   ar
    24    40    42   ar
    25    62    60    1
    26    38    30    1
    27    33    29    1
    28    89    83    1
    29    89    90    1
    30    89    92    1
    31    11     8    1
    32    10     8    1
    33    84    82    1
    34    30    29   ar
    35    30    31   ar
    36    29    28   ar
    37    83    82   ar
    38    83    80   ar
    39    82    79   ar
    40     2     8    1
    41     2     3   ar
    42    23    22    1
    43     4    17    1
    44     4     3   ar
    45    87    85    1
    46    93    80    1
    47    93    94   ar
    48    80    78   ar
    49     8     9    1
    50    21    17   ar
    51    21    20   ar
    52    79    68    1
    53    79    77   ar
    54    68    69   ar
    55    31    41    1
    56    31    32   ar
    57    41    44   ar
    58    17    18   ar
    59    65    55    1
    60    65    64   ar
    61    28    20    1
    62    28    27   ar
    63    55    54   ar
    64    55    56   ar
    65    42    52    1
    66    42    45   ar
    67    54    53   ar
    68    54    60    1
    69    95    94   ar
    70    95   103    1
    71    20    19   ar
    72    78    77   ar
    73    78    81    1
    74    53    57    1
    75    53    52   ar
    76     3    12    1
    77    60    61    1
    78    60    63    1
    79    56    51   ar
    80    52    51   ar
    81    77    85    1
    82   104   103    1
    83    51    58    1
    84    24    22    1
    85    18    19   ar
    86    18    22    1
    87    36    34    1
    88    58    59    1
    89    19    26    1
    90    22    25    1
    91    32    27   ar
    92    27    34    1
    93    85    86    1
    94    85    88    1
    95    94   100    1
    96    69    64   ar
    97    64    71    1
    98    44    45   ar
    99    44    46    1
   100    12    13    1
   101    45    49    1
   102    34    37    1
   103    34    35    1
   104    73    71    1
   105    71    72    1
   106   100   101    3
   107    49    50    1
   108    13    15    1
   109    13    16    1
   110    13    14    1
   111   101   102    1
