@<TRIPOS>MOLECULE
mol_data/opt/m06hf/geoms/mol2/13il13il-13il-13il.out
 62 65 0 0 0
SMALL
GASTEIGER

@<TRIPOS>ATOM
      1 C           1.6004   -1.3948    0.8171 C.ar    1  LIG1        0.0087
      2 C           1.0916   -1.1739    2.0753 C.ar    1  LIG1        0.0092
      3 C          -0.2548   -0.7614    1.8741 C.ar    1  LIG1        0.1495
      4 C          -0.5240   -0.7470    0.5218 C.ar    1  LIG1        0.1057
      5 N           0.6247   -1.1389   -0.1062 N.ar    1  LIG1       -0.3563
      6 H           0.7388   -1.1809   -1.1052 H       1  LIG1        0.1655
      7 H           2.5860   -1.7061    0.5162 H       1  LIG1        0.0811
      8 C           1.7900   -1.3129    3.4050 C.3     1  LIG1       -0.0348
      9 H           1.5998   -2.2894    3.8546 H       1  LIG1        0.0279
     10 H           1.4301   -0.5433    4.0883 H       1  LIG1        0.0279
     11 H           2.8666   -1.1967    3.2816 H       1  LIG1        0.0279
     12 O          -1.1597   -0.4058    2.8489 O.3     1  LIG1       -0.4927
     13 C          -1.8226   -1.5300    3.4281 C.3     1  LIG1        0.0789
     14 H          -2.4833   -1.1383    4.1991 H       1  LIG1        0.0660
     15 H          -2.3977   -2.0568    2.6631 H       1  LIG1        0.0660
     16 H          -1.0929   -2.2095    3.8719 H       1  LIG1        0.0660
     17 C          -1.7577   -0.3661   -0.1506 C.ar    1  LIG1        0.0735
     18 C          -2.1723   -0.4625   -1.4679 C.ar    1  LIG1        0.0187
     19 C          -3.4805    0.0858   -1.4923 C.ar    1  LIG1        0.1502
     20 C          -3.8259    0.4919   -0.2179 C.ar    1  LIG1        0.1062
     21 N          -2.7593    0.2065    0.5823 N.ar    1  LIG1       -0.3486
     22 H          -2.6451    0.4374    1.5614 H       1  LIG1        0.1661
     23 C          -1.4283   -1.0103   -2.6599 C.3     1  LIG1       -0.0341
     24 H          -1.1033   -2.0392   -2.4879 H       1  LIG1        0.0279
     25 H          -0.5578   -0.3948   -2.9026 H       1  LIG1        0.0279
     26 H          -2.0905   -0.9943   -3.5256 H       1  LIG1        0.0279
     27 O          -4.2956    0.1935   -2.5950 O.3     1  LIG1       -0.4927
     28 C          -5.1551   -0.9374   -2.7577 C.3     1  LIG1        0.0789
     29 H          -5.7245   -0.7651   -3.6689 H       1  LIG1        0.0660
     30 H          -4.5587   -1.8470   -2.8509 H       1  LIG1        0.0660
     31 H          -5.8262   -1.0230   -1.9007 H       1  LIG1        0.0660
     32 C          -5.0600    1.1193    0.2255 C.ar    1  LIG1        0.0735
     33 C          -5.6232    1.2763    1.4798 C.ar    1  LIG1        0.0187
     34 C          -6.8595    1.9359    1.2565 C.ar    1  LIG1        0.1502
     35 C          -7.0179    2.1610   -0.0970 C.ar    1  LIG1        0.1062
     36 N          -5.9083    1.6531   -0.7050 N.ar    1  LIG1       -0.3486
     37 H          -5.7083    1.6417   -1.6970 H       1  LIG1        0.1661
     38 C          -5.0968    0.8127    2.8145 C.3     1  LIG1       -0.0341
     39 H          -4.7184   -0.2095    2.7439 H       1  LIG1        0.0279
     40 H          -5.9127    0.8291    3.5378 H       1  LIG1        0.0279
     41 H          -4.2965    1.4592    3.1847 H       1  LIG1        0.0279
     42 O          -7.7759    2.2934    2.2188 O.3     1  LIG1       -0.4927
     43 C          -7.5000    3.5745    2.7867 C.3     1  LIG1        0.0789
     44 H          -8.2454    3.7394    3.5620 H       1  LIG1        0.0660
     45 H          -6.4987    3.5826    3.2213 H       1  LIG1        0.0660
     46 H          -7.5724    4.3455    2.0168 H       1  LIG1        0.0660
     47 C          -8.1399    2.7705   -0.7957 C.ar    1  LIG1        0.0730
     48 C          -8.2775    3.2183   -2.0950 C.ar    1  LIG1        0.0180
     49 C          -9.6101    3.7071   -2.1919 C.ar    1  LIG1        0.1408
     50 C         -10.2327    3.5510   -0.9722 C.ar    1  LIG1        0.0447
     51 N          -9.3133    2.9770   -0.1338 N.ar    1  LIG1       -0.3561
     52 H          -9.4474    2.6956    0.8268 H       1  LIG1        0.1655
     53 H         -11.2264    3.7931   -0.6415 H       1  LIG1        0.0844
     54 C          -7.2581    3.2283   -3.2063 C.3     1  LIG1       -0.0342
     55 H          -7.6330    3.8478   -4.0203 H       1  LIG1        0.0279
     56 H          -7.0807    2.2239   -3.6019 H       1  LIG1        0.0279
     57 H          -6.3083    3.6441   -2.8631 H       1  LIG1        0.0279
     58 O         -10.1007    4.2407   -3.3443 O.3     1  LIG1       -0.4933
     59 C         -11.4369    4.6870   -3.2655 C.3     1  LIG1        0.0789
     60 H         -11.6907    5.0911   -4.2421 H       1  LIG1        0.0660
     61 H         -12.1032    3.8540   -3.0222 H       1  LIG1        0.0660
     62 H         -11.5336    5.4662   -2.5033 H       1  LIG1        0.0660
@<TRIPOS>BOND
     1    60    59    1
     2    55    54    1
     3    29    28    1
     4    56    54    1
     5    26    23    1
     6    58    59    1
     7    58    49    1
     8    59    61    1
     9    59    62    1
    10    54    57    1
    11    54    48    1
    12    25    23    1
    13    30    28    1
    14    28    27    1
    15    28    31    1
    16    23    24    1
    17    23    18    1
    18    27    19    1
    19    49    48   ar
    20    49    50   ar
    21    48    47   ar
    22    37    36    1
    23    19    18   ar
    24    19    20   ar
    25    18    17   ar
    26     6     5    1
    27    50    53    1
    28    50    51   ar
    29    47    51   ar
    30    47    35    1
    31    36    35   ar
    32    36    32   ar
    33    20    32    1
    34    20    21   ar
    35    17     4    1
    36    17    21   ar
    37    51    52    1
    38     5     4   ar
    39     5     1   ar
    40    35    34   ar
    41    32    33   ar
    42     7     1    1
    43     4     3   ar
    44    21    22    1
    45     1     2   ar
    46    34    33   ar
    47    34    42    1
    48    33    38    1
    49     3     2   ar
    50     3    12    1
    51    46    43    1
    52     2     8    1
    53    42    43    1
    54    15    13    1
    55    39    38    1
    56    43    45    1
    57    43    44    1
    58    38    41    1
    59    38    40    1
    60    12    13    1
    61    11     8    1
    62     8     9    1
    63     8    10    1
    64    13    16    1
    65    13    14    1
