@<TRIPOS>MOLECULE
mol_data/opt/m06hf/geoms/mol2/13il13il13il-13il.out
 62 65 0 0 0
SMALL
GASTEIGER

@<TRIPOS>ATOM
      1 C           1.3938   -0.1491    0.3640 C.ar    1  LIG1        0.0087
      2 C           1.1284    0.9386   -0.4322 C.ar    1  LIG1        0.0092
      3 C          -0.2861    0.9378   -0.6371 C.ar    1  LIG1        0.1495
      4 C          -0.8269   -0.1399    0.0310 C.ar    1  LIG1        0.1057
      5 N           0.2223   -0.7952    0.6296 N.ar    1  LIG1       -0.3563
      6 H           0.1073   -1.5605    1.2743 H       1  LIG1        0.1655
      7 H           2.3326   -0.5091    0.7496 H       1  LIG1        0.0811
      8 C           2.1326    1.8933   -1.0309 C.3     1  LIG1       -0.0348
      9 H           2.1928    2.8239   -0.4627 H       1  LIG1        0.0279
     10 H           1.8504    2.1308   -2.0578 H       1  LIG1        0.0279
     11 H           3.1216    1.4354   -1.0416 H       1  LIG1        0.0279
     12 O          -0.9996    1.8019   -1.4196 O.3     1  LIG1       -0.4927
     13 C          -0.9544    3.1561   -0.9845 C.3     1  LIG1        0.0789
     14 H          -1.6636    3.7015   -1.6038 H       1  LIG1        0.0660
     15 H          -1.2425    3.2256    0.0664 H       1  LIG1        0.0660
     16 H           0.0443    3.5749   -1.1185 H       1  LIG1        0.0660
     17 C          -2.1879   -0.6672    0.1037 C.ar    1  LIG1        0.0735
     18 C          -3.4026   -0.0375    0.2792 C.ar    1  LIG1        0.0187
     19 C          -4.3731   -1.0744    0.2968 C.ar    1  LIG1        0.1502
     20 C          -3.7424   -2.2914    0.1397 C.ar    1  LIG1        0.1062
     21 N          -2.4072   -2.0231    0.0291 N.ar    1  LIG1       -0.3486
     22 H          -1.7137   -2.6893   -0.2723 H       1  LIG1        0.1661
     23 C          -3.6757    1.4376    0.4096 C.3     1  LIG1       -0.0341
     24 H          -4.7396    1.5918    0.5905 H       1  LIG1        0.0279
     25 H          -3.3963    1.9473   -0.5124 H       1  LIG1        0.0279
     26 H          -3.1048    1.8658    1.2361 H       1  LIG1        0.0279
     27 O          -5.7298   -0.9199    0.4648 O.3     1  LIG1       -0.4927
     28 C          -6.1184   -0.9239    1.8397 C.3     1  LIG1        0.0789
     29 H          -7.1929   -0.7515    1.8591 H       1  LIG1        0.0660
     30 H          -5.8790   -1.8891    2.2914 H       1  LIG1        0.0660
     31 H          -5.5991   -0.1283    2.3763 H       1  LIG1        0.0660
     32 C          -4.3392   -3.6147    0.0573 C.ar    1  LIG1        0.0735
     33 C          -3.7968   -4.8880    0.0888 C.ar    1  LIG1        0.0187
     34 C          -4.8993   -5.7707   -0.0489 C.ar    1  LIG1        0.1502
     35 C          -6.0618   -5.0321   -0.1532 C.ar    1  LIG1        0.1062
     36 N          -5.6949   -3.7210   -0.0865 N.ar    1  LIG1       -0.3486
     37 H          -6.2925   -2.9110   -0.1981 H       1  LIG1        0.1661
     38 C          -2.3528   -5.2989    0.2284 C.3     1  LIG1       -0.0341
     39 H          -1.8802   -4.7952    1.0747 H       1  LIG1        0.0279
     40 H          -1.7855   -5.0800   -0.6804 H       1  LIG1        0.0279
     41 H          -2.3051   -6.3758    0.3912 H       1  LIG1        0.0279
     42 O          -4.8419   -7.1451   -0.0604 O.3     1  LIG1       -0.4927
     43 C          -5.0659   -7.7119    1.2320 C.3     1  LIG1        0.0789
     44 H          -4.9658   -8.7899    1.1208 H       1  LIG1        0.0660
     45 H          -4.3221   -7.3362    1.9374 H       1  LIG1        0.0660
     46 H          -6.0678   -7.4569    1.5836 H       1  LIG1        0.0660
     47 C          -7.4273   -5.5037   -0.3323 C.ar    1  LIG1        0.0730
     48 C          -8.6488   -4.8976   -0.1141 C.ar    1  LIG1        0.0180
     49 C          -9.6271   -5.8747   -0.4567 C.ar    1  LIG1        0.1408
     50 C          -8.9863   -7.0217   -0.8621 C.ar    1  LIG1        0.0447
     51 N          -7.6463   -6.7779   -0.7768 N.ar    1  LIG1       -0.3561
     52 H          -6.8883   -7.4068   -1.0032 H       1  LIG1        0.1655
     53 H          -9.3862   -7.9672   -1.1816 H       1  LIG1        0.0844
     54 C          -8.9351   -3.5234    0.4373 C.3     1  LIG1       -0.0342
     55 H          -9.9577   -3.5073    0.8164 H       1  LIG1        0.0279
     56 H          -8.8387   -2.7445   -0.3244 H       1  LIG1        0.0279
     57 H          -8.2565   -3.2929    1.2616 H       1  LIG1        0.0279
     58 O         -10.9822   -5.6936   -0.3736 O.3     1  LIG1       -0.4933
     59 C         -11.5217   -5.0268   -1.5075 C.3     1  LIG1        0.0789
     60 H         -12.5878   -4.9099   -1.3230 H       1  LIG1        0.0660
     61 H         -11.0557   -4.0467   -1.6343 H       1  LIG1        0.0660
     62 H         -11.3585   -5.6221   -2.4085 H       1  LIG1        0.0660
@<TRIPOS>BOND
     1    62    59    1
     2    10     8    1
     3    61    59    1
     4    14    13    1
     5    59    60    1
     6    59    58    1
     7    12    13    1
     8    12     3    1
     9    53    50    1
    10    16    13    1
    11    11     8    1
    12     8     9    1
    13     8     2    1
    14    52    51    1
    15    13    15    1
    16    50    51   ar
    17    50    49   ar
    18    51    47   ar
    19    40    38    1
    20     3     2   ar
    21     3     4   ar
    22    25    23    1
    23    49    58    1
    24    49    48   ar
    25     2     1   ar
    26    47    35    1
    27    47    48   ar
    28    56    54    1
    29    22    21    1
    30    37    36    1
    31    35    36   ar
    32    35    34   ar
    33    48    54    1
    34    36    32   ar
    35    42    34    1
    36    42    43    1
    37    34    33   ar
    38    21    17   ar
    39    21    20   ar
    40     4    17    1
    41     4     5   ar
    42    32    33   ar
    43    32    20    1
    44    33    38    1
    45    17    18   ar
    46    20    19   ar
    47    38    41    1
    48    38    39    1
    49    18    19   ar
    50    18    23    1
    51    19    27    1
    52     1     5   ar
    53     1     7    1
    54    23    24    1
    55    23    26    1
    56    54    55    1
    57    54    57    1
    58    27    28    1
    59     5     6    1
    60    44    43    1
    61    43    46    1
    62    43    45    1
    63    28    29    1
    64    28    30    1
    65    28    31    1
