@<TRIPOS>MOLECULE
mol_data/opt/m06hf/geoms/mol2/13il13il13il.out
 47 49 0 0 0
SMALL
GASTEIGER

@<TRIPOS>ATOM
      1 C           1.2732   -0.2223    1.0497 C.ar    1  LIG1        0.0087
      2 C           1.1247    0.8957    0.2638 C.ar    1  LIG1        0.0092
      3 C          -0.2551    0.9289   -0.1086 C.ar    1  LIG1        0.1495
      4 C          -0.8885   -0.1577    0.4538 C.ar    1  LIG1        0.1057
      5 N           0.0690   -0.8538    1.1511 N.ar    1  LIG1       -0.3563
      6 H          -0.1337   -1.6351    1.7535 H       1  LIG1        0.1655
      7 H           2.1526   -0.6102    1.5351 H       1  LIG1        0.0811
      8 C           2.2131    1.8470   -0.1705 C.3     1  LIG1       -0.0348
      9 H           2.1901    2.7750    0.4047 H       1  LIG1        0.0279
     10 H           2.0950    2.0916   -1.2275 H       1  LIG1        0.0279
     11 H           3.1894    1.3832   -0.0303 H       1  LIG1        0.0279
     12 O          -0.8668    1.8231   -0.9414 O.3     1  LIG1       -0.4927
     13 C          -0.8181    3.1732   -0.4978 C.3     1  LIG1        0.0789
     14 H          -1.4967    3.7317   -1.1399 H       1  LIG1        0.0660
     15 H          -1.1449    3.2436    0.5416 H       1  LIG1        0.0660
     16 H           0.1897    3.5797   -0.5935 H       1  LIG1        0.0660
     17 C          -2.2660   -0.6325    0.3373 C.ar    1  LIG1        0.0735
     18 C          -3.4631    0.0395    0.4712 C.ar    1  LIG1        0.0187
     19 C          -4.4817   -0.9334    0.2805 C.ar    1  LIG1        0.1502
     20 C          -3.8946   -2.1571    0.0325 C.ar    1  LIG1        0.1062
     21 N          -2.5405   -1.9507    0.0720 N.ar    1  LIG1       -0.3486
     22 H          -1.8433   -2.6642   -0.0703 H       1  LIG1        0.1661
     23 C          -3.6793    1.4996    0.7616 C.3     1  LIG1       -0.0341
     24 H          -4.6975    1.6437    1.1231 H       1  LIG1        0.0279
     25 H          -3.5311    2.0954   -0.1407 H       1  LIG1        0.0279
     26 H          -2.9756    1.8410    1.5227 H       1  LIG1        0.0279
     27 O          -5.8257   -0.6876    0.3366 O.3     1  LIG1       -0.4927
     28 C          -6.4147   -0.5203   -0.9492 C.3     1  LIG1        0.0789
     29 H          -7.4626   -0.2792   -0.7813 H       1  LIG1        0.0660
     30 H          -5.9223    0.2955   -1.4834 H       1  LIG1        0.0660
     31 H          -6.3291   -1.4451   -1.5241 H       1  LIG1        0.0660
     32 C          -4.5079   -3.4524   -0.2443 C.ar    1  LIG1        0.0730
     33 C          -5.5973   -4.0525    0.3502 C.ar    1  LIG1        0.0180
     34 C          -5.7530   -5.3090   -0.3069 C.ar    1  LIG1        0.1408
     35 C          -4.7767   -5.4343   -1.2642 C.ar    1  LIG1        0.0447
     36 N          -4.0187   -4.2971   -1.2107 N.ar    1  LIG1       -0.3561
     37 H          -3.2967   -4.0470   -1.8664 H       1  LIG1        0.1655
     38 H          -4.5680   -6.2399   -1.9458 H       1  LIG1        0.0844
     39 C          -6.4235   -3.5324    1.4975 C.3     1  LIG1       -0.0342
     40 H          -6.8510   -4.3765    2.0402 H       1  LIG1        0.0279
     41 H          -7.2280   -2.8847    1.1438 H       1  LIG1        0.0279
     42 H          -5.7988   -2.9427    2.1687 H       1  LIG1        0.0279
     43 O          -6.6999   -6.2500   -0.0040 O.3     1  LIG1       -0.4933
     44 C          -7.9696   -5.9632   -0.5760 C.3     1  LIG1        0.0789
     45 H          -8.6436   -6.7528   -0.2508 H       1  LIG1        0.0660
     46 H          -8.3363   -4.9940   -0.2302 H       1  LIG1        0.0660
     47 H          -7.8974   -5.9548   -1.6664 H       1  LIG1        0.0660
@<TRIPOS>BOND
     1    38    35    1
     2    37    36    1
     3    47    44    1
     4    31    28    1
     5    30    28    1
     6    35    36   ar
     7    35    34   ar
     8    10     8    1
     9    36    32   ar
    10    14    13    1
    11    28    29    1
    12    28    27    1
    13    12    13    1
    14    12     3    1
    15    16    13    1
    16    44    45    1
    17    44    46    1
    18    44    43    1
    19    13    15    1
    20    34    43    1
    21    34    33   ar
    22    32    20    1
    23    32    33   ar
    24     8    11    1
    25     8     2    1
    26     8     9    1
    27    25    23    1
    28     3     2   ar
    29     3     4   ar
    30    22    21    1
    31    20    21   ar
    32    20    19   ar
    33    21    17   ar
    34     2     1   ar
    35    19    27    1
    36    19    18   ar
    37    17     4    1
    38    17    18   ar
    39    33    39    1
    40     4     5   ar
    41    18    23    1
    42    23    24    1
    43    23    26    1
    44     1     5   ar
    45     1     7    1
    46    41    39    1
    47     5     6    1
    48    39    40    1
    49    39    42    1
