@<TRIPOS>MOLECULE
mol_data/opt/m06hf/geoms/mol2/13il13il13il13il.out
 62 65 0 0 0
SMALL
GASTEIGER

@<TRIPOS>ATOM
      1 C           0.9327    0.2721    2.0628 C.ar    1  LIG1        0.0087
      2 C           1.0490    1.0489    0.9345 C.ar    1  LIG1        0.0092
      3 C          -0.1890    0.9045    0.2342 C.ar    1  LIG1        0.1495
      4 C          -1.0028    0.0555    0.9511 C.ar    1  LIG1        0.1057
      5 N          -0.2912   -0.3281    2.0624 N.ar    1  LIG1       -0.3563
      6 H          -0.6802   -0.8654    2.8202 H       1  LIG1        0.1655
      7 H           1.6395    0.1047    2.8580 H       1  LIG1        0.0811
      8 C           2.2616    1.8324    0.4945 C.3     1  LIG1       -0.0348
      9 H           2.1464    2.8995    0.6950 H       1  LIG1        0.0279
     10 H           2.4249    1.6959   -0.5758 H       1  LIG1        0.0279
     11 H           3.1457    1.4795    1.0255 H       1  LIG1        0.0279
     12 O          -0.5202    1.4315   -0.9816 O.3     1  LIG1       -0.4927
     13 C          -0.5084    2.8523   -1.0364 C.3     1  LIG1        0.0789
     14 H          -0.9514    3.1250   -1.9921 H       1  LIG1        0.0660
     15 H          -1.0980    3.2700   -0.2178 H       1  LIG1        0.0660
     16 H           0.5118    3.2371   -0.9850 H       1  LIG1        0.0660
     17 C          -2.3311   -0.4749    0.6482 C.ar    1  LIG1        0.0735
     18 C          -3.4927    0.1741    0.2854 C.ar    1  LIG1        0.0187
     19 C          -4.4769   -0.8397    0.1324 C.ar    1  LIG1        0.1502
     20 C          -3.9019   -2.0670    0.3941 C.ar    1  LIG1        0.1062
     21 N          -2.5907   -1.8202    0.7075 N.ar    1  LIG1       -0.3486
     22 H          -1.9147   -2.5215    0.9654 H       1  LIG1        0.1661
     23 C          -3.7039    1.6507    0.0889 C.3     1  LIG1       -0.0341
     24 H          -4.7620    1.8801    0.2138 H       1  LIG1        0.0279
     25 H          -3.3897    1.9559   -0.9110 H       1  LIG1        0.0279
     26 H          -3.1234    2.2128    0.8221 H       1  LIG1        0.0279
     27 O          -5.7814   -0.6226   -0.2141 O.3     1  LIG1       -0.4927
     28 C          -6.0428   -0.8622   -1.5931 C.3     1  LIG1        0.0789
     29 H          -7.0886   -0.6121   -1.7584 H       1  LIG1        0.0660
     30 H          -5.4023   -0.2296   -2.2124 H       1  LIG1        0.0660
     31 H          -5.8671   -1.9141   -1.8302 H       1  LIG1        0.0660
     32 C          -4.4786   -3.4075    0.3473 C.ar    1  LIG1        0.0735
     33 C          -5.6978   -3.8622    0.8097 C.ar    1  LIG1        0.0187
     34 C          -5.7289   -5.2538    0.5170 C.ar    1  LIG1        0.1502
     35 C          -4.5535   -5.6090   -0.1127 C.ar    1  LIG1        0.1062
     36 N          -3.8045   -4.4651   -0.2109 N.ar    1  LIG1       -0.3486
     37 H          -2.8846   -4.4148   -0.6185 H       1  LIG1        0.1661
     38 C          -6.7793   -3.0750    1.5010 C.3     1  LIG1       -0.0341
     39 H          -7.3252   -3.7346    2.1752 H       1  LIG1        0.0279
     40 H          -7.4776   -2.6529    0.7759 H       1  LIG1        0.0279
     41 H          -6.3422   -2.2487    2.0611 H       1  LIG1        0.0279
     42 O          -6.7608   -6.0967    0.8239 O.3     1  LIG1       -0.4927
     43 C          -7.5454   -6.4616   -0.3068 C.3     1  LIG1        0.0789
     44 H          -8.3544   -7.0860    0.0669 H       1  LIG1        0.0660
     45 H          -7.9525   -5.5671   -0.7846 H       1  LIG1        0.0660
     46 H          -6.9387   -7.0223   -1.0215 H       1  LIG1        0.0660
     47 C          -4.1168   -6.9069   -0.6186 C.ar    1  LIG1        0.0730
     48 C          -4.2347   -8.1552   -0.0453 C.ar    1  LIG1        0.0180
     49 C          -3.6456   -9.0646   -0.9733 C.ar    1  LIG1        0.1408
     50 C          -3.1960   -8.3594   -2.0623 C.ar    1  LIG1        0.0447
     51 N          -3.4837   -7.0426   -1.8299 N.ar    1  LIG1       -0.3561
     52 H          -3.3738   -6.2967   -2.4973 H       1  LIG1        0.1655
     53 H          -2.6928   -8.6953   -2.9515 H       1  LIG1        0.0844
     54 C          -4.8060   -8.4970    1.3065 C.3     1  LIG1       -0.0342
     55 H          -4.3405   -9.4148    1.6678 H       1  LIG1        0.0279
     56 H          -5.8879   -8.6353    1.2574 H       1  LIG1        0.0279
     57 H          -4.6110   -7.6857    2.0082 H       1  LIG1        0.0279
     58 O          -3.5219  -10.4150   -0.7875 O.3     1  LIG1       -0.4933
     59 C          -4.7238  -11.1241   -1.0580 C.3     1  LIG1        0.0789
     60 H          -4.5300  -12.1688   -0.8246 H       1  LIG1        0.0660
     61 H          -5.5391  -10.7484   -0.4351 H       1  LIG1        0.0660
     62 H          -4.9956  -11.0177   -2.1110 H       1  LIG1        0.0660
@<TRIPOS>BOND
     1    53    50    1
     2    52    51    1
     3    30    28    1
     4    62    59    1
     5    50    51   ar
     6    50    49   ar
     7    14    13    1
     8    31    28    1
     9    51    47   ar
    10    29    28    1
    11    28    27    1
    12    59    60    1
    13    59    58    1
    14    59    61    1
    15    13    16    1
    16    13    12    1
    17    13    15    1
    18    46    43    1
    19    12     3    1
    20    49    58    1
    21    49    48   ar
    22    25    23    1
    23    45    43    1
    24    47    35    1
    25    47    48   ar
    26    37    36    1
    27    10     8    1
    28    43    44    1
    29    43    42    1
    30    27    19    1
    31    36    35   ar
    32    36    32   ar
    33    35    34   ar
    34    48    54    1
    35    23    24    1
    36    23    18    1
    37    23    26    1
    38    19    18   ar
    39    19    20   ar
    40     3     2   ar
    41     3     4   ar
    42    18    17   ar
    43    32    20    1
    44    32    33   ar
    45    20    21   ar
    46     8     9    1
    47     8     2    1
    48     8    11    1
    49    34    33   ar
    50    34    42    1
    51    17    21   ar
    52    17     4    1
    53    21    22    1
    54    40    38    1
    55    33    38    1
    56     2     1   ar
    57     4     5   ar
    58    56    54    1
    59    54    55    1
    60    54    57    1
    61    38    41    1
    62    38    39    1
    63     5     1   ar
    64     5     6    1
    65     1     7    1
