@<TRIPOS>MOLECULE
mol_data/opt/m06hf/geoms/mol2/13il13il-.out
 32 33 0 0 0
SMALL
GASTEIGER

@<TRIPOS>ATOM
      1 C           1.4089   -0.3363   -0.2750 C.ar    1  LIG1        0.0087
      2 C           1.0412    0.9851   -0.3738 C.ar    1  LIG1        0.0092
      3 C          -0.3819    0.9849   -0.3731 C.ar    1  LIG1        0.1495
      4 C          -0.8313   -0.3136   -0.2669 C.ar    1  LIG1        0.1057
      5 N           0.2803   -1.1054   -0.2091 N.ar    1  LIG1       -0.3563
      6 H           0.2581   -2.1119   -0.1939 H       1  LIG1        0.1655
      7 H           2.3886   -0.7823   -0.2548 H       1  LIG1        0.0811
      8 C           1.9277    2.2008   -0.4754 C.3     1  LIG1       -0.0348
      9 H           2.0300    2.6994    0.4903 H       1  LIG1        0.0279
     10 H           1.4971    2.9099   -1.1830 H       1  LIG1        0.0279
     11 H           2.9216    1.9177   -0.8215 H       1  LIG1        0.0279
     12 O          -1.2020    2.0858   -0.4740 O.3     1  LIG1       -0.4927
     13 C          -1.4943    2.6703    0.7950 C.3     1  LIG1        0.0789
     14 H          -2.1227    3.5375    0.6015 H       1  LIG1        0.0660
     15 H          -2.0221    1.9497    1.4230 H       1  LIG1        0.0660
     16 H          -0.5699    2.9801    1.2853 H       1  LIG1        0.0660
     17 C          -2.2053   -0.8004   -0.2521 C.ar    1  LIG1        0.0730
     18 C          -2.7575   -2.0069    0.1313 C.ar    1  LIG1        0.0180
     19 C          -4.1588   -1.8703   -0.0750 C.ar    1  LIG1        0.1408
     20 C          -4.4169   -0.6065   -0.5595 C.ar    1  LIG1        0.0447
     21 N          -3.2072    0.0281   -0.6604 N.ar    1  LIG1       -0.3561
     22 H          -3.0280    0.9660   -0.9915 H       1  LIG1        0.1655
     23 H          -5.3346   -0.1196   -0.8339 H       1  LIG1        0.0844
     24 C          -2.0784   -3.2306    0.6923 C.3     1  LIG1       -0.0342
     25 H          -1.3040   -2.9504    1.4101 H       1  LIG1        0.0279
     26 H          -1.6323   -3.8445   -0.0950 H       1  LIG1        0.0279
     27 H          -2.8210   -3.8391    1.2072 H       1  LIG1        0.0279
     28 O          -5.0287   -2.8776    0.2102 O.3     1  LIG1       -0.4933
     29 C          -6.3916   -2.5414    0.0612 C.3     1  LIG1        0.0789
     30 H          -6.9634   -3.4201    0.3481 H       1  LIG1        0.0660
     31 H          -6.6480   -1.6988    0.7105 H       1  LIG1        0.0660
     32 H          -6.6090   -2.2810   -0.9791 H       1  LIG1        0.0660
@<TRIPOS>BOND
     1    10     8    1
     2    22    21    1
     3    32    29    1
     4    23    20    1
     5    11     8    1
     6    21    20   ar
     7    21    17   ar
     8    20    19   ar
     9     8     2    1
    10     8     9    1
    11    12     3    1
    12    12    13    1
    13     2     3   ar
    14     2     1   ar
    15     3     4   ar
    16     1     7    1
    17     1     5   ar
    18     4    17    1
    19     4     5   ar
    20    17    18   ar
    21     5     6    1
    22    26    24    1
    23    19    18   ar
    24    19    28    1
    25    29    28    1
    26    29    30    1
    27    29    31    1
    28    18    24    1
    29    14    13    1
    30    24    27    1
    31    24    25    1
    32    13    16    1
    33    13    15    1
