@<TRIPOS>MOLECULE
mol_data/opt/m06hf/geoms/mol2/13il4de12ea13lf.out
 52 55 0 0 0
SMALL
GASTEIGER

@<TRIPOS>ATOM
      1 C           1.3682    0.2154    0.9719 C.ar    1  LIG1        0.0087
      2 C           1.1157    1.0686   -0.0781 C.ar    1  LIG1        0.0091
      3 C          -0.2706    0.9082   -0.3815 C.ar    1  LIG1        0.1481
      4 C          -0.7996   -0.0287    0.4828 C.ar    1  LIG1        0.0902
      5 N           0.2281   -0.4552    1.2882 N.ar    1  LIG1       -0.3574
      6 H           0.1113   -1.0702    2.0770 H       1  LIG1        0.1655
      7 H           2.2859    0.0449    1.5096 H       1  LIG1        0.0811
      8 C           2.1279    1.9395   -0.7829 C.3     1  LIG1       -0.0348
      9 H           1.9528    2.9977   -0.5833 H       1  LIG1        0.0279
     10 H           2.0838    1.7765   -1.8607 H       1  LIG1        0.0279
     11 H           3.1306    1.6863   -0.4384 H       1  LIG1        0.0279
     12 O          -0.9848    1.4650   -1.3953 O.3     1  LIG1       -0.4927
     13 C          -0.8779    2.8811   -1.5259 C.3     1  LIG1        0.0789
     14 H          -1.7568    3.2018   -2.0797 H       1  LIG1        0.0660
     15 H          -0.8779    3.3524   -0.5422 H       1  LIG1        0.0660
     16 H           0.0261    3.1446   -2.0772 H       1  LIG1        0.0660
     17 C          -3.3111    0.1196    0.4275 C.ar    1  LIG1        0.0617
     18 C          -4.5637   -0.4868    0.4399 C.ar    1  LIG1       -0.0318
     19 C          -2.1332   -0.6375    0.5273 C.ar    1  LIG1        0.0204
     20 C          -4.6867   -1.8673    0.5927 C.ar    1  LIG1        0.0351
     21 H          -5.4515    0.1230    0.3416 H       1  LIG1        0.0638
     22 C          -2.2664   -2.0177    0.6777 C.ar    1  LIG1       -0.0352
     23 C          -3.5157   -2.6384    0.7294 C.ar    1  LIG1        0.0361
     24 H          -1.3796   -2.6348    0.7365 H       1  LIG1        0.0637
     25 N          -3.3025    2.7135    0.3528 N.1     1  LIG1       -0.1908
     26 C          -3.2659    1.5664    0.3615 C.1     1  LIG1        0.0998
     27 C          -3.5337   -4.0672    0.9532 C.1     1  LIG1       -0.0689
     28 C          -3.4694   -5.2470    1.1758 C.1     1  LIG1       -0.1139
     29 H          -3.4174   -6.2880    1.3988 H       1  LIG1        0.1232
     30 C          -6.0240   -2.4674    0.6003 C.ar    1  LIG1        0.1523
     31 C          -7.2574   -2.0058    0.9817 C.ar    1  LIG1        0.0710
     32 C          -8.1894   -3.0756    0.7335 C.ar    1  LIG1        0.0018
     33 C          -7.4474   -4.0906    0.2203 C.ar    1  LIG1        0.1567
     34 O          -6.1491   -3.7250    0.1341 O.2     1  LIG1       -0.4519
     35 C          -7.5550   -0.7222    1.5440 C.1     1  LIG1       -0.0658
     36 C          -7.8095    0.3563    2.0092 C.1     1  LIG1       -0.1138
     37 H          -8.0344    1.3106    2.4263 H       1  LIG1        0.1232
     38 H          -9.2472   -3.0880    0.9271 H       1  LIG1        0.0668
     39 C          -7.7425   -5.4326   -0.2379 C.ar    1  LIG1        0.1281
     40 C          -8.9493   -6.0847   -0.3651 C.ar    1  LIG1        0.1897
     41 C          -8.6651   -7.3854   -0.8641 C.ar    1  LIG1        0.1769
     42 C          -7.3001   -7.4812   -1.0145 C.ar    1  LIG1        0.0480
     43 N          -6.7554   -6.2889   -0.6250 N.ar    1  LIG1       -0.3522
     44 H          -5.7764   -6.0452   -0.6149 H       1  LIG1        0.1656
     45 H          -6.6934   -8.2994   -1.3613 H       1  LIG1        0.0845
     46 O         -10.1608   -5.5537   -0.0479 O.3     1  LIG1       -0.4894
     47 C         -11.0510   -5.4750   -1.1620 C.3     1  LIG1        0.0791
     48 H         -11.9775   -5.0514   -0.7821 H       1  LIG1        0.0660
     49 H         -10.6249   -4.8255   -1.9295 H       1  LIG1        0.0660
     50 H         -11.2291   -6.4711   -1.5683 H       1  LIG1        0.0660
     51 O          -9.6358   -8.3139   -1.1169 O.3     1  LIG1       -0.5023
     52 H          -9.2521   -9.0839   -1.5480 H       1  LIG1        0.2923
@<TRIPOS>BOND
     1    14    13    1
     2    16    13    1
     3    49    47    1
     4    10     8    1
     5    50    47    1
     6    52    51    1
     7    13    12    1
     8    13    15    1
     9    12     3    1
    10    45    42    1
    11    47    48    1
    12    47    46    1
    13    51    41    1
    14    42    41   ar
    15    42    43   ar
    16    41    40   ar
    17     8     9    1
    18     8    11    1
    19     8     2    1
    20    43    44    1
    21    43    39   ar
    22     3     2   ar
    23     3     4   ar
    24    40    39   ar
    25    40    46    1
    26    39    33    1
    27     2     1   ar
    28    34    33   ar
    29    34    30   ar
    30    33    32   ar
    31    21    18    1
    32    25    26    3
    33    26    17    1
    34    17    18   ar
    35    17    19   ar
    36    18    20   ar
    37     4    19    1
    38     4     5   ar
    39    19    22   ar
    40    20    30    1
    41    20    23   ar
    42    30    31   ar
    43    22    23   ar
    44    22    24    1
    45    23    27    1
    46    32    38    1
    47    32    31   ar
    48    27    28    3
    49     1     5   ar
    50     1     7    1
    51    31    35    1
    52    28    29    1
    53     5     6    1
    54    35    36    3
    55    36    37    1
