@<TRIPOS>MOLECULE
mol_data/opt/m06hf/geoms/mol2/13il13il-13il.out
 47 49 0 0 0
SMALL
GASTEIGER

@<TRIPOS>ATOM
      1 C           1.3133   -0.4032   -0.7089 C.ar    1  LIG1        0.0087
      2 C           0.9789    0.9077   -0.4628 C.ar    1  LIG1        0.0092
      3 C          -0.4302    0.9101   -0.2646 C.ar    1  LIG1        0.1495
      4 C          -0.9041   -0.3789   -0.3873 C.ar    1  LIG1        0.1057
      5 N           0.1794   -1.1660   -0.6587 N.ar    1  LIG1       -0.3563
      6 H           0.1312   -2.1524   -0.8521 H       1  LIG1        0.1655
      7 H           2.2717   -0.8438   -0.9235 H       1  LIG1        0.0811
      8 C           1.8838    2.1135   -0.4200 C.3     1  LIG1       -0.0348
      9 H           2.1703    2.3595    0.6044 H       1  LIG1        0.0279
     10 H           1.3674    2.9731   -0.8482 H       1  LIG1        0.0279
     11 H           2.7913    1.9271   -0.9938 H       1  LIG1        0.0279
     12 O          -1.2221    2.0065   -0.0090 O.3     1  LIG1       -0.4927
     13 C          -1.2670    2.3479    1.3768 C.3     1  LIG1        0.0789
     14 H          -1.8884    3.2377    1.4576 H       1  LIG1        0.0660
     15 H          -1.7030    1.5247    1.9475 H       1  LIG1        0.0660
     16 H          -0.2616    2.5585    1.7447 H       1  LIG1        0.0660
     17 C          -2.2780   -0.8511   -0.2915 C.ar    1  LIG1        0.0735
     18 C          -2.8268   -2.1195   -0.2169 C.ar    1  LIG1        0.0187
     19 C          -4.2301   -1.9193   -0.1457 C.ar    1  LIG1        0.1502
     20 C          -4.4978   -0.5652   -0.1744 C.ar    1  LIG1        0.1062
     21 N          -3.2923    0.0653   -0.2639 N.ar    1  LIG1       -0.3486
     22 H          -3.1272    1.0592   -0.3667 H       1  LIG1        0.1661
     23 C          -2.1302   -3.4571   -0.2237 C.3     1  LIG1       -0.0341
     24 H          -1.3678   -3.5131    0.5570 H       1  LIG1        0.0279
     25 H          -1.6660   -3.6590   -1.1928 H       1  LIG1        0.0279
     26 H          -2.8678   -4.2404   -0.0477 H       1  LIG1        0.0279
     27 O          -5.1857   -2.9041   -0.0463 O.3     1  LIG1       -0.4927
     28 C          -5.5023   -3.2249    1.3098 C.3     1  LIG1        0.0789
     29 H          -6.2211   -4.0413    1.2769 H       1  LIG1        0.0660
     30 H          -4.6003   -3.5383    1.8383 H       1  LIG1        0.0660
     31 H          -5.9354   -2.3550    1.8070 H       1  LIG1        0.0660
     32 C          -5.7865    0.1114   -0.1560 C.ar    1  LIG1        0.0730
     33 C          -6.1363    1.4212    0.1078 C.ar    1  LIG1        0.0180
     34 C          -7.5541    1.4721   -0.0224 C.ar    1  LIG1        0.1408
     35 C          -8.0146    0.2197   -0.3544 C.ar    1  LIG1        0.0447
     36 N          -6.9236   -0.5964   -0.4281 N.ar    1  LIG1       -0.3561
     37 H          -6.9025   -1.5801   -0.6587 H       1  LIG1        0.1655
     38 H          -9.0164   -0.1327   -0.5234 H       1  LIG1        0.0844
     39 C          -5.2499    2.5720    0.5126 C.3     1  LIG1       -0.0342
     40 H          -5.8737    3.3571    0.9413 H       1  LIG1        0.0279
     41 H          -4.7060    2.9915   -0.3385 H       1  LIG1        0.0279
     42 H          -4.5279    2.2533    1.2681 H       1  LIG1        0.0279
     43 O          -8.3195    2.5923    0.1681 O.3     1  LIG1       -0.4933
     44 C          -8.4223    3.3962   -0.9999 C.3     1  LIG1        0.0789
     45 H          -9.0368    4.2545   -0.7357 H       1  LIG1        0.0660
     46 H          -7.4332    3.7302   -1.3232 H       1  LIG1        0.0660
     47 H          -8.8928    2.8307   -1.8075 H       1  LIG1        0.0660
@<TRIPOS>BOND
     1    47    44    1
     2    46    44    1
     3    25    23    1
     4    44    45    1
     5    44    43    1
     6    11     8    1
     7     7     1    1
     8     6     5    1
     9    10     8    1
    10     1     5   ar
    11     1     2   ar
    12    37    36    1
    13     5     4   ar
    14    38    35    1
    15     2     8    1
    16     2     3   ar
    17    36    35   ar
    18    36    32   ar
    19     8     9    1
    20     4    17    1
    21     4     3   ar
    22    22    21    1
    23    35    34   ar
    24    41    39    1
    25    17    21   ar
    26    17    18   ar
    27     3    12    1
    28    21    20   ar
    29    23    18    1
    30    23    26    1
    31    23    24    1
    32    18    19   ar
    33    20    32    1
    34    20    19   ar
    35    32    33   ar
    36    19    27    1
    37    27    28    1
    38    34    33   ar
    39    34    43    1
    40    12    13    1
    41    33    39    1
    42    39    40    1
    43    39    42    1
    44    29    28    1
    45    28    31    1
    46    28    30    1
    47    13    14    1
    48    13    16    1
    49    13    15    1
