@<TRIPOS>MOLECULE
mol_data/opt/m06hf/geoms/mol2/13il13il.out
 32 33 0 0 0
SMALL
GASTEIGER

@<TRIPOS>ATOM
      1 C           1.2623   -0.4114    0.4563 C.ar    1  LIG1        0.0087
      2 C           1.0330    0.8439   -0.0543 C.ar    1  LIG1        0.0092
      3 C          -0.3799    0.9296   -0.2574 C.ar    1  LIG1        0.1495
      4 C          -0.9524   -0.2620    0.1302 C.ar    1  LIG1        0.1057
      5 N           0.0732   -1.0713    0.5550 N.ar    1  LIG1       -0.3563
      6 H          -0.0662   -1.9681    0.9908 H       1  LIG1        0.1655
      7 H           2.1889   -0.8764    0.7482 H       1  LIG1        0.0811
      8 C           2.0719    1.8840   -0.3964 C.3     1  LIG1       -0.0348
      9 H           2.1046    2.6817    0.3486 H       1  LIG1        0.0279
     10 H           1.8510    2.3266   -1.3690 H       1  LIG1        0.0279
     11 H           3.0580    1.4217   -0.4439 H       1  LIG1        0.0279
     12 O          -1.0754    1.9659   -0.8144 O.3     1  LIG1       -0.4927
     13 C          -0.9587    3.1996   -0.1181 C.3     1  LIG1        0.0789
     14 H          -1.7124    3.8623   -0.5387 H       1  LIG1        0.0660
     15 H          -1.1426    3.0530    0.9482 H       1  LIG1        0.0660
     16 H           0.0301    3.6386   -0.2622 H       1  LIG1        0.0660
     17 C          -2.3358   -0.7296    0.0630 C.ar    1  LIG1        0.0730
     18 C          -3.5086   -0.1151    0.4403 C.ar    1  LIG1        0.0180
     19 C          -4.5488   -1.0444    0.1459 C.ar    1  LIG1        0.1408
     20 C          -3.9907   -2.1774   -0.3927 C.ar    1  LIG1        0.0447
     21 N          -2.6397   -1.9744   -0.4297 N.ar    1  LIG1       -0.3561
     22 H          -1.9698   -2.5819   -0.8723 H       1  LIG1        0.1655
     23 H          -4.4512   -3.0899   -0.7277 H       1  LIG1        0.0844
     24 C          -3.6768    1.2395    1.0738 C.3     1  LIG1       -0.0342
     25 H          -4.6276    1.2707    1.6069 H       1  LIG1        0.0279
     26 H          -3.6628    2.0264    0.3169 H       1  LIG1        0.0279
     27 H          -2.8653    1.4251    1.7795 H       1  LIG1        0.0279
     28 O          -5.8823   -0.8420    0.3831 O.3     1  LIG1       -0.4933
     29 C          -6.5111   -0.0729   -0.6342 C.3     1  LIG1        0.0789
     30 H          -7.5523    0.0430   -0.3404 H       1  LIG1        0.0660
     31 H          -6.0371    0.9079   -0.7215 H       1  LIG1        0.0660
     32 H          -6.4453   -0.5912   -1.5933 H       1  LIG1        0.0660
@<TRIPOS>BOND
     1    32    29    1
     2    10     8    1
     3    22    21    1
     4    12     3    1
     5    12    13    1
     6    23    20    1
     7    31    29    1
     8    29    30    1
     9    29    28    1
    10    14    13    1
    11    11     8    1
    12    21    20   ar
    13    21    17   ar
    14     8     2    1
    15     8     9    1
    16    20    19   ar
    17    16    13    1
    18     3     2   ar
    19     3     4   ar
    20    13    15    1
    21     2     1   ar
    22    17     4    1
    23    17    18   ar
    24     4     5   ar
    25    19    28    1
    26    19    18   ar
    27    26    24    1
    28    18    24    1
    29     1     5   ar
    30     1     7    1
    31     5     6    1
    32    24    25    1
    33    24    27    1
