@<TRIPOS>MOLECULE
mol_data/opt/m06hf/geoms/mol2/13il13dd-13ad-13le-.out
 50 53 0 0 0
SMALL
GASTEIGER

@<TRIPOS>ATOM
      1 C           0.9256   -0.5897    1.3888 C.ar    1  LIG1        0.0087
      2 C           0.8273    0.6459    0.7927 C.ar    1  LIG1        0.0092
      3 C          -0.5066    0.7324    0.2922 C.ar    1  LIG1        0.1496
      4 C          -1.1593   -0.4423    0.5995 C.ar    1  LIG1        0.1067
      5 N          -0.2601   -1.2483    1.2570 N.ar    1  LIG1       -0.3563
      6 H          -0.4916   -2.1183    1.7079 H       1  LIG1        0.1655
      7 H           1.7614   -1.0444    1.8944 H       1  LIG1        0.0811
      8 C           1.9210    1.6746    0.6415 C.3     1  LIG1       -0.0348
      9 H           1.7949    2.4962    1.3486 H       1  LIG1        0.0279
     10 H           1.9090    2.0812   -0.3706 H       1  LIG1        0.0279
     11 H           2.8921    1.2130    0.8185 H       1  LIG1        0.0279
     12 O          -1.0606    1.7321   -0.4389 O.3     1  LIG1       -0.4927
     13 C          -1.1211    3.0020    0.2165 C.3     1  LIG1        0.0789
     14 H          -1.8104    3.6082   -0.3651 H       1  LIG1        0.0660
     15 H          -1.5052    2.8814    1.2298 H       1  LIG1        0.0660
     16 H          -0.1345    3.4672    0.2335 H       1  LIG1        0.0660
     17 C          -2.4996   -0.8790    0.2403 C.ar    1  LIG1        0.0858
     18 C          -3.7017   -0.2041    0.2513 C.ar    1  LIG1        0.0965
     19 C          -4.7032   -1.1028   -0.2335 C.ar    1  LIG1        0.0964
     20 C          -4.0797   -2.2963   -0.5249 C.ar    1  LIG1        0.0823
     21 N          -2.7545   -2.1394   -0.2291 N.ar    1  LIG1       -0.3497
     22 H          -2.0281   -2.7859   -0.5037 H       1  LIG1        0.1661
     23 N          -4.0862    2.2080    1.0800 N.1     1  LIG1       -0.1908
     24 C          -3.9055    1.1371    0.7074 C.1     1  LIG1        0.1027
     25 N          -7.2303   -0.6647   -0.5068 N.1     1  LIG1       -0.1908
     26 C          -6.1054   -0.8502   -0.3753 C.1     1  LIG1        0.1026
     27 C          -4.6273   -3.5371   -1.0596 C.ar    1  LIG1        0.0659
     28 C          -5.6316   -3.7369   -1.9760 C.ar    1  LIG1       -0.0169
     29 C          -5.7457   -5.1449   -2.1424 C.ar    1  LIG1        0.0791
     30 C          -4.8055   -5.7518   -1.3213 C.ar    1  LIG1        0.0846
     31 N          -4.1405   -4.7651   -0.6780 N.ar    1  LIG1       -0.3507
     32 H          -3.4401   -4.9727    0.0253 H       1  LIG1        0.1660
     33 H          -6.2072   -2.9740   -2.4720 H       1  LIG1        0.0652
     34 N          -7.2803   -6.5725   -3.6453 N.1     1  LIG1       -0.1908
     35 C          -6.6232   -5.8923   -2.9910 C.1     1  LIG1        0.1014
     36 C          -4.4800   -7.1445   -1.0770 C.ar    1  LIG1        0.1076
     37 C          -3.5972   -7.6518   -0.1504 C.ar    1  LIG1        0.1620
     38 C          -3.5887   -9.0703   -0.2823 C.ar    1  LIG1        0.0842
     39 C          -4.4819   -9.3639   -1.2981 C.ar    1  LIG1        0.0213
     40 N          -5.0022   -8.2072   -1.7668 N.ar    1  LIG1       -0.3554
     41 H          -5.6861   -8.1266   -2.5082 H       1  LIG1        0.1655
     42 H          -4.7620  -10.3196   -1.7051 H       1  LIG1        0.0820
     43 O          -2.8792   -6.8778    0.7193 O.3     1  LIG1       -0.4917
     44 C          -3.2167   -7.1145    2.0943 C.3     1  LIG1        0.0789
     45 H          -2.5929   -6.4448    2.6807 H       1  LIG1        0.0660
     46 H          -4.2737   -6.8918    2.2523 H       1  LIG1        0.0660
     47 H          -3.0055   -8.1513    2.3533 H       1  LIG1        0.0660
     48 C          -2.8005  -10.0009    0.4675 C.1     1  LIG1       -0.0645
     49 C          -2.1365  -10.7732    1.1057 C.1     1  LIG1       -0.1137
     50 H          -1.5445  -11.4633    1.6607 H       1  LIG1        0.1232
@<TRIPOS>BOND
     1    34    35    3
     2    35    29    1
     3    41    40    1
     4    33    28    1
     5    29    28   ar
     6    29    30   ar
     7    28    27   ar
     8    40    39   ar
     9    40    36   ar
    10    42    39    1
    11    30    36    1
    12    30    31   ar
    13    39    38   ar
    14    36    37   ar
    15    27    31   ar
    16    27    20    1
    17    31    32    1
    18    20    19   ar
    19    20    21   ar
    20    25    26    3
    21    22    21    1
    22    12    13    1
    23    12     3    1
    24    26    19    1
    25    10     8    1
    26    14    13    1
    27    38    37   ar
    28    38    48    1
    29    19    18   ar
    30    21    17   ar
    31    37    43    1
    32    13    16    1
    33    13    15    1
    34    17    18   ar
    35    17     4    1
    36    18    24    1
    37     3     4   ar
    38     3     2   ar
    39    48    49    3
    40     4     5   ar
    41     8     2    1
    42     8    11    1
    43     8     9    1
    44    24    23    3
    45    43    44    1
    46     2     1   ar
    47    49    50    1
    48     5     1   ar
    49     5     6    1
    50     1     7    1
    51    44    46    1
    52    44    47    1
    53    44    45    1
