@<TRIPOS>MOLECULE
mol_data/opt/m06hf/geoms/mol2/13il13il-13il13il-.out
 62 65 0 0 0
SMALL
GASTEIGER

@<TRIPOS>ATOM
      1 C           1.3896   -0.2871   -0.9519 C.ar    1  LIG1        0.0087
      2 C           1.0009    1.0216   -0.7882 C.ar    1  LIG1        0.0092
      3 C          -0.4028    0.9757   -0.5598 C.ar    1  LIG1        0.1495
      4 C          -0.8204   -0.3382   -0.5862 C.ar    1  LIG1        0.1057
      5 N           0.2925   -1.0940   -0.8272 N.ar    1  LIG1       -0.3563
      6 H           0.2855   -2.0936   -0.9421 H       1  LIG1        0.1655
      7 H           2.3636   -0.6968   -1.1568 H       1  LIG1        0.0811
      8 C           1.8525    2.2648   -0.8512 C.3     1  LIG1       -0.0348
      9 H           2.1490    2.5955    0.1461 H       1  LIG1        0.0279
     10 H           1.2908    3.0692   -1.3272 H       1  LIG1        0.0279
     11 H           2.7553    2.0759   -1.4315 H       1  LIG1        0.0279
     12 O          -1.2385    2.0526   -0.3652 O.3     1  LIG1       -0.4927
     13 C          -1.2434    2.5154    0.9853 C.3     1  LIG1        0.0789
     14 H          -1.8932    3.3881    1.0119 H       1  LIG1        0.0660
     15 H          -1.6267    1.7330    1.6447 H       1  LIG1        0.0660
     16 H          -0.2335    2.7927    1.2920 H       1  LIG1        0.0660
     17 C          -2.1699   -0.8606   -0.4266 C.ar    1  LIG1        0.0735
     18 C          -2.6667   -2.1450   -0.2866 C.ar    1  LIG1        0.0187
     19 C          -4.0729   -1.9940   -0.1676 C.ar    1  LIG1        0.1502
     20 C          -4.3926   -0.6518   -0.2365 C.ar    1  LIG1        0.1062
     21 N          -3.2160    0.0184   -0.3941 N.ar    1  LIG1       -0.3486
     22 H          -3.0874    1.0119   -0.5382 H       1  LIG1        0.1661
     23 C          -1.9215   -3.4562   -0.2789 C.3     1  LIG1       -0.0341
     24 H          -1.1583   -3.4779    0.5028 H       1  LIG1        0.0279
     25 H          -1.4506   -3.6500   -1.2464 H       1  LIG1        0.0279
     26 H          -2.6310   -4.2632   -0.0953 H       1  LIG1        0.0279
     27 O          -4.9867   -3.0079    0.0056 O.3     1  LIG1       -0.4927
     28 C          -5.2114   -3.3144    1.3832 C.3     1  LIG1        0.0789
     29 H          -5.9031   -4.1544    1.4053 H       1  LIG1        0.0660
     30 H          -4.2698   -3.5880    1.8629 H       1  LIG1        0.0660
     31 H          -5.6445   -2.4502    1.8919 H       1  LIG1        0.0660
     32 C          -5.7034   -0.0270   -0.1787 C.ar    1  LIG1        0.0735
     33 C          -6.0932    1.2947   -0.0474 C.ar    1  LIG1        0.0187
     34 C          -7.5119    1.2698   -0.0485 C.ar    1  LIG1        0.1502
     35 C          -7.9439   -0.0359   -0.1755 C.ar    1  LIG1        0.1062
     36 N          -6.8231   -0.8083   -0.2549 N.ar    1  LIG1       -0.3486
     37 H          -6.7831   -1.8054   -0.4257 H       1  LIG1        0.1661
     38 C          -5.2294    2.5255    0.0690 C.3     1  LIG1       -0.0341
     39 H          -5.8725    3.3973    0.1900 H       1  LIG1        0.0279
     40 H          -4.6293    2.6807   -0.8314 H       1  LIG1        0.0279
     41 H          -4.5614    2.4581    0.9317 H       1  LIG1        0.0279
     42 O          -8.3440    2.3590    0.0728 O.3     1  LIG1       -0.4927
     43 C          -8.6557    2.6592    1.4339 C.3     1  LIG1        0.0789
     44 H          -9.2839    3.5477    1.4215 H       1  LIG1        0.0660
     45 H          -9.1893    1.8214    1.8875 H       1  LIG1        0.0660
     46 H          -7.7382    2.8560    1.9920 H       1  LIG1        0.0660
     47 C          -9.3070   -0.5402   -0.2545 C.ar    1  LIG1        0.0730
     48 C          -9.8222   -1.8161   -0.1353 C.ar    1  LIG1        0.0180
     49 C         -11.2271   -1.6802   -0.3152 C.ar    1  LIG1        0.1408
     50 C         -11.5230   -0.3507   -0.5274 C.ar    1  LIG1        0.0447
     51 N         -10.3331    0.3272   -0.4840 N.ar    1  LIG1       -0.3561
     52 H         -10.1815    1.3146   -0.6339 H       1  LIG1        0.1655
     53 H         -12.4556    0.1543   -0.7022 H       1  LIG1        0.0844
     54 C          -9.0948   -3.1063    0.1476 C.3     1  LIG1       -0.0342
     55 H          -8.3823   -2.9753    0.9658 H       1  LIG1        0.0279
     56 H          -8.5593   -3.4717   -0.7326 H       1  LIG1        0.0279
     57 H          -9.8217   -3.8638    0.4386 H       1  LIG1        0.0279
     58 O         -12.0668   -2.7500   -0.2618 O.3     1  LIG1       -0.4933
     59 C         -13.4282   -2.4446   -0.4722 C.3     1  LIG1        0.0789
     60 H         -13.9715   -3.3847   -0.4188 H       1  LIG1        0.0660
     61 H         -13.7901   -1.7610    0.3021 H       1  LIG1        0.0660
     62 H         -13.5683   -1.9886   -1.4568 H       1  LIG1        0.0660
@<TRIPOS>BOND
     1    62    59    1
     2    11     8    1
     3    10     8    1
     4    25    23    1
     5     7     1    1
     6     1     5   ar
     7     1     2   ar
     8     6     5    1
     9     8     2    1
    10     8     9    1
    11    40    38    1
    12     5     4   ar
    13     2     3   ar
    14    56    54    1
    15    53    50    1
    16    52    51    1
    17     4     3   ar
    18     4    17    1
    19     3    12    1
    20    22    21    1
    21    50    51   ar
    22    50    49   ar
    23    51    47   ar
    24    59    60    1
    25    59    58    1
    26    59    61    1
    27    17    21   ar
    28    17    18   ar
    29    37    36    1
    30    21    20   ar
    31    12    13    1
    32    49    58    1
    33    49    48   ar
    34    18    23    1
    35    18    19   ar
    36    23    26    1
    37    23    24    1
    38    36    32   ar
    39    36    35   ar
    40    47    35    1
    41    47    48   ar
    42    20    32    1
    43    20    19   ar
    44    32    33   ar
    45    35    34   ar
    46    19    27    1
    47    48    54    1
    48    34    33   ar
    49    34    42    1
    50    33    38    1
    51    27    28    1
    52    38    39    1
    53    38    41    1
    54    42    43    1
    55    54    57    1
    56    54    55    1
    57    13    14    1
    58    13    16    1
    59    13    15    1
    60    28    29    1
    61    28    30    1
    62    28    31    1
    63    44    43    1
    64    43    45    1
    65    43    46    1
