@<TRIPOS>MOLECULE
mol_data/opt/m06hf/geoms/mol2/13il13il-13il-13il-.out
 62 65 0 0 0
SMALL
GASTEIGER

@<TRIPOS>ATOM
      1 C           1.2024   -0.1605    0.6853 C.ar    1  LIG1        0.0087
      2 C           0.7881    1.1247    0.4243 C.ar    1  LIG1        0.0092
      3 C          -0.6225    1.0425    0.2599 C.ar    1  LIG1        0.1495
      4 C          -1.0202   -0.2669    0.4274 C.ar    1  LIG1        0.1057
      5 N           0.1125   -0.9859    0.6857 N.ar    1  LIG1       -0.3563
      6 H           0.1338   -1.9843    0.8100 H       1  LIG1        0.1655
      7 H           2.1929   -0.5443    0.8608 H       1  LIG1        0.0811
      8 C           1.6235    2.3754    0.3120 C.3     1  LIG1       -0.0348
      9 H           1.6269    2.9366    1.2488 H       1  LIG1        0.0279
     10 H           1.2172    3.0159   -0.4713 H       1  LIG1        0.0279
     11 H           2.6532    2.1233    0.0600 H       1  LIG1        0.0279
     12 O          -1.4768    2.0798   -0.0387 O.3     1  LIG1       -0.4927
     13 C          -1.8821    2.8133    1.1161 C.3     1  LIG1        0.0789
     14 H          -2.5198    3.6223    0.7640 H       1  LIG1        0.0660
     15 H          -2.4317    2.1605    1.7983 H       1  LIG1        0.0660
     16 H          -1.0096    3.2238    1.6271 H       1  LIG1        0.0660
     17 C          -2.3591   -0.8275    0.3208 C.ar    1  LIG1        0.0735
     18 C          -2.8746   -2.0757    0.6195 C.ar    1  LIG1        0.0187
     19 C          -4.2534   -2.0152    0.2799 C.ar    1  LIG1        0.1502
     20 C          -4.5408   -0.7527   -0.2021 C.ar    1  LIG1        0.1062
     21 N          -3.3690   -0.0447   -0.1619 N.ar    1  LIG1       -0.3486
     22 H          -3.1996    0.8756   -0.5481 H       1  LIG1        0.1661
     23 C          -2.1807   -3.2785    1.2057 C.3     1  LIG1       -0.0341
     24 H          -1.6128   -3.0100    2.0997 H       1  LIG1        0.0279
     25 H          -1.5096   -3.7492    0.4818 H       1  LIG1        0.0279
     26 H          -2.9371   -4.0131    1.4813 H       1  LIG1        0.0279
     27 O          -5.1325   -3.0490    0.4460 O.3     1  LIG1       -0.4927
     28 C          -6.0918   -2.8246    1.4756 C.3     1  LIG1        0.0789
     29 H          -6.6777   -3.7384    1.5534 H       1  LIG1        0.0660
     30 H          -5.5843   -2.6213    2.4212 H       1  LIG1        0.0660
     31 H          -6.7395   -1.9854    1.2127 H       1  LIG1        0.0660
     32 C          -5.8032   -0.1755   -0.6460 C.ar    1  LIG1        0.0735
     33 C          -6.8210   -0.7370   -1.3935 C.ar    1  LIG1        0.0187
     34 C          -7.8038    0.2808   -1.5202 C.ar    1  LIG1        0.1502
     35 C          -7.3740    1.4151   -0.8625 C.ar    1  LIG1        0.1062
     36 N          -6.1484    1.1167   -0.3384 N.ar    1  LIG1       -0.3486
     37 H          -5.6004    1.7374    0.2350 H       1  LIG1        0.1661
     38 C          -6.8681   -2.1153   -2.0002 C.3     1  LIG1       -0.0341
     39 H          -7.2686   -2.8487   -1.2966 H       1  LIG1        0.0279
     40 H          -5.8631   -2.4351   -2.2751 H       1  LIG1        0.0279
     41 H          -7.5009   -2.0917   -2.8882 H       1  LIG1        0.0279
     42 O          -8.9924    0.1888   -2.2060 O.3     1  LIG1       -0.4927
     43 C         -10.0285   -0.4086   -1.4268 C.3     1  LIG1        0.0789
     44 H         -10.9076   -0.4637   -2.0654 H       1  LIG1        0.0660
     45 H          -9.7294   -1.4111   -1.1144 H       1  LIG1        0.0660
     46 H         -10.2337    0.2061   -0.5480 H       1  LIG1        0.0660
     47 C          -8.0333    2.7077   -0.7429 C.ar    1  LIG1        0.0730
     48 C          -7.7875    3.7953    0.0730 C.ar    1  LIG1        0.0180
     49 C          -8.7716    4.7631   -0.2709 C.ar    1  LIG1        0.1408
     50 C          -9.5770    4.2465   -1.2629 C.ar    1  LIG1        0.0447
     51 N          -9.1062    2.9890   -1.5339 N.ar    1  LIG1       -0.3561
     52 H          -9.4494    2.3369   -2.2256 H       1  LIG1        0.1655
     53 H         -10.4206    4.6588   -1.7855 H       1  LIG1        0.0844
     54 C          -6.7307    3.9715    1.1340 C.3     1  LIG1       -0.0342
     55 H          -6.6970    3.1082    1.8036 H       1  LIG1        0.0279
     56 H          -6.9721    4.8543    1.7248 H       1  LIG1        0.0279
     57 H          -5.7398    4.1236    0.6957 H       1  LIG1        0.0279
     58 O          -8.8330    5.9747    0.3455 O.3     1  LIG1       -0.4933
     59 C          -9.8798    6.8131   -0.0941 C.3     1  LIG1        0.0789
     60 H          -9.8069    7.7320    0.4818 H       1  LIG1        0.0660
     61 H          -9.7701    7.0333   -1.1603 H       1  LIG1        0.0660
     62 H         -10.8489    6.3372    0.0835 H       1  LIG1        0.0660
@<TRIPOS>BOND
     1    41    38    1
     2    40    38    1
     3    52    51    1
     4    42    34    1
     5    42    43    1
     6    44    43    1
     7    38    33    1
     8    38    39    1
     9    53    50    1
    10    51    50   ar
    11    51    47   ar
    12    34    33   ar
    13    34    35   ar
    14    43    45    1
    15    43    46    1
    16    33    32   ar
    17    50    49   ar
    18    61    59    1
    19    35    47    1
    20    35    36   ar
    21    47    48   ar
    22    32    36   ar
    23    32    20    1
    24    22    21    1
    25    10     8    1
    26    36    37    1
    27    49    48   ar
    28    49    58    1
    29    20    21   ar
    30    20    19   ar
    31    21    17   ar
    32    59    62    1
    33    59    58    1
    34    59    60    1
    35    12     3    1
    36    12    13    1
    37    11     8    1
    38    48    54    1
    39     3     2   ar
    40     3     4   ar
    41    19    27    1
    42    19    18   ar
    43     8     2    1
    44     8     9    1
    45    17     4    1
    46    17    18   ar
    47     2     1   ar
    48     4     5   ar
    49    27    28    1
    50    25    23    1
    51    18    23    1
    52     1     5   ar
    53     1     7    1
    54     5     6    1
    55    57    54    1
    56    14    13    1
    57    13    16    1
    58    13    15    1
    59    54    56    1
    60    54    55    1
    61    23    26    1
    62    23    24    1
    63    31    28    1
    64    28    29    1
    65    28    30    1
