@<TRIPOS>MOLECULE
mol_data/opt/m06hf/geoms/mol2/13la13la13la-13la-.out
 50 53 0 0 0
SMALL
GASTEIGER

@<TRIPOS>ATOM
      1 C           1.3266   -0.2562   -0.4235 C.ar    1  LIG1        0.0444
      2 C           1.1108    0.6905    0.5530 C.ar    1  LIG1        0.1379
      3 C          -0.2480    0.6066    0.9655 C.ar    1  LIG1        0.0069
      4 C          -0.8226   -0.3974    0.2192 C.ar    1  LIG1        0.0701
      5 N           0.1331   -0.9139   -0.6094 N.ar    1  LIG1       -0.3564
      6 H          -0.0528   -1.5723   -1.3477 H       1  LIG1        0.1655
      7 H           2.2047   -0.5160   -0.9860 H       1  LIG1        0.0844
      8 O           1.9928    1.5715    1.0930 O.3     1  LIG1       -0.4936
      9 C           3.3132    1.4621    0.6077 C.3     1  LIG1        0.0789
     10 H           3.9041    2.2011    1.1422 H       1  LIG1        0.0660
     11 H           3.7076    0.4594    0.7986 H       1  LIG1        0.0660
     12 H           3.3446    1.6698   -0.4666 H       1  LIG1        0.0660
     13 H          -0.7333    1.1891    1.7294 H       1  LIG1        0.0676
     14 C          -2.1943   -0.8950    0.2169 C.ar    1  LIG1        0.1057
     15 C          -3.3804   -0.2237    0.4371 C.ar    1  LIG1        0.1473
     16 C          -4.4487   -1.1470    0.2966 C.ar    1  LIG1        0.0076
     17 C          -3.8728   -2.3693    0.0040 C.ar    1  LIG1        0.0706
     18 N          -2.5207   -2.1985   -0.0475 N.ar    1  LIG1       -0.3488
     19 H          -1.8844   -2.9774   -0.1612 H       1  LIG1        0.1661
     20 O          -3.5091    1.1048    0.7299 O.3     1  LIG1       -0.4929
     21 C          -3.3345    1.9526   -0.4021 C.3     1  LIG1        0.0789
     22 H          -3.5113    2.9683   -0.0552 H       1  LIG1        0.0660
     23 H          -2.3182    1.8611   -0.7892 H       1  LIG1        0.0660
     24 H          -4.0558    1.6899   -1.1798 H       1  LIG1        0.0660
     25 H          -5.4955   -0.9178    0.4074 H       1  LIG1        0.0676
     26 C          -4.4383   -3.6920   -0.2045 C.ar    1  LIG1        0.1057
     27 C          -3.8011   -4.8767   -0.5101 C.ar    1  LIG1        0.1473
     28 C          -4.7748   -5.9080   -0.5921 C.ar    1  LIG1        0.0076
     29 C          -5.9900   -5.3120   -0.3237 C.ar    1  LIG1        0.0705
     30 N          -5.7740   -3.9809   -0.1021 N.ar    1  LIG1       -0.3488
     31 H          -6.4618   -3.3465    0.2713 H       1  LIG1        0.1661
     32 O          -2.4472   -4.9456   -0.6986 O.3     1  LIG1       -0.4929
     33 C          -1.9198   -6.2588   -0.7850 C.3     1  LIG1        0.0789
     34 H          -0.8404   -6.1523   -0.8591 H       1  LIG1        0.0660
     35 H          -2.1809   -6.8298    0.1083 H       1  LIG1        0.0660
     36 H          -2.3036   -6.7625   -1.6752 H       1  LIG1        0.0660
     37 H          -4.6403   -6.9513   -0.8188 H       1  LIG1        0.0676
     38 C          -7.3255   -5.8926   -0.2629 C.ar    1  LIG1        0.1052
     39 C          -7.7435   -7.1144    0.2191 C.ar    1  LIG1        0.1467
     40 C          -9.1588   -7.1891    0.0689 C.ar    1  LIG1       -0.0019
     41 C          -9.5525   -6.0026   -0.5080 C.ar    1  LIG1        0.0058
     42 N          -8.4500   -5.2323   -0.7000 N.ar    1  LIG1       -0.3566
     43 H          -8.4280   -4.3596   -1.2024 H       1  LIG1        0.1655
     44 H         -10.5311   -5.6622   -0.7968 H       1  LIG1        0.0808
     45 O          -6.8857   -8.0308    0.7403 O.3     1  LIG1       -0.4929
     46 C          -7.4960   -9.1769    1.2993 C.3     1  LIG1        0.0789
     47 H          -6.6913   -9.7832    1.7065 H       1  LIG1        0.0660
     48 H          -8.1876   -8.8931    2.0970 H       1  LIG1        0.0660
     49 H          -8.0319   -9.7409    0.5308 H       1  LIG1        0.0660
     50 H          -9.8094   -7.9984    0.3515 H       1  LIG1        0.0669
@<TRIPOS>BOND
     1    36    33    1
     2     6     5    1
     3    43    42    1
     4    24    21    1
     5     7     1    1
     6    34    33    1
     7    37    28    1
     8    44    41    1
     9    23    21    1
    10    33    32    1
    11    33    35    1
    12    42    41   ar
    13    42    38   ar
    14    32    27    1
    15     5     1   ar
    16     5     4   ar
    17    28    27   ar
    18    28    29   ar
    19    27    26   ar
    20    41    40   ar
    21    12     9    1
    22     1     2   ar
    23    21    22    1
    24    21    20    1
    25    29    38    1
    26    29    30   ar
    27    38    39   ar
    28    26    30   ar
    29    26    17    1
    30    19    18    1
    31    30    31    1
    32    18    17   ar
    33    18    14   ar
    34    17    16   ar
    35    40    39   ar
    36    40    50    1
    37    14     4    1
    38    14    15   ar
    39    39    45    1
    40     4     3   ar
    41    16    25    1
    42    16    15   ar
    43    15    20    1
    44    49    46    1
    45     2     3   ar
    46     2     8    1
    47     9    11    1
    48     9     8    1
    49     9    10    1
    50    45    46    1
    51     3    13    1
    52    46    47    1
    53    46    48    1
