@<TRIPOS>MOLECULE
mol_data/opt/m06hf/geoms/mol2/13la13la-13la-13la.out
 50 53 0 0 0
SMALL
GASTEIGER

@<TRIPOS>ATOM
      1 C           1.2540   -0.7266   -0.0974 C.ar    1  LIG1        0.0444
      2 C           0.9248    0.5338   -0.5472 C.ar    1  LIG1        0.1379
      3 C          -0.4911    0.6468   -0.5620 C.ar    1  LIG1        0.0069
      4 C          -0.9820   -0.5649   -0.1161 C.ar    1  LIG1        0.0701
      5 N           0.0737   -1.3765    0.1573 N.ar    1  LIG1       -0.3564
      6 H          -0.0441   -2.3172    0.5051 H       1  LIG1        0.1655
      7 H           2.2041   -1.2033    0.0596 H       1  LIG1        0.0844
      8 O           1.7506    1.5477   -0.9242 O.3     1  LIG1       -0.4936
      9 C           3.1262    1.2493   -0.8348 C.3     1  LIG1        0.0789
     10 H           3.6608    2.1397   -1.1561 H       1  LIG1        0.0660
     11 H           3.3974    1.0037    0.1967 H       1  LIG1        0.0660
     12 H           3.3782    0.4083   -1.4884 H       1  LIG1        0.0660
     13 H          -1.0461    1.5186   -0.8635 H       1  LIG1        0.0676
     14 C          -2.3396   -1.0493    0.0859 C.ar    1  LIG1        0.1057
     15 C          -2.7715   -2.2736    0.5534 C.ar    1  LIG1        0.1473
     16 C          -4.1915   -2.2762    0.5777 C.ar    1  LIG1        0.0076
     17 C          -4.5856   -1.0366    0.1131 C.ar    1  LIG1        0.0706
     18 N          -3.4647   -0.3121   -0.1744 N.ar    1  LIG1       -0.3488
     19 H          -3.4641    0.5826   -0.6370 H       1  LIG1        0.1661
     20 O          -1.8952   -3.2566    0.9245 O.3     1  LIG1       -0.4929
     21 C          -2.4926   -4.4772    1.3230 C.3     1  LIG1        0.0789
     22 H          -1.6774   -5.1565    1.5585 H       1  LIG1        0.0660
     23 H          -3.1155   -4.3237    2.2072 H       1  LIG1        0.0660
     24 H          -3.0968   -4.8853    0.5094 H       1  LIG1        0.0660
     25 H          -4.8646   -3.0542    0.8925 H       1  LIG1        0.0676
     26 C          -5.9206   -0.4848   -0.0655 C.ar    1  LIG1        0.1057
     27 C          -7.0999   -1.1062   -0.4237 C.ar    1  LIG1        0.1473
     28 C          -8.1216   -0.1199   -0.4895 C.ar    1  LIG1        0.0076
     29 C          -7.5203    1.0840   -0.1600 C.ar    1  LIG1        0.0705
     30 N          -6.2069    0.8480    0.0899 N.ar    1  LIG1       -0.3488
     31 H          -5.5849    1.5662    0.4377 H       1  LIG1        0.1661
     32 O          -7.1830   -2.4420   -0.6643 O.3     1  LIG1       -0.4929
     33 C          -8.4284   -2.8860   -1.1622 C.3     1  LIG1        0.0789
     34 H          -8.3214   -3.9513   -1.3499 H       1  LIG1        0.0660
     35 H          -9.2193   -2.7191   -0.4255 H       1  LIG1        0.0660
     36 H          -8.6759   -2.3683   -2.0926 H       1  LIG1        0.0660
     37 H          -9.1560   -0.2685   -0.7489 H       1  LIG1        0.0676
     38 C          -8.0479    2.4345   -0.0360 C.ar    1  LIG1        0.1052
     39 C          -7.3881    3.5962    0.3065 C.ar    1  LIG1        0.1467
     40 C          -8.3269    4.6647    0.3043 C.ar    1  LIG1       -0.0019
     41 C          -9.5375    4.1077   -0.0438 C.ar    1  LIG1        0.0058
     42 N          -9.3574    2.7752   -0.2442 N.ar    1  LIG1       -0.3566
     43 H         -10.0759    2.1223   -0.5082 H       1  LIG1        0.1655
     44 H         -10.5027    4.5673   -0.1631 H       1  LIG1        0.0808
     45 O          -6.0483    3.6127    0.5818 O.3     1  LIG1       -0.4929
     46 C          -5.5216    4.8702    0.9678 C.3     1  LIG1        0.0789
     47 H          -4.4636    4.7147    1.1603 H       1  LIG1        0.0660
     48 H          -5.6506    5.5972    0.1628 H       1  LIG1        0.0660
     49 H          -6.0170    5.2248    1.8747 H       1  LIG1        0.0660
     50 H          -8.1498    5.7026    0.5267 H       1  LIG1        0.0669
@<TRIPOS>BOND
     1    36    33    1
     2    12     9    1
     3    34    33    1
     4    33    32    1
     5    33    35    1
     6    10     9    1
     7     8     9    1
     8     8     2    1
     9    13     3    1
    10     9    11    1
    11    37    28    1
    12    32    27    1
    13    19    18    1
    14     3     2   ar
    15     3     4   ar
    16     2     1   ar
    17    43    42    1
    18    28    27   ar
    19    28    29   ar
    20    27    26   ar
    21    42    41   ar
    22    42    38   ar
    23    18    14   ar
    24    18    17   ar
    25    44    41    1
    26    29    38    1
    27    29    30   ar
    28     4    14    1
    29     4     5   ar
    30     1     7    1
    31     1     5   ar
    32    26    30   ar
    33    26    17    1
    34    41    40   ar
    35    38    39   ar
    36    14    15   ar
    37    30    31    1
    38    17    16   ar
    39     5     6    1
    40    48    46    1
    41    40    39   ar
    42    40    50    1
    43    39    45    1
    44    24    21    1
    45    15    16   ar
    46    15    20    1
    47    16    25    1
    48    45    46    1
    49    20    21    1
    50    46    47    1
    51    46    49    1
    52    21    22    1
    53    21    23    1
