@<TRIPOS>MOLECULE
mol_data/opt/m06hf/geoms/mol2/13la13la.out
 26 27 0 0 0
SMALL
GASTEIGER

@<TRIPOS>ATOM
      1 C           1.5763   -0.4937    0.2870 C.ar    1  LIG1        0.0444
      2 C           1.3309    0.6951   -0.3626 C.ar    1  LIG1        0.1379
      3 C          -0.0676    0.7925   -0.6066 C.ar    1  LIG1        0.0069
      4 C          -0.6364   -0.3464   -0.0884 C.ar    1  LIG1        0.0701
      5 N           0.3607   -1.1203    0.4393 N.ar    1  LIG1       -0.3564
      6 H           0.1995   -1.9288    1.0163 H       1  LIG1        0.1655
      7 H           2.4873   -0.9378    0.6445 H       1  LIG1        0.0844
      8 O           2.2164    1.6489   -0.7525 O.3     1  LIG1       -0.4936
      9 C           3.5675    1.3523   -0.4770 C.3     1  LIG1        0.0789
     10 H           4.1526    2.1888   -0.8504 H       1  LIG1        0.0660
     11 H           3.7242    1.2426    0.6007 H       1  LIG1        0.0660
     12 H           3.8679    0.4311   -0.9853 H       1  LIG1        0.0660
     13 H          -0.5838    1.5918   -1.1084 H       1  LIG1        0.0676
     14 C          -2.0299   -0.7810   -0.0585 C.ar    1  LIG1        0.1052
     15 C          -3.1891   -0.0628    0.1376 C.ar    1  LIG1        0.1467
     16 C          -4.2874   -0.9709    0.0900 C.ar    1  LIG1       -0.0019
     17 C          -3.7520   -2.2181   -0.1397 C.ar    1  LIG1        0.0058
     18 N          -2.4012   -2.0957   -0.2226 N.ar    1  LIG1       -0.3566
     19 H          -1.7658   -2.8250   -0.5022 H       1  LIG1        0.1655
     20 H          -4.2371   -3.1712   -0.2563 H       1  LIG1        0.0808
     21 O          -3.1966    1.2803    0.3417 O.3     1  LIG1       -0.4929
     22 C          -4.4642    1.8436    0.6089 C.3     1  LIG1        0.0789
     23 H          -4.2972    2.9047    0.7745 H       1  LIG1        0.0660
     24 H          -5.1351    1.7037   -0.2431 H       1  LIG1        0.0660
     25 H          -4.9046    1.3934    1.5027 H       1  LIG1        0.0660
     26 H          -5.3328   -0.7473    0.2134 H       1  LIG1        0.0669
@<TRIPOS>BOND
     1    13     3    1
     2    12     9    1
     3    10     9    1
     4     8     9    1
     5     8     2    1
     6     3     2   ar
     7     3     4   ar
     8    19    18    1
     9     9    11    1
    10     2     1   ar
    11    20    17    1
    12    24    22    1
    13    18    17   ar
    14    18    14   ar
    15    17    16   ar
    16     4    14    1
    17     4     5   ar
    18    14    15   ar
    19    16    15   ar
    20    16    26    1
    21    15    21    1
    22     1     5   ar
    23     1     7    1
    24    21    22    1
    25     5     6    1
    26    22    23    1
    27    22    25    1
