@<TRIPOS>MOLECULE
mol_data/opt/m06hf/geoms/mol2/13la12ff-6ai4li-.out
 50 53 0 0 0
SMALL
GASTEIGER

@<TRIPOS>ATOM
      1 C           1.3988   -0.2597   -0.2006 C.ar    1  LIG1        0.0444
      2 C           1.0165    1.0559   -0.0431 C.ar    1  LIG1        0.1379
      3 C          -0.3983    1.0967    0.0587 C.ar    1  LIG1        0.0054
      4 C          -0.8405   -0.2045   -0.0443 C.ar    1  LIG1        0.0512
      5 N           0.2521   -1.0087   -0.2128 N.ar    1  LIG1       -0.3576
      6 H           0.2241   -2.0153   -0.2039 H       1  LIG1        0.1654
      7 H           2.3680   -0.7148   -0.2946 H       1  LIG1        0.0844
      8 O           1.7928    2.1674    0.0072 O.3     1  LIG1       -0.4936
      9 C           3.1817    1.9278   -0.0768 C.3     1  LIG1        0.0789
     10 H           3.6686    2.8977   -0.0175 H       1  LIG1        0.0660
     11 H           3.5102    1.2953    0.7537 H       1  LIG1        0.0660
     12 H           3.4299    1.4451   -1.0270 H       1  LIG1        0.0660
     13 H          -1.0051    1.9780    0.1687 H       1  LIG1        0.0675
     14 C          -3.2353   -0.2828    0.7539 C.ar    1  LIG1        0.0344
     15 C          -4.5047   -0.8684    0.7064 C.ar    1  LIG1       -0.0367
     16 C          -2.1990   -0.7726   -0.0613 C.ar    1  LIG1        0.0150
     17 C          -4.7778   -1.9466   -0.1271 C.ar    1  LIG1        0.0033
     18 H          -5.2810   -0.4841    1.3549 H       1  LIG1        0.0636
     19 C          -2.4822   -1.8399   -0.9172 C.ar    1  LIG1       -0.0335
     20 C          -3.7444   -2.4239   -0.9447 C.ar    1  LIG1        0.0602
     21 H          -1.7241   -2.1975   -1.6017 H       1  LIG1        0.0637
     22 C          -3.0302    0.8079    1.6761 C.1     1  LIG1       -0.0690
     23 C          -2.9111    1.7105    2.4600 C.1     1  LIG1       -0.1139
     24 H          -2.7894    2.5104    3.1536 H       1  LIG1        0.1232
     25 N          -4.1490   -4.3453   -2.6442 N.1     1  LIG1       -0.1908
     26 C          -3.9858   -3.5028   -1.8827 C.1     1  LIG1        0.0998
     27 C          -6.3903   -3.8711    0.2063 C.ar    1  LIG1        0.1215
     28 C          -6.1452   -2.5363   -0.1569 C.ar    1  LIG1        0.0173
     29 C          -7.2456   -1.7610   -0.5100 C.ar    1  LIG1       -0.0493
     30 C          -8.5157   -2.3217   -0.5217 C.ar    1  LIG1       -0.0350
     31 C          -8.6472   -3.6719   -0.1869 C.ar    1  LIG1        0.0738
     32 N          -7.6042   -4.4110    0.1874 N.ar    1  LIG1       -0.2378
     33 H          -7.1033   -0.7224   -0.7812 H       1  LIG1        0.0625
     34 C          -5.3057   -4.7197    0.6615 C.1     1  LIG1       -0.0492
     35 C          -4.4030   -5.4097    1.0483 C.1     1  LIG1       -0.1124
     36 H          -3.6060   -6.0316    1.3846 H       1  LIG1        0.1232
     37 H          -9.3728   -1.7205   -0.7839 H       1  LIG1        0.0639
     38 C         -11.0653   -4.0537   -0.9588 C.ar    1  LIG1        0.0611
     39 C         -12.2625   -4.7728   -0.8533 C.ar    1  LIG1       -0.0403
     40 C          -9.9662   -4.3858   -0.1546 C.ar    1  LIG1        0.0212
     41 C         -12.3782   -5.8222    0.0384 C.ar    1  LIG1       -0.0189
     42 H         -13.0934   -4.5004   -1.4898 H       1  LIG1        0.0632
     43 C         -10.0869   -5.4561    0.7289 C.ar    1  LIG1       -0.0098
     44 C         -11.2786   -6.1672    0.8270 C.ar    1  LIG1        0.1176
     45 H          -9.2239   -5.7269    1.3254 H       1  LIG1        0.0661
     46 H         -13.2919   -6.3915    0.1362 H       1  LIG1        0.0654
     47 N         -11.0219   -2.1769   -2.7508 N.1     1  LIG1       -0.1908
     48 C         -11.0171   -3.0057   -1.9559 C.1     1  LIG1        0.0998
     49 O         -11.4306   -7.2083    1.6774 O.3     1  LIG1       -0.5067
     50 H         -10.6153   -7.3801    2.1609 H       1  LIG1        0.2921
@<TRIPOS>BOND
     1    47    48    3
     2    25    26    3
     3    48    38    1
     4    26    20    1
     5    21    19    1
     6    42    39    1
     7    12     9    1
     8    38    39   ar
     9    38    40   ar
    10    20    19   ar
    11    20    17   ar
    12    19    16   ar
    13    39    41   ar
    14    37    30    1
    15    33    29    1
    16    30    29   ar
    17    30    31   ar
    18    29    28   ar
    19     7     1    1
    20     5     6    1
    21     5     1   ar
    22     5     4   ar
    23     1     2   ar
    24    31    40    1
    25    31    32   ar
    26    28    17    1
    27    28    27   ar
    28    40    43   ar
    29    17    15   ar
    30     9    10    1
    31     9     8    1
    32     9    11    1
    33    16     4    1
    34    16    14   ar
    35     4     3   ar
    36     2     8    1
    37     2     3   ar
    38    41    46    1
    39    41    44   ar
    40     3    13    1
    41    32    27   ar
    42    27    34    1
    43    34    35    3
    44    15    14   ar
    45    15    18    1
    46    43    44   ar
    47    43    45    1
    48    14    22    1
    49    44    49    1
    50    35    36    1
    51    22    23    3
    52    49    50    1
    53    23    24    1
