@<TRIPOS>MOLECULE
mol_data/opt/m06hf/geoms/mol2/13la13la13la13la.out
 50 53 0 0 0
SMALL
GASTEIGER

@<TRIPOS>ATOM
      1 C           1.9702   -0.1893   -0.3444 C.ar    1  LIG1        0.0444
      2 C           1.6913    1.0368    0.2159 C.ar    1  LIG1        0.1379
      3 C           0.2838    1.1395    0.3947 C.ar    1  LIG1        0.0069
      4 C          -0.2573   -0.0357   -0.0708 C.ar    1  LIG1        0.0701
      5 N           0.7658   -0.8354   -0.5028 N.ar    1  LIG1       -0.3564
      6 H           0.6285   -1.6784   -1.0346 H       1  LIG1        0.1655
      7 H           2.8979   -0.6469   -0.6355 H       1  LIG1        0.0844
      8 O           2.5564    2.0204    0.5785 O.3     1  LIG1       -0.4936
      9 C           3.9113    1.7491    0.2957 C.3     1  LIG1        0.0789
     10 H           4.4775    2.6186    0.6196 H       1  LIG1        0.0660
     11 H           4.2465    0.8632    0.8437 H       1  LIG1        0.0660
     12 H           4.0536    1.5903   -0.7776 H       1  LIG1        0.0660
     13 H          -0.2573    1.9661    0.8201 H       1  LIG1        0.0676
     14 C          -1.6440   -0.4806   -0.1426 C.ar    1  LIG1        0.1057
     15 C          -2.7935    0.2113   -0.4519 C.ar    1  LIG1        0.1473
     16 C          -3.8919   -0.6962   -0.3991 C.ar    1  LIG1        0.0076
     17 C          -3.3692   -1.9226   -0.0462 C.ar    1  LIG1        0.0706
     18 N          -2.0149   -1.7897    0.0899 N.ar    1  LIG1       -0.3488
     19 H          -1.4321   -2.4441    0.5882 H       1  LIG1        0.1661
     20 O          -2.7922    1.5319   -0.7627 O.3     1  LIG1       -0.4929
     21 C          -4.0455    2.0680   -1.1381 C.3     1  LIG1        0.0789
     22 H          -3.8697    3.1145   -1.3730 H       1  LIG1        0.0660
     23 H          -4.4377    1.5508   -2.0177 H       1  LIG1        0.0660
     24 H          -4.7600    1.9877   -0.3149 H       1  LIG1        0.0660
     25 H          -4.9335   -0.5112   -0.5963 H       1  LIG1        0.0676
     26 C          -4.0448   -3.1901    0.1818 C.ar    1  LIG1        0.1057
     27 C          -5.3411   -3.4416    0.5755 C.ar    1  LIG1        0.1473
     28 C          -5.5115   -4.8524    0.6819 C.ar    1  LIG1        0.0076
     29 C          -4.3053   -5.4201    0.3349 C.ar    1  LIG1        0.0705
     30 N          -3.4229   -4.4131    0.0483 N.ar    1  LIG1       -0.3488
     31 H          -2.5765   -4.5528   -0.4814 H       1  LIG1        0.1661
     32 O          -6.2356   -2.4507    0.8229 O.3     1  LIG1       -0.4929
     33 C          -7.4840   -2.8788    1.3326 C.3     1  LIG1        0.0789
     34 H          -8.0669   -1.9781    1.5067 H       1  LIG1        0.0660
     35 H          -7.9951   -3.5179    0.6080 H       1  LIG1        0.0660
     36 H          -7.3481   -3.4210    2.2716 H       1  LIG1        0.0660
     37 H          -6.3842   -5.4051    0.9831 H       1  LIG1        0.0676
     38 C          -3.9116   -6.8214    0.2572 C.ar    1  LIG1        0.1052
     39 C          -4.6118   -7.9275   -0.1746 C.ar    1  LIG1        0.1467
     40 C          -3.7612   -9.0649   -0.0557 C.ar    1  LIG1       -0.0019
     41 C          -2.5658   -8.6065    0.4506 C.ar    1  LIG1        0.0058
     42 N          -2.6631   -7.2636    0.6301 N.ar    1  LIG1       -0.3566
     43 H          -1.9794   -6.6840    1.0882 H       1  LIG1        0.1655
     44 H          -1.6659   -9.1414    0.6987 H       1  LIG1        0.0808
     45 O          -5.8895   -7.8566   -0.6311 O.3     1  LIG1       -0.4929
     46 C          -6.4454   -9.0839   -1.0590 C.3     1  LIG1        0.0789
     47 H          -7.4524   -8.8604   -1.4007 H       1  LIG1        0.0660
     48 H          -5.8603   -9.5053   -1.8810 H       1  LIG1        0.0660
     49 H          -6.4842   -9.7973   -0.2310 H       1  LIG1        0.0660
     50 H          -3.9860  -10.0857   -0.3116 H       1  LIG1        0.0669
@<TRIPOS>BOND
     1    23    21    1
     2    48    46    1
     3    47    46    1
     4    22    21    1
     5    21    20    1
     6    21    24    1
     7    46    45    1
     8    46    49    1
     9     6     5    1
    10    12     9    1
    11    20    15    1
    12     7     1    1
    13    45    39    1
    14    25    16    1
    15     5     1   ar
    16     5     4   ar
    17    31    30    1
    18    15    16   ar
    19    15    14   ar
    20    16    17   ar
    21     1     2   ar
    22    50    40    1
    23    39    40   ar
    24    39    38   ar
    25    14     4    1
    26    14    18   ar
    27     4     3   ar
    28    40    41   ar
    29    17    18   ar
    30    17    26    1
    31    30    26   ar
    32    30    29   ar
    33    18    19    1
    34    26    27   ar
    35     2     3   ar
    36     2     8    1
    37    38    29    1
    38    38    42   ar
    39     9     8    1
    40     9    10    1
    41     9    11    1
    42    29    28   ar
    43     3    13    1
    44    41    42   ar
    45    41    44    1
    46    27    28   ar
    47    27    32    1
    48    35    33    1
    49    42    43    1
    50    28    37    1
    51    32    33    1
    52    33    34    1
    53    33    36    1
