@<TRIPOS>MOLECULE
mol_data/opt/m06hf/geoms/mol2/13la13la-13la-13la-.out
 50 53 0 0 0
SMALL
GASTEIGER

@<TRIPOS>ATOM
      1 C           1.1905   -0.5079   -0.4675 C.ar    1  LIG1        0.0444
      2 C           0.8314    0.7969   -0.7296 C.ar    1  LIG1        0.1379
      3 C          -0.5720    0.9181   -0.5495 C.ar    1  LIG1        0.0069
      4 C          -1.0261   -0.3337   -0.1828 C.ar    1  LIG1        0.0701
      5 N           0.0395   -1.1764   -0.1379 N.ar    1  LIG1       -0.3564
      6 H          -0.0491   -2.1475    0.1258 H       1  LIG1        0.1655
      7 H           2.1438   -1.0035   -0.4877 H       1  LIG1        0.0844
      8 O           1.6201    1.8421   -1.0987 O.3     1  LIG1       -0.4936
      9 C           2.9859    1.5231   -1.2501 C.3     1  LIG1        0.0789
     10 H           3.4895    2.4388   -1.5492 H       1  LIG1        0.0660
     11 H           3.4011    1.1623   -0.3041 H       1  LIG1        0.0660
     12 H           3.1160    0.7582   -2.0218 H       1  LIG1        0.0660
     13 H          -1.1429    1.8227   -0.6727 H       1  LIG1        0.0676
     14 C          -2.3589   -0.8291    0.1280 C.ar    1  LIG1        0.1057
     15 C          -2.7493   -2.0753    0.5706 C.ar    1  LIG1        0.1473
     16 C          -4.1614   -2.0788    0.7294 C.ar    1  LIG1        0.0076
     17 C          -4.5932   -0.8196    0.3646 C.ar    1  LIG1        0.0706
     18 N          -3.4998   -0.0789    0.0115 N.ar    1  LIG1       -0.3488
     19 H          -3.5394    0.8129   -0.4554 H       1  LIG1        0.1661
     20 O          -1.8481   -3.0790    0.7964 O.3     1  LIG1       -0.4929
     21 C          -2.4027   -4.2905    1.2774 C.3     1  LIG1        0.0789
     22 H          -1.5724   -4.9800    1.4050 H       1  LIG1        0.0660
     23 H          -2.9001   -4.1246    2.2358 H       1  LIG1        0.0660
     24 H          -3.1149   -4.6937    0.5542 H       1  LIG1        0.0660
     25 H          -4.8041   -2.8725    1.0680 H       1  LIG1        0.0676
     26 C          -5.9423   -0.2726    0.3203 C.ar    1  LIG1        0.1057
     27 C          -7.1342   -0.8745   -0.0292 C.ar    1  LIG1        0.1473
     28 C          -8.1706    0.0939    0.0706 C.ar    1  LIG1        0.0076
     29 C          -7.5729    1.2686    0.4812 C.ar    1  LIG1        0.0705
     30 N          -6.2371    1.0349    0.6296 N.ar    1  LIG1       -0.3488
     31 H          -5.5591    1.7250    0.9094 H       1  LIG1        0.1661
     32 O          -7.2142   -2.1817   -0.3908 O.3     1  LIG1       -0.4929
     33 C          -8.4900   -2.6080   -0.8270 C.3     1  LIG1        0.0789
     34 H          -8.3811   -3.6512   -1.1121 H       1  LIG1        0.0660
     35 H          -9.2226   -2.5195   -0.0204 H       1  LIG1        0.0660
     36 H          -8.8170   -2.0192   -1.6877 H       1  LIG1        0.0660
     37 H          -9.2220   -0.0184   -0.1283 H       1  LIG1        0.0676
     38 C          -8.1640    2.5749    0.7513 C.ar    1  LIG1        0.1052
     39 C          -9.1363    3.2683    0.0645 C.ar    1  LIG1        0.1467
     40 C          -9.3543    4.5082    0.7334 C.ar    1  LIG1       -0.0019
     41 C          -8.5015    4.5219    1.8141 C.ar    1  LIG1        0.0058
     42 N          -7.7899    3.3646    1.8146 N.ar    1  LIG1       -0.3566
     43 H          -7.1840    3.0550    2.5572 H       1  LIG1        0.1655
     44 H          -8.3605    5.2667    2.5774 H       1  LIG1        0.0808
     45 O          -9.7294    2.7802   -1.0561 O.3     1  LIG1       -0.4929
     46 C         -10.6624    3.6447   -1.6732 C.3     1  LIG1        0.0789
     47 H         -11.0233    3.1236   -2.5559 H       1  LIG1        0.0660
     48 H         -11.4981    3.8540   -0.9995 H       1  LIG1        0.0660
     49 H         -10.1824    4.5816   -1.9674 H       1  LIG1        0.0660
     50 H         -10.0388    5.2929    0.4608 H       1  LIG1        0.0669
@<TRIPOS>BOND
     1    47    46    1
     2    12     9    1
     3    49    46    1
     4    36    33    1
     5    46    45    1
     6    46    48    1
     7    10     9    1
     8     9     8    1
     9     9    11    1
    10    34    33    1
    11     8     2    1
    12    45    39    1
    13    33    32    1
    14    33    35    1
    15     2     3   ar
    16     2     1   ar
    17    13     3    1
    18     3     4   ar
    19     7     1    1
    20     1     5   ar
    21    19    18    1
    22    32    27    1
    23     4     5   ar
    24     4    14    1
    25     5     6    1
    26    37    28    1
    27    27    28   ar
    28    27    26   ar
    29    18    14   ar
    30    18    17   ar
    31    39    40   ar
    32    39    38   ar
    33    28    29   ar
    34    14    15   ar
    35    26    17    1
    36    26    30   ar
    37    17    16   ar
    38    50    40    1
    39    29    30   ar
    40    29    38    1
    41    24    21    1
    42    15    16   ar
    43    15    20    1
    44    30    31    1
    45    16    25    1
    46    40    41   ar
    47    38    42   ar
    48    20    21    1
    49    21    22    1
    50    21    23    1
    51    41    42   ar
    52    41    44    1
    53    42    43    1
