@<TRIPOS>MOLECULE
mol_data/opt/m06hf/geoms/mol2/13la13la-13la.out
 38 40 0 0 0
SMALL
GASTEIGER

@<TRIPOS>ATOM
      1 C           1.3907   -0.6877   -0.0895 C.ar    1  LIG1        0.0444
      2 C           1.0455    0.6462   -0.0619 C.ar    1  LIG1        0.1379
      3 C          -0.3710    0.7409   -0.0306 C.ar    1  LIG1        0.0069
      4 C          -0.8469   -0.5550   -0.0404 C.ar    1  LIG1        0.0701
      5 N           0.2186   -1.3997   -0.0756 N.ar    1  LIG1       -0.3564
      6 H           0.1113   -2.4040   -0.0887 H       1  LIG1        0.1655
      7 H           2.3466   -1.1772   -0.1170 H       1  LIG1        0.0844
      8 O           1.8568    1.7385   -0.0622 O.3     1  LIG1       -0.4936
      9 C           3.2367    1.4496   -0.0961 C.3     1  LIG1        0.0789
     10 H           3.7552    2.4051   -0.0923 H       1  LIG1        0.0660
     11 H           3.5272    0.8661    0.7827 H       1  LIG1        0.0660
     12 H           3.4891    0.8938   -1.0041 H       1  LIG1        0.0660
     13 H          -0.9383    1.6557   -0.0047 H       1  LIG1        0.0676
     14 C          -2.2005   -1.0903   -0.0201 C.ar    1  LIG1        0.1057
     15 C          -2.6216   -2.4051   -0.0308 C.ar    1  LIG1        0.1473
     16 C          -4.0404   -2.4268   -0.0017 C.ar    1  LIG1        0.0076
     17 C          -4.4403   -1.0998    0.0262 C.ar    1  LIG1        0.0705
     18 N          -3.3280   -0.3198    0.0146 N.ar    1  LIG1       -0.3488
     19 H          -3.3718    0.6910    0.0303 H       1  LIG1        0.1661
     20 O          -1.7384   -3.4505   -0.0645 O.3     1  LIG1       -0.4929
     21 C          -2.3264   -4.7370   -0.0712 C.3     1  LIG1        0.0789
     22 H          -1.5078   -5.4516   -0.0987 H       1  LIG1        0.0660
     23 H          -2.9202   -4.8871    0.8343 H       1  LIG1        0.0660
     24 H          -2.9574   -4.8609   -0.9551 H       1  LIG1        0.0660
     25 H          -4.6830   -3.2914   -0.0012 H       1  LIG1        0.0676
     26 C          -5.7577   -0.4827    0.0625 C.ar    1  LIG1        0.1052
     27 C          -6.0892    0.8556    0.0886 C.ar    1  LIG1        0.1467
     28 C          -7.5068    0.9681    0.1196 C.ar    1  LIG1       -0.0019
     29 C          -7.9923   -0.3206    0.1112 C.ar    1  LIG1        0.0058
     30 N          -6.9374   -1.1778    0.0770 N.ar    1  LIG1       -0.3566
     31 H          -7.0041   -2.1819    0.0642 H       1  LIG1        0.1655
     32 H          -9.0053   -0.6813    0.1271 H       1  LIG1        0.0808
     33 O          -5.1366    1.8363    0.0828 O.3     1  LIG1       -0.4929
     34 C          -5.6307    3.1634    0.1124 C.3     1  LIG1        0.0789
     35 H          -4.7612    3.8152    0.1037 H       1  LIG1        0.0660
     36 H          -6.2496    3.3557   -0.7674 H       1  LIG1        0.0660
     37 H          -6.2124    3.3297    1.0223 H       1  LIG1        0.0660
     38 H          -8.0983    1.8672    0.1447 H       1  LIG1        0.0669
@<TRIPOS>BOND
     1    12     9    1
     2    24    21    1
     3    36    34    1
     4     7     1    1
     5    22    21    1
     6     9    10    1
     7     9     8    1
     8     9    11    1
     9     1     5   ar
    10     1     2   ar
    11     6     5    1
    12     5     4   ar
    13    21    20    1
    14    21    23    1
    15    20    15    1
    16     8     2    1
    17     2     3   ar
    18     4     3   ar
    19     4    14    1
    20    15    14   ar
    21    15    16   ar
    22     3    13    1
    23    14    18   ar
    24    16    25    1
    25    16    17   ar
    26    18    17   ar
    27    18    19    1
    28    17    26    1
    29    26    30   ar
    30    26    27   ar
    31    31    30    1
    32    30    29   ar
    33    33    27    1
    34    33    34    1
    35    27    28   ar
    36    35    34    1
    37    29    28   ar
    38    29    32    1
    39    34    37    1
    40    28    38    1
