@<TRIPOS>MOLECULE
mol_data/opt/m06hf/geoms/mol2/13la13la13la13la-.out
 50 53 0 0 0
SMALL
GASTEIGER

@<TRIPOS>ATOM
      1 C           1.8940   -0.3236    0.2821 C.ar    1  LIG1        0.0444
      2 C           1.5093    0.9535    0.6227 C.ar    1  LIG1        0.1379
      3 C           0.0928    1.0371    0.5273 C.ar    1  LIG1        0.0069
      4 C          -0.3467   -0.2011    0.1218 C.ar    1  LIG1        0.0701
      5 N           0.7428   -1.0175   -0.0133 N.ar    1  LIG1       -0.3564
      6 H           0.7107   -1.9251   -0.4461 H       1  LIG1        0.1655
      7 H           2.8622   -0.7867    0.2242 H       1  LIG1        0.0844
      8 O           2.2840    1.9998    1.0131 O.3     1  LIG1       -0.4936
      9 C           3.6678    1.7311    1.0578 C.3     1  LIG1        0.0789
     10 H           4.1532    2.6482    1.3819 H       1  LIG1        0.0660
     11 H           3.8782    0.9274    1.7704 H       1  LIG1        0.0660
     12 H           4.0349    1.4461    0.0671 H       1  LIG1        0.0660
     13 H          -0.5210    1.8941    0.7395 H       1  LIG1        0.0676
     14 C          -1.6949   -0.6888   -0.1423 C.ar    1  LIG1        0.1057
     15 C          -2.7886   -0.0487   -0.6825 C.ar    1  LIG1        0.1473
     16 C          -3.8670   -0.9781   -0.7444 C.ar    1  LIG1        0.0076
     17 C          -3.3914   -2.1646   -0.2274 C.ar    1  LIG1        0.0706
     18 N          -2.0811   -1.9867    0.1200 N.ar    1  LIG1       -0.3488
     19 H          -1.5759   -2.6021    0.7390 H       1  LIG1        0.1661
     20 O          -2.7540    1.2465   -1.0877 O.3     1  LIG1       -0.4929
     21 C          -3.9732    1.7538   -1.5920 C.3     1  LIG1        0.0789
     22 H          -3.7875    2.7937   -1.8480 H       1  LIG1        0.0660
     23 H          -4.2806    1.2024   -2.4845 H       1  LIG1        0.0660
     24 H          -4.7580    1.6917   -0.8332 H       1  LIG1        0.0660
     25 H          -4.8637   -0.8321   -1.1225 H       1  LIG1        0.0676
     26 C          -4.0656   -3.4398   -0.0342 C.ar    1  LIG1        0.1057
     27 C          -5.3900   -3.7120    0.2443 C.ar    1  LIG1        0.1473
     28 C          -5.5390   -5.1203    0.3704 C.ar    1  LIG1        0.0076
     29 C          -4.2825   -5.6640    0.1577 C.ar    1  LIG1        0.0705
     30 N          -3.4148   -4.6469   -0.0801 N.ar    1  LIG1       -0.3488
     31 H          -2.4542   -4.8063   -0.3530 H       1  LIG1        0.1661
     32 O          -6.3287   -2.7371    0.3704 O.3     1  LIG1       -0.4929
     33 C          -7.6152   -3.1836    0.7469 C.3     1  LIG1        0.0789
     34 H          -8.2344   -2.2948    0.8345 H       1  LIG1        0.0660
     35 H          -8.0297   -3.8493   -0.0156 H       1  LIG1        0.0660
     36 H          -7.5754   -3.7034    1.7079 H       1  LIG1        0.0660
     37 H          -6.4420   -5.6638    0.5910 H       1  LIG1        0.0676
     38 C          -3.8101   -7.0399    0.1337 C.ar    1  LIG1        0.1052
     39 C          -2.5410   -7.5207   -0.1123 C.ar    1  LIG1        0.1467
     40 C          -2.5747   -8.9407   -0.0366 C.ar    1  LIG1       -0.0019
     41 C          -3.8778   -9.2760    0.2565 C.ar    1  LIG1        0.0058
     42 N          -4.6051   -8.1318    0.3560 N.ar    1  LIG1       -0.3566
     43 H          -5.5883   -8.0817    0.5638 H       1  LIG1        0.1655
     44 H          -4.3286  -10.2417    0.4022 H       1  LIG1        0.0808
     45 O          -1.4868   -6.6870   -0.3729 O.3     1  LIG1       -0.4929
     46 C          -0.2634   -7.3357   -0.6711 C.3     1  LIG1        0.0789
     47 H           0.4624   -6.5508   -0.8664 H       1  LIG1        0.0660
     48 H           0.0620   -7.9393    0.1793 H       1  LIG1        0.0660
     49 H          -0.3756   -7.9670   -1.5559 H       1  LIG1        0.0660
     50 H          -1.7615   -9.6315   -0.1772 H       1  LIG1        0.0669
@<TRIPOS>BOND
     1    23    21    1
     2    22    21    1
     3    21    20    1
     4    21    24    1
     5    49    46    1
     6    25    16    1
     7    20    15    1
     8    47    46    1
     9    16    15   ar
    10    16    17   ar
    11    15    14   ar
    12    46    45    1
    13    46    48    1
    14     6     5    1
    15    45    39    1
    16    31    30    1
    17    17    26    1
    18    17    18   ar
    19    50    40    1
    20    14    18   ar
    21    14     4    1
    22    39    40   ar
    23    39    38   ar
    24    30    26   ar
    25    30    29   ar
    26    40    41   ar
    27    26    27   ar
    28    35    33    1
    29     5     4   ar
    30     5     1   ar
    31    12     9    1
    32    18    19    1
    33     4     3   ar
    34    38    29    1
    35    38    42   ar
    36    29    28   ar
    37     7     1    1
    38    27    28   ar
    39    27    32    1
    40    41    42   ar
    41    41    44    1
    42     1     2   ar
    43    42    43    1
    44    28    37    1
    45    32    33    1
    46     3     2   ar
    47     3    13    1
    48     2     8    1
    49    33    34    1
    50    33    36    1
    51     8     9    1
    52     9    10    1
    53     9    11    1
