@<TRIPOS>MOLECULE
mol_data/opt/m06hf/geoms/mol2/13la13la13la-13la.out
 50 53 0 0 0
SMALL
GASTEIGER

@<TRIPOS>ATOM
      1 C           1.5680   -0.2619   -0.4397 C.ar    1  LIG1        0.0444
      2 C           1.3048    0.8142    0.3782 C.ar    1  LIG1        0.1379
      3 C          -0.0693    0.7732    0.7453 C.ar    1  LIG1        0.0069
      4 C          -0.6053   -0.3366    0.1314 C.ar    1  LIG1        0.0701
      5 N           0.3876   -0.9553   -0.5745 N.ar    1  LIG1       -0.3564
      6 H           0.2343   -1.7142   -1.2180 H       1  LIG1        0.1655
      7 H           2.4706   -0.5895   -0.9221 H       1  LIG1        0.0844
      8 O           2.1595    1.7749    0.8177 O.3     1  LIG1       -0.4936
      9 C           3.4947    1.6192    0.3911 C.3     1  LIG1        0.0789
     10 H           4.0589    2.4394    0.8274 H       1  LIG1        0.0660
     11 H           3.8974    0.6631    0.7397 H       1  LIG1        0.0660
     12 H           3.5570    1.6657   -0.7008 H       1  LIG1        0.0660
     13 H          -0.5903    1.4547    1.3957 H       1  LIG1        0.0676
     14 C          -1.9689   -0.8540    0.1466 C.ar    1  LIG1        0.1057
     15 C          -3.1730   -0.1841    0.2332 C.ar    1  LIG1        0.1473
     16 C          -4.2208   -1.1391    0.1756 C.ar    1  LIG1        0.0076
     17 C          -3.6152   -2.3766    0.0642 C.ar    1  LIG1        0.0706
     18 N          -2.2647   -2.1874    0.0407 N.ar    1  LIG1       -0.3488
     19 H          -1.6113   -2.9595    0.0662 H       1  LIG1        0.1661
     20 O          -3.3310    1.1693    0.3415 O.3     1  LIG1       -0.4929
     21 C          -3.1237    1.8598   -0.8875 C.3     1  LIG1        0.0789
     22 H          -3.3405    2.9078   -0.6921 H       1  LIG1        0.0660
     23 H          -2.0879    1.7475   -1.2139 H       1  LIG1        0.0660
     24 H          -3.8001    1.4717   -1.6525 H       1  LIG1        0.0660
     25 H          -5.2754   -0.9248    0.2195 H       1  LIG1        0.0676
     26 C          -4.1553   -3.7247   -0.0049 C.ar    1  LIG1        0.1057
     27 C          -3.4845   -4.9277   -0.1118 C.ar    1  LIG1        0.1473
     28 C          -4.4392   -5.9773   -0.1362 C.ar    1  LIG1        0.0076
     29 C          -5.6794   -5.3651   -0.0438 C.ar    1  LIG1        0.0705
     30 N          -5.4880   -4.0227    0.0318 N.ar    1  LIG1       -0.3488
     31 H          -6.2545   -3.3694    0.1279 H       1  LIG1        0.1661
     32 O          -2.1182   -4.9970   -0.1761 O.3     1  LIG1       -0.4929
     33 C          -1.5748   -6.3027   -0.1112 C.3     1  LIG1        0.0789
     34 H          -0.4941   -6.1867   -0.1146 H       1  LIG1        0.0660
     35 H          -1.8941   -6.8003    0.8074 H       1  LIG1        0.0660
     36 H          -1.8868   -6.8869   -0.9802 H       1  LIG1        0.0660
     37 H          -4.2495   -7.0351   -0.2021 H       1  LIG1        0.0676
     38 C          -7.0289   -5.9078   -0.0163 C.ar    1  LIG1        0.1052
     39 C          -8.2272   -5.2469    0.1565 C.ar    1  LIG1        0.1467
     40 C          -9.2787   -6.2038    0.1123 C.ar    1  LIG1       -0.0019
     41 C          -8.6755   -7.4248   -0.0914 C.ar    1  LIG1        0.0058
     42 N          -7.3317   -7.2346   -0.1674 N.ar    1  LIG1       -0.3566
     43 H          -6.6488   -7.9559   -0.3304 H       1  LIG1        0.1655
     44 H          -9.1092   -8.4043   -0.1875 H       1  LIG1        0.0808
     45 O          -8.2871   -3.8926    0.3331 O.3     1  LIG1       -0.4929
     46 C          -9.5785   -3.3705    0.5918 C.3     1  LIG1        0.0789
     47 H          -9.4552   -2.2991    0.7259 H       1  LIG1        0.0660
     48 H         -10.2416   -3.5653   -0.2544 H       1  LIG1        0.0660
     49 H          -9.9900   -3.8160    1.5001 H       1  LIG1        0.0660
     50 H         -10.3360   -6.0310    0.2155 H       1  LIG1        0.0669
@<TRIPOS>BOND
     1    24    21    1
     2     6     5    1
     3    23    21    1
     4    36    33    1
     5     7     1    1
     6    21    22    1
     7    21    20    1
     8    12     9    1
     9     5     1   ar
    10     5     4   ar
    11     1     2   ar
    12    43    42    1
    13    48    46    1
    14    37    28    1
    15    44    41    1
    16    32    27    1
    17    32    33    1
    18    42    41   ar
    19    42    38   ar
    20    28    27   ar
    21    28    29   ar
    22    34    33    1
    23    27    26   ar
    24    33    35    1
    25    41    40   ar
    26    29    38    1
    27    29    30   ar
    28    38    39   ar
    29    26    30   ar
    30    26    17    1
    31    30    31    1
    32    18    17   ar
    33    18    19    1
    34    18    14   ar
    35    17    16   ar
    36    40    39   ar
    37    40    50    1
    38     4    14    1
    39     4     3   ar
    40    14    15   ar
    41    39    45    1
    42    16    25    1
    43    16    15   ar
    44    15    20    1
    45    45    46    1
    46     2     3   ar
    47     2     8    1
    48     9    11    1
    49     9     8    1
    50     9    10    1
    51    46    47    1
    52    46    49    1
    53     3    13    1
