@<TRIPOS>MOLECULE
mol_data/opt/m06hf/geoms/mol2/13la4ed-6ea-4df.out
 57 60 0 0 0
SMALL
GASTEIGER

@<TRIPOS>ATOM
      1 C           1.2131    0.2294   -0.9869 C.ar    1  LIG1        0.0069
      2 C           1.1191    0.9597    0.1730 C.ar    1  LIG1       -0.0119
      3 C          -0.2185    0.7993    0.6529 C.ar    1  LIG1        0.0532
      4 C          -0.8846   -0.0264   -0.2333 C.ar    1  LIG1        0.0713
      5 N           0.0183   -0.3736   -1.2200 N.ar    1  LIG1       -0.3588
      6 H          -0.2368   -0.8569   -2.0651 H       1  LIG1        0.1654
      7 H           2.0459    0.1096   -1.6598 H       1  LIG1        0.0810
      8 C           2.2025    1.7604    0.8483 C.3     1  LIG1       -0.0365
      9 H           2.3950    1.3805    1.8541 H       1  LIG1        0.0279
     10 H           1.9214    2.8137    0.9275 H       1  LIG1        0.0279
     11 H           3.1280    1.7005    0.2755 H       1  LIG1        0.0279
     12 N          -0.7004    1.3069    1.8684 N.pl3   1  LIG1       -0.3561
     13 H          -0.1519    2.0948    2.1892 H       1  LIG1        0.1424
     14 H          -1.6809    1.5586    1.8016 H       1  LIG1        0.1424
     15 C          -3.3670    0.1225    0.1216 C.ar    1  LIG1        0.1268
     16 C          -4.6238   -0.4748    0.1124 C.ar    1  LIG1       -0.0082
     17 C          -2.2306   -0.6173   -0.2171 C.ar    1  LIG1        0.0450
     18 C          -4.7824   -1.8074   -0.2504 C.ar    1  LIG1        0.0300
     19 H          -5.4976    0.0963    0.4089 H       1  LIG1        0.0661
     20 C          -2.3987   -1.9615   -0.5820 C.ar    1  LIG1       -0.0067
     21 C          -3.6556   -2.5536   -0.6173 C.ar    1  LIG1        0.1287
     22 H          -1.5145   -2.5407   -0.8121 H       1  LIG1        0.0662
     23 O          -3.2085    1.4414    0.4620 O.3     1  LIG1       -0.5061
     24 H          -4.0670    1.8661    0.5591 H       1  LIG1        0.2922
     25 O          -3.8792   -3.8375   -0.9974 O.3     1  LIG1       -0.4945
     26 C          -2.7995   -4.7480   -0.9119 C.3     1  LIG1        0.0788
     27 H          -3.2326   -5.7354   -1.0485 H       1  LIG1        0.0660
     28 H          -2.0652   -4.5577   -1.6986 H       1  LIG1        0.0660
     29 H          -2.3249   -4.6814    0.0697 H       1  LIG1        0.0660
     30 C          -6.4357   -3.5358    0.5812 C.ar    1  LIG1        0.1217
     31 C          -6.1309   -2.4369   -0.2418 C.ar    1  LIG1        0.0208
     32 C          -7.1525   -1.9522   -1.0447 C.ar    1  LIG1       -0.0338
     33 C          -8.4170   -2.5419   -0.9977 C.ar    1  LIG1        0.0513
     34 C          -8.6323   -3.6107   -0.1095 C.ar    1  LIG1        0.0895
     35 N          -7.6417   -4.0945    0.6368 N.ar    1  LIG1       -0.2365
     36 H          -6.9654   -1.1328   -1.7271 H       1  LIG1        0.0637
     37 C          -5.4238   -4.0957    1.4570 C.1     1  LIG1       -0.0492
     38 C          -4.5947   -4.5410    2.2028 C.1     1  LIG1       -0.1124
     39 H          -3.8702   -4.9339    2.8781 H       1  LIG1        0.1232
     40 C          -9.4482   -2.0763   -1.8913 C.1     1  LIG1       -0.0675
     41 C         -10.2946   -1.6659   -2.6408 C.1     1  LIG1       -0.1138
     42 H         -11.0436   -1.3208   -3.3156 H       1  LIG1        0.1232
     43 C         -11.1227   -3.6286    0.3929 C.ar    1  LIG1        0.0340
     44 C         -12.2797   -4.3940    0.5675 C.ar    1  LIG1       -0.0387
     45 C          -9.9493   -4.3058    0.0265 C.ar    1  LIG1        0.0239
     46 C         -12.2813   -5.7698    0.3951 C.ar    1  LIG1       -0.0393
     47 H         -13.1979   -3.8956    0.8563 H       1  LIG1        0.0637
     48 C          -9.9545   -5.6890   -0.1472 C.ar    1  LIG1       -0.0301
     49 C         -11.1138   -6.4419    0.0241 C.ar    1  LIG1        0.0253
     50 H          -9.0207   -6.1785   -0.3978 H       1  LIG1        0.0643
     51 H         -13.1936   -6.3315    0.5571 H       1  LIG1        0.0636
     52 N         -11.1238   -2.2462    0.6746 N.pl3   1  LIG1       -0.3575
     53 H         -10.7844   -1.6802   -0.0946 H       1  LIG1        0.1423
     54 H         -12.0377   -1.9208    0.9639 H       1  LIG1        0.1423
     55 N         -11.0997   -7.8412   -0.1053 N.pl3   1  LIG1       -0.3579
     56 H         -11.9790   -8.2313   -0.4168 H       1  LIG1        0.1423
     57 H         -10.3313   -8.1922   -0.6608 H       1  LIG1        0.1423
@<TRIPOS>BOND
     1    42    41    1
     2    41    40    3
     3     6     5    1
     4    40    33    1
     5    36    32    1
     6    28    26    1
     7     7     1    1
     8     5     1   ar
     9     5     4   ar
    10    27    26    1
    11    32    33   ar
    12    32    31   ar
    13    33    34   ar
    14    25    26    1
    15    25    21    1
    16     1     2   ar
    17    26    29    1
    18    22    20    1
    19    57    55    1
    20    21    20   ar
    21    21    18   ar
    22    20    17   ar
    23    56    55    1
    24    50    48    1
    25    18    31    1
    26    18    16   ar
    27    31    30   ar
    28     4    17    1
    29     4     3   ar
    30    17    15   ar
    31    48    49   ar
    32    48    45   ar
    33    34    45    1
    34    34    35   ar
    35    55    49    1
    36    53    52    1
    37    49    46   ar
    38    45    43   ar
    39    16    15   ar
    40    16    19    1
    41    15    23    1
    42     2     3   ar
    43     2     8    1
    44    11     8    1
    45    43    44   ar
    46    43    52    1
    47    46    51    1
    48    46    44   ar
    49    23    24    1
    50    44    47    1
    51    30    35   ar
    52    30    37    1
    53     3    12    1
    54    52    54    1
    55     8    10    1
    56     8     9    1
    57    37    38    3
    58    14    12    1
    59    12    13    1
    60    38    39    1
