@<TRIPOS>MOLECULE
mol_data/opt/m06hf/geoms/mol2/13la13la-.out
 26 27 0 0 0
SMALL
GASTEIGER

@<TRIPOS>ATOM
      1 C           1.1103   -0.4376   -0.0000 C.ar    1  LIG1        0.0444
      2 C           0.7816    0.9012    0.0001 C.ar    1  LIG1        0.1379
      3 C          -0.6340    1.0128    0.0005 C.ar    1  LIG1        0.0069
      4 C          -1.1254   -0.2773    0.0003 C.ar    1  LIG1        0.0701
      5 N          -0.0704   -1.1349    0.0001 N.ar    1  LIG1       -0.3564
      6 H          -0.1897   -2.1381   -0.0001 H       1  LIG1        0.1655
      7 H           2.0607   -0.9385   -0.0002 H       1  LIG1        0.0844
      8 O           1.6050    1.9836   -0.0001 O.3     1  LIG1       -0.4936
      9 C           2.9820    1.6779   -0.0005 C.3     1  LIG1        0.0789
     10 H           3.5124    2.6268   -0.0006 H       1  LIG1        0.0660
     11 H           3.2458    1.1041    0.8935 H       1  LIG1        0.0660
     12 H           3.2453    1.1042   -0.8947 H       1  LIG1        0.0660
     13 H          -1.1873    1.9367    0.0007 H       1  LIG1        0.0676
     14 C          -2.4855   -0.7992    0.0005 C.ar    1  LIG1        0.1052
     15 C          -2.9216   -2.1071    0.0003 C.ar    1  LIG1        0.1467
     16 C          -4.3451   -2.1070    0.0007 C.ar    1  LIG1       -0.0019
     17 C          -4.7258   -0.7834    0.0005 C.ar    1  LIG1        0.0058
     18 N          -3.6059   -0.0139    0.0008 N.ar    1  LIG1       -0.3566
     19 H          -3.5893    0.9928    0.0010 H       1  LIG1        0.1655
     20 H          -5.7071   -0.3431    0.0004 H       1  LIG1        0.0808
     21 O          -2.0515   -3.1636    0.0000 O.3     1  LIG1       -0.4929
     22 C          -2.6586   -4.4425   -0.0005 C.3     1  LIG1        0.0789
     23 H          -1.8489   -5.1678   -0.0008 H       1  LIG1        0.0660
     24 H          -3.2723   -4.5706    0.8940 H       1  LIG1        0.0660
     25 H          -3.2723   -4.5698   -0.8951 H       1  LIG1        0.0660
     26 H          -5.0071   -2.9559    0.0008 H       1  LIG1        0.0669
@<TRIPOS>BOND
     1    25    22    1
     2    12     9    1
     3    23    22    1
     4    10     9    1
     5    22    21    1
     6    22    24    1
     7     9     8    1
     8     9    11    1
     9     7     1    1
    10     6     5    1
    11     8     2    1
    12     1     2   ar
    13     1     5   ar
    14    21    15    1
    15     2     3   ar
    16     5     4   ar
    17    15    14   ar
    18    15    16   ar
    19     4     3   ar
    20     4    14    1
    21    20    17    1
    22     3    13    1
    23    17    16   ar
    24    17    18   ar
    25    14    18   ar
    26    16    26    1
    27    18    19    1
