@<TRIPOS>MOLECULE
mol_data/opt/m06hf/geoms/mol2/13la13la13la.out
 38 40 0 0 0
SMALL
GASTEIGER

@<TRIPOS>ATOM
      1 C           1.8544   -0.3879    0.0304 C.ar    1  LIG1        0.0444
      2 C           1.5270    0.8383   -0.5027 C.ar    1  LIG1        0.1379
      3 C           0.1092    0.9474   -0.5414 C.ar    1  LIG1        0.0069
      4 C          -0.3887   -0.2243   -0.0224 C.ar    1  LIG1        0.0701
      5 N           0.6685   -1.0275    0.3092 N.ar    1  LIG1       -0.3564
      6 H           0.5831   -1.8685    0.8553 H       1  LIG1        0.1655
      7 H           2.8033   -0.8516    0.2297 H       1  LIG1        0.0844
      8 O           2.3549    1.8155   -0.9563 O.3     1  LIG1       -0.4936
      9 C           3.7306    1.5473   -0.7993 C.3     1  LIG1        0.0789
     10 H           4.2629    2.4111   -1.1886 H       1  LIG1        0.0660
     11 H           3.9747    1.4047    0.2581 H       1  LIG1        0.0660
     12 H           4.0127    0.6526   -1.3631 H       1  LIG1        0.0660
     13 H          -0.4676    1.7756   -0.9130 H       1  LIG1        0.0676
     14 C          -1.7638   -0.6629    0.1859 C.ar    1  LIG1        0.1057
     15 C          -2.8814    0.0441    0.5686 C.ar    1  LIG1        0.1473
     16 C          -3.9803   -0.8614    0.6440 C.ar    1  LIG1        0.0076
     17 C          -3.4918   -2.1011    0.2930 C.ar    1  LIG1        0.0705
     18 N          -2.1539   -1.9774    0.0336 N.ar    1  LIG1       -0.3488
     19 H          -1.6215   -2.6501   -0.4969 H       1  LIG1        0.1661
     20 O          -2.8521    1.3748    0.8338 O.3     1  LIG1       -0.4929
     21 C          -4.0914    1.9436    1.2076 C.3     1  LIG1        0.0789
     22 H          -3.9048    3.0032    1.3624 H       1  LIG1        0.0660
     23 H          -4.8314    1.8083    0.4143 H       1  LIG1        0.0660
     24 H          -4.4575    1.4927    2.1339 H       1  LIG1        0.0660
     25 H          -4.9993   -0.6633    0.9288 H       1  LIG1        0.0676
     26 C          -4.1738   -3.3844    0.1844 C.ar    1  LIG1        0.1052
     27 C          -5.4570   -3.6855   -0.2187 C.ar    1  LIG1        0.1467
     28 C          -5.6214   -5.0999   -0.1566 C.ar    1  LIG1       -0.0019
     29 C          -4.4236   -5.6121    0.2881 C.ar    1  LIG1        0.0058
     30 N          -3.5629   -4.5793    0.4852 N.ar    1  LIG1       -0.3566
     31 H          -2.6550   -4.6488    0.9150 H       1  LIG1        0.1655
     32 H          -4.1330   -6.6294    0.4822 H       1  LIG1        0.0808
     33 O          -6.3478   -2.7334   -0.6012 O.3     1  LIG1       -0.4929
     34 C          -7.6056   -3.2165   -1.0277 C.3     1  LIG1        0.0789
     35 H          -8.1820   -2.3445   -1.3255 H       1  LIG1        0.0660
     36 H          -7.4901   -3.8914   -1.8801 H       1  LIG1        0.0660
     37 H          -8.1154   -3.7369   -0.2122 H       1  LIG1        0.0660
     38 H          -6.4960   -5.6737   -0.4107 H       1  LIG1        0.0669
@<TRIPOS>BOND
     1    36    34    1
     2    12     9    1
     3    35    34    1
     4    10     9    1
     5    34    33    1
     6    34    37    1
     7     8     9    1
     8     8     2    1
     9    13     3    1
    10     9    11    1
    11    33    27    1
    12     3     2   ar
    13     3     4   ar
    14     2     1   ar
    15    19    18    1
    16    38    28    1
    17    27    28   ar
    18    27    26   ar
    19    28    29   ar
    20     4    14    1
    21     4     5   ar
    22     1     7    1
    23     1     5   ar
    24    18    14   ar
    25    18    17   ar
    26    26    17    1
    27    26    30   ar
    28    14    15   ar
    29    29    32    1
    30    29    30   ar
    31    17    16   ar
    32     5     6    1
    33    23    21    1
    34    30    31    1
    35    15    16   ar
    36    15    20    1
    37    16    25    1
    38    20    21    1
    39    21    22    1
    40    21    24    1
