@<TRIPOS>MOLECULE
mol_data/opt/m06hf/geoms/mol2/13ld13ld13ld-13ld.out
 54 57 0 0 0
SMALL
GASTEIGER

@<TRIPOS>ATOM
      1 C           6.3728   -1.0550   -0.0435 C.ar    1  LIG1        0.0457
      2 C           6.2650    0.3138    0.0075 C.ar    1  LIG1        0.1553
      3 C           4.8739    0.6319    0.0117 C.ar    1  LIG1        0.1200
      4 C           4.1812   -0.5714   -0.0373 C.ar    1  LIG1        0.0878
      5 N           5.0927   -1.5636   -0.0704 N.ar    1  LIG1       -0.3553
      6 H           4.8246   -2.5382   -0.1087 H       1  LIG1        0.1655
      7 H           7.2337   -1.6973   -0.0640 H       1  LIG1        0.0845
      8 O           7.2231    1.2604    0.0484 O.3     1  LIG1       -0.4923
      9 C           8.5512    0.7694    0.0419 C.3     1  LIG1        0.0789
     10 H           9.1991    1.6399    0.0833 H       1  LIG1        0.0660
     11 H           8.7221    0.1330    0.9147 H       1  LIG1        0.0660
     12 H           8.7399    0.2047   -0.8752 H       1  LIG1        0.0660
     13 N           3.6892    2.9170    0.0954 N.1     1  LIG1       -0.1907
     14 C           4.2619    1.9199    0.0590 C.1     1  LIG1        0.1050
     15 C           2.7563   -0.8378   -0.0526 C.ar    1  LIG1        0.1083
     16 C           2.1074   -2.0521   -0.0831 C.ar    1  LIG1        0.1647
     17 C           0.7050   -1.7821   -0.0819 C.ar    1  LIG1        0.1207
     18 C           0.5676   -0.3904   -0.0500 C.ar    1  LIG1        0.0883
     19 N           1.7996    0.1462   -0.0352 N.ar    1  LIG1       -0.3478
     20 H           1.9675    1.1508   -0.0136 H       1  LIG1        0.1661
     21 O           2.7839   -3.2267   -0.1160 O.3     1  LIG1       -0.4916
     22 C           2.0178   -4.4212    0.0172 C.3     1  LIG1        0.0789
     23 H           2.7379   -5.2345    0.0295 H       1  LIG1        0.0660
     24 H           1.4535   -4.4036    0.9508 H       1  LIG1        0.0660
     25 H           1.3414   -4.5327   -0.8311 H       1  LIG1        0.0660
     26 N          -1.3630   -3.3196   -0.1453 N.1     1  LIG1       -0.1907
     27 C          -0.4167   -2.6648   -0.1170 C.1     1  LIG1        0.1050
     28 C          -0.6132    0.4461   -0.0349 C.ar    1  LIG1        0.1083
     29 C          -0.6560    1.8250   -0.0181 C.ar    1  LIG1        0.1647
     30 C          -2.0313    2.2026   -0.0095 C.ar    1  LIG1        0.1207
     31 C          -2.7712    1.0150   -0.0225 C.ar    1  LIG1        0.0883
     32 N          -1.9070   -0.0136   -0.0369 N.ar    1  LIG1       -0.3478
     33 H          -2.2149   -0.9842   -0.0454 H       1  LIG1        0.1661
     34 O           0.4725    2.5608   -0.0220 O.3     1  LIG1       -0.4916
     35 C           0.3653    3.9767    0.1207 C.3     1  LIG1        0.0789
     36 H           1.3894    4.3364    0.1373 H       1  LIG1        0.0660
     37 H          -0.1778    4.3964   -0.7273 H       1  LIG1        0.0660
     38 H          -0.1435    4.2182    1.0553 H       1  LIG1        0.0660
     39 N          -3.2489    4.4714    0.0061 N.1     1  LIG1       -0.1907
     40 C          -2.6543    3.4861    0.0006 C.1     1  LIG1        0.1050
     41 C          -4.2021    0.7830   -0.0311 C.ar    1  LIG1        0.1078
     42 C          -4.8433   -0.4382   -0.0382 C.ar    1  LIG1        0.1640
     43 C          -6.2458   -0.1759   -0.0635 C.ar    1  LIG1        0.1112
     44 C          -6.3904    1.2042   -0.0694 C.ar    1  LIG1        0.0233
     45 N          -5.1682    1.7606   -0.0486 N.ar    1  LIG1       -0.3553
     46 H          -4.9726    2.7541   -0.0479 H       1  LIG1        0.1655
     47 H          -7.2928    1.7898   -0.0863 H       1  LIG1        0.0821
     48 O          -4.1455   -1.5937   -0.0067 O.3     1  LIG1       -0.4916
     49 C          -4.8380   -2.8192   -0.2531 C.3     1  LIG1        0.0789
     50 H          -5.5494   -3.0140    0.5492 H       1  LIG1        0.0660
     51 H          -5.3555   -2.7666   -1.2120 H       1  LIG1        0.0660
     52 H          -4.0625   -3.5795   -0.2747 H       1  LIG1        0.0660
     53 N          -8.2288   -1.8274   -0.0751 N.1     1  LIG1       -0.1907
     54 C          -7.3428   -1.0970   -0.0708 C.1     1  LIG1        0.1044
@<TRIPOS>BOND
     1    51    49    1
     2    12     9    1
     3    25    22    1
     4    37    35    1
     5    52    49    1
     6    49    48    1
     7    49    50    1
     8    26    27    3
     9    27    17    1
    10    21    16    1
    11    21    22    1
    12     6     5    1
    13    47    44    1
    14    16    17   ar
    15    16    15   ar
    16    17    18   ar
    17    53    54    3
    18    54    43    1
    19     5     1   ar
    20     5     4   ar
    21    44    43   ar
    22    44    45   ar
    23     7     1    1
    24    43    42   ar
    25    15     4    1
    26    15    19   ar
    27    18    19   ar
    28    18    28    1
    29    45    46    1
    30    45    41   ar
    31    33    32    1
    32     1     2   ar
    33    42    41   ar
    34    42    48    1
    35     4     3   ar
    36    32    28   ar
    37    32    31   ar
    38    19    20    1
    39    28    29   ar
    40    41    31    1
    41    31    30   ar
    42    34    29    1
    43    34    35    1
    44    29    30   ar
    45    30    40    1
    46    40    39    3
    47     2     3   ar
    48     2     8    1
    49     3    14    1
    50    22    23    1
    51    22    24    1
    52     9     8    1
    53     9    10    1
    54     9    11    1
    55    14    13    3
    56    35    36    1
    57    35    38    1
