@<TRIPOS>MOLECULE
mol_data/opt/m06hf/geoms/mol2/13ld13ld-13ld-13ld.out
 54 57 0 0 0
SMALL
GASTEIGER

@<TRIPOS>ATOM
      1 C           1.1827   -0.6528   -0.0696 C.ar    1  LIG1        0.0457
      2 C           0.8164    0.6534   -0.2878 C.ar    1  LIG1        0.1553
      3 C          -0.6095    0.6994   -0.2825 C.ar    1  LIG1        0.1200
      4 C          -1.0598   -0.5973   -0.0628 C.ar    1  LIG1        0.0878
      5 N           0.0237   -1.3867    0.0624 N.ar    1  LIG1       -0.3553
      6 H          -0.0521   -2.3763    0.2571 H       1  LIG1        0.1655
      7 H           2.1503   -1.1142    0.0028 H       1  LIG1        0.0845
      8 O           1.5763    1.7486   -0.4791 O.3     1  LIG1       -0.4923
      9 C           2.9738    1.5185   -0.4648 C.3     1  LIG1        0.0789
     10 H           3.4445    2.4823   -0.6343 H       1  LIG1        0.0660
     11 H           3.2801    1.1167    0.5047 H       1  LIG1        0.0660
     12 H           3.2485    0.8227   -1.2618 H       1  LIG1        0.0660
     13 N          -2.2665    2.6524   -0.5330 N.1     1  LIG1       -0.1907
     14 C          -1.4740    1.8236   -0.4300 C.1     1  LIG1        0.1050
     15 C          -2.4095   -1.1138    0.0422 C.ar    1  LIG1        0.1083
     16 C          -2.8294   -2.3771    0.3933 C.ar    1  LIG1        0.1647
     17 C          -4.2583   -2.3703    0.3827 C.ar    1  LIG1        0.1207
     18 C          -4.6477   -1.0863    0.0043 C.ar    1  LIG1        0.0883
     19 N          -3.5302   -0.3572   -0.1929 N.ar    1  LIG1       -0.3478
     20 H          -3.5083    0.5916   -0.5469 H       1  LIG1        0.1661
     21 O          -1.9424   -3.3574    0.6904 O.3     1  LIG1       -0.4916
     22 C          -2.4492   -4.6853    0.8287 C.3     1  LIG1        0.0789
     23 H          -1.5762   -5.3214    0.9441 H       1  LIG1        0.0660
     24 H          -3.0863   -4.7575    1.7092 H       1  LIG1        0.0660
     25 H          -3.0085   -4.9673   -0.0642 H       1  LIG1        0.0660
     26 N          -5.8716   -4.2376    1.1343 N.1     1  LIG1       -0.1907
     27 C          -5.1634   -3.4036    0.7830 C.1     1  LIG1        0.1050
     28 C          -5.9663   -0.4998   -0.1567 C.ar    1  LIG1        0.1083
     29 C          -7.1462   -1.0663   -0.5835 C.ar    1  LIG1        0.1647
     30 C          -8.1225   -0.0230   -0.6061 C.ar    1  LIG1        0.1207
     31 C          -7.4832    1.1472   -0.2063 C.ar    1  LIG1        0.0883
     32 N          -6.1966    0.8426    0.0535 N.ar    1  LIG1       -0.3478
     33 H          -5.5459    1.5342    0.4130 H       1  LIG1        0.1661
     34 O          -7.2771   -2.3494   -0.9667 O.3     1  LIG1       -0.4916
     35 C          -8.3762   -3.0632   -0.3883 C.3     1  LIG1        0.0789
     36 H          -8.2193   -4.1054   -0.6482 H       1  LIG1        0.0660
     37 H          -8.3611   -2.9468    0.6957 H       1  LIG1        0.0660
     38 H          -9.3182   -2.7041   -0.8042 H       1  LIG1        0.0660
     39 N         -10.6081   -0.0182   -1.2810 N.1     1  LIG1       -0.1907
     40 C          -9.4949   -0.0677   -0.9940 C.1     1  LIG1        0.1050
     41 C          -7.9756    2.5017   -0.0521 C.ar    1  LIG1        0.1078
     42 C          -7.2486    3.6221    0.2886 C.ar    1  LIG1        0.1640
     43 C          -8.1568    4.7225    0.3068 C.ar    1  LIG1        0.1112
     44 C          -9.4023    4.2145   -0.0296 C.ar    1  LIG1        0.0233
     45 N          -9.2805    2.8919   -0.2355 N.ar    1  LIG1       -0.3553
     46 H         -10.0287    2.2665   -0.5072 H       1  LIG1        0.1655
     47 H         -10.3415    4.7309   -0.1268 H       1  LIG1        0.0821
     48 O          -5.9235    3.5576    0.5531 O.3     1  LIG1       -0.4916
     49 C          -5.1536    4.7581    0.3992 C.3     1  LIG1        0.0789
     50 H          -4.1160    4.4388    0.3733 H       1  LIG1        0.0660
     51 H          -5.4219    5.2472   -0.5380 H       1  LIG1        0.0660
     52 H          -5.3381    5.4256    1.2401 H       1  LIG1        0.0660
     53 N          -7.6950    7.1985    0.8719 N.1     1  LIG1       -0.1907
     54 C          -7.8986    6.0964    0.6205 C.1     1  LIG1        0.1044
@<TRIPOS>BOND
     1    39    40    3
     2    12     9    1
     3    40    30    1
     4    34    29    1
     5    34    35    1
     6    38    35    1
     7    36    35    1
     8    10     9    1
     9    30    29   ar
    10    30    31   ar
    11    29    28   ar
    12    20    19    1
    13    51    49    1
    14    13    14    3
    15    46    45    1
    16     8     9    1
    17     8     2    1
    18     9    11    1
    19    14     3    1
    20    35    37    1
    21     2     3   ar
    22     2     1   ar
    23     3     4   ar
    24    45    41   ar
    25    45    44   ar
    26    31    41    1
    27    31    32   ar
    28    19    18   ar
    29    19    15   ar
    30    28    18    1
    31    28    32   ar
    32    47    44    1
    33     1     7    1
    34     1     5   ar
    35    25    22    1
    36     4    15    1
    37     4     5   ar
    38    41    42   ar
    39    44    43   ar
    40    18    17   ar
    41    15    16   ar
    42    32    33    1
    43     5     6    1
    44    42    43   ar
    45    42    48    1
    46    43    54    1
    47    50    49    1
    48    17    16   ar
    49    17    27    1
    50    16    21    1
    51    49    48    1
    52    49    52    1
    53    54    53    3
    54    21    22    1
    55    27    26    3
    56    22    23    1
    57    22    24    1
