@<TRIPOS>MOLECULE
mol_data/opt/m06hf/geoms/mol2/13ld13ld-13ld.out
 41 43 0 0 0
SMALL
GASTEIGER

@<TRIPOS>ATOM
      1 C          -4.6343    0.1469   -0.0534 C.ar    1  LIG1        0.0457
      2 C          -4.2001   -1.1557   -0.0048 C.ar    1  LIG1        0.1553
      3 C          -2.7739   -1.1287    0.0190 C.ar    1  LIG1        0.1200
      4 C          -2.3905    0.2056   -0.0169 C.ar    1  LIG1        0.0878
      5 N          -3.5144    0.9495   -0.0592 N.ar    1  LIG1       -0.3553
      6 H          -3.4893    1.9603   -0.0890 H       1  LIG1        0.1655
      7 H          -5.6236    0.5640   -0.0835 H       1  LIG1        0.0845
      8 O          -4.9012   -2.3059    0.0205 O.3     1  LIG1       -0.4923
      9 C          -6.3071   -2.1531   -0.0443 C.3     1  LIG1        0.0789
     10 H          -6.7253   -3.1552   -0.0233 H       1  LIG1        0.0660
     11 H          -6.6654   -1.5811    0.8159 H       1  LIG1        0.0660
     12 H          -6.5892   -1.6489   -0.9723 H       1  LIG1        0.0660
     13 N          -1.0830   -3.0693    0.1137 N.1     1  LIG1       -0.1907
     14 C          -1.8725   -2.2337    0.0715 C.1     1  LIG1        0.1050
     15 C          -1.0719    0.8090   -0.0131 C.ar    1  LIG1        0.1083
     16 C          -0.7391    2.1450   -0.0026 C.ar    1  LIG1        0.1647
     17 C           0.6864    2.2250   -0.0011 C.ar    1  LIG1        0.1207
     18 C           1.1600    0.9095   -0.0118 C.ar    1  LIG1        0.0883
     19 N           0.0961    0.0882   -0.0197 N.ar    1  LIG1       -0.3478
     20 H           0.1850   -0.9276   -0.0284 H       1  LIG1        0.1661
     21 O          -1.6815    3.1197   -0.0002 O.3     1  LIG1       -0.4916
     22 C          -1.2197    4.4658    0.0747 C.3     1  LIG1        0.0789
     23 H          -2.1120    5.0849    0.0910 H       1  LIG1        0.0660
     24 H          -0.6420    4.6150    0.9884 H       1  LIG1        0.0660
     25 H          -0.6121    4.7051   -0.7990 H       1  LIG1        0.0660
     26 N           2.3456    4.1954    0.0207 N.1     1  LIG1       -0.1907
     27 C           1.5664    3.3481    0.0103 C.1     1  LIG1        0.1050
     28 C           2.5097    0.3802   -0.0159 C.ar    1  LIG1        0.1078
     29 C           2.8743   -0.9497   -0.0298 C.ar    1  LIG1        0.1640
     30 C           4.3006   -0.9951   -0.0270 C.ar    1  LIG1        0.1112
     31 C           4.7386    0.3213   -0.0119 C.ar    1  LIG1        0.0233
     32 N           3.6636    1.1279   -0.0073 N.ar    1  LIG1       -0.3553
     33 H           3.6887    2.1400    0.0044 H       1  LIG1        0.1655
     34 H           5.7447    0.7018   -0.0056 H       1  LIG1        0.0821
     35 O           1.9437   -1.9250   -0.0515 O.3     1  LIG1       -0.4916
     36 C           2.3629   -3.2838    0.0957 C.3     1  LIG1        0.0789
     37 H           1.4411   -3.8556    0.1334 H       1  LIG1        0.0660
     38 H           2.9716   -3.5800   -0.7585 H       1  LIG1        0.0660
     39 H           2.9300   -3.3983    1.0205 H       1  LIG1        0.0660
     40 N           5.8707   -3.0437   -0.0568 N.1     1  LIG1       -0.1907
     41 C           5.1700   -2.1339   -0.0434 C.1     1  LIG1        0.1044
@<TRIPOS>BOND
     1    12     9    1
     2    25    22    1
     3    38    36    1
     4     6     5    1
     5     7     1    1
     6     5     1   ar
     7     5     4   ar
     8    40    41    3
     9     1     2   ar
    10    35    29    1
    11    35    36    1
    12     9    10    1
    13     9     8    1
    14     9    11    1
    15    41    30    1
    16    29    30   ar
    17    29    28   ar
    18    20    19    1
    19    30    31   ar
    20    19    15   ar
    21    19    18   ar
    22     4    15    1
    23     4     3   ar
    24    28    18    1
    25    28    32   ar
    26    15    16   ar
    27    31    32   ar
    28    31    34    1
    29    18    17   ar
    30    32    33    1
    31     2     3   ar
    32     2     8    1
    33    16    17   ar
    34    16    21    1
    35    17    27    1
    36    21    22    1
    37    27    26    3
    38     3    14    1
    39    14    13    3
    40    22    23    1
    41    22    24    1
    42    36    37    1
    43    36    39    1
