@<TRIPOS>MOLECULE
mol_data/opt/m06hf/geoms/mol2/13ld13ld13ld13ld.out
 54 57 0 0 0
SMALL
GASTEIGER

@<TRIPOS>ATOM
      1 C           1.2355    1.4800    0.0390 C.ar    1  LIG1        0.0457
      2 C           1.7187    0.2570   -0.3600 C.ar    1  LIG1        0.1553
      3 C           0.6172   -0.6500   -0.3703 C.ar    1  LIG1        0.1200
      4 C          -0.5065    0.0679    0.0259 C.ar    1  LIG1        0.0878
      5 N          -0.1170    1.3333    0.2641 N.ar    1  LIG1       -0.3553
      6 H          -0.7596    2.0424    0.5916 H       1  LIG1        0.1655
      7 H           1.7286    2.4239    0.1816 H       1  LIG1        0.0845
      8 O           2.9679   -0.1172   -0.6948 O.3     1  LIG1       -0.4923
      9 C           3.9430    0.9081   -0.6190 C.3     1  LIG1        0.0789
     10 H           4.8848    0.4573   -0.9177 H       1  LIG1        0.0660
     11 H           3.6858    1.7228   -1.3009 H       1  LIG1        0.0660
     12 H           4.0151    1.2850    0.4045 H       1  LIG1        0.0660
     13 N           0.4243   -3.1605   -0.9025 N.1     1  LIG1       -0.1907
     14 C           0.5894   -2.0420   -0.6811 C.1     1  LIG1        0.1050
     15 C          -1.8741   -0.3760    0.2011 C.ar    1  LIG1        0.1083
     16 C          -2.9616    0.2959    0.7130 C.ar    1  LIG1        0.1647
     17 C          -4.0649   -0.6153    0.7126 C.ar    1  LIG1        0.1207
     18 C          -3.5904   -1.8126    0.1807 C.ar    1  LIG1        0.0883
     19 N          -2.2872   -1.6439   -0.1175 N.ar    1  LIG1       -0.3478
     20 H          -1.7146   -2.3192   -0.6086 H       1  LIG1        0.1661
     21 O          -2.8620    1.5812    1.1265 O.3     1  LIG1       -0.4916
     22 C          -4.0716    2.2603    1.4666 C.3     1  LIG1        0.0789
     23 H          -3.7850    3.2901    1.6591 H       1  LIG1        0.0660
     24 H          -4.7752    2.2116    0.6346 H       1  LIG1        0.0660
     25 H          -4.5141    1.8198    2.3592 H       1  LIG1        0.0660
     26 N          -6.4408   -0.2773    1.6578 N.1     1  LIG1       -0.1907
     27 C          -5.3882   -0.4330    1.2244 C.1     1  LIG1        0.1050
     28 C          -4.2169   -3.1039   -0.0407 C.ar    1  LIG1        0.1083
     29 C          -5.4920   -3.4464   -0.4225 C.ar    1  LIG1        0.1647
     30 C          -5.5094   -4.8670   -0.6001 C.ar    1  LIG1        0.1207
     31 C          -4.2349   -5.3340   -0.3237 C.ar    1  LIG1        0.0883
     32 N          -3.4681   -4.2631    0.0004 N.ar    1  LIG1       -0.3478
     33 H          -2.5558   -4.3369    0.4301 H       1  LIG1        0.1661
     34 O          -6.4766   -2.5617   -0.6662 O.3     1  LIG1       -0.4916
     35 C          -7.6921   -2.7776    0.0663 C.3     1  LIG1        0.0789
     36 H          -8.3230   -1.9232   -0.1582 H       1  LIG1        0.0660
     37 H          -8.1685   -3.7018   -0.2609 H       1  LIG1        0.0660
     38 H          -7.4739   -2.8071    1.1339 H       1  LIG1        0.0660
     39 N          -7.4906   -6.2763   -1.4614 N.1     1  LIG1       -0.1907
     40 C          -6.6005   -5.6617   -1.0738 C.1     1  LIG1        0.1050
     41 C          -3.6929   -6.6835   -0.3520 C.ar    1  LIG1        0.1078
     42 C          -4.2671   -7.8673    0.0499 C.ar    1  LIG1        0.1640
     43 C          -3.2884   -8.8921   -0.1513 C.ar    1  LIG1        0.1112
     44 C          -2.1594   -8.2842   -0.6648 C.ar    1  LIG1        0.0233
     45 N          -2.4087   -6.9625   -0.7711 N.ar    1  LIG1       -0.3553
     46 H          -1.7816   -6.2890   -1.1863 H       1  LIG1        0.1655
     47 H          -1.2181   -8.7171   -0.9561 H       1  LIG1        0.0821
     48 O          -5.4970   -7.9668    0.5878 O.3     1  LIG1       -0.4916
     49 C          -6.3695   -8.9253   -0.0290 C.3     1  LIG1        0.0789
     50 H          -7.3530   -8.7358    0.3899 H       1  LIG1        0.0660
     51 H          -6.3901   -8.7618   -1.1067 H       1  LIG1        0.0660
     52 H          -6.0416   -9.9376    0.2060 H       1  LIG1        0.0660
     53 N          -3.5265  -11.3956    0.4295 N.1     1  LIG1       -0.1907
     54 C          -3.4141  -10.2833    0.1668 C.1     1  LIG1        0.1044
@<TRIPOS>BOND
     1    39    40    3
     2    11     9    1
     3    46    45    1
     4    51    49    1
     5    40    30    1
     6    47    44    1
     7    10     9    1
     8    13    14    3
     9    45    44   ar
    10    45    41   ar
    11     8     9    1
    12     8     2    1
    13    14     3    1
    14    34    29    1
    15    34    35    1
    16    44    43   ar
    17     9    12    1
    18    20    19    1
    19    30    29   ar
    20    30    31   ar
    21    29    28   ar
    22     3     2   ar
    23     3     4   ar
    24     2     1   ar
    25    41    31    1
    26    41    42   ar
    27    31    32   ar
    28    37    35    1
    29    36    35    1
    30    43    42   ar
    31    43    54    1
    32    19    18   ar
    33    19    15   ar
    34    28    32   ar
    35    28    18    1
    36    49    52    1
    37    49    50    1
    38    49    48    1
    39    32    33    1
    40     4    15    1
    41     4     5   ar
    42     1     7    1
    43     1     5   ar
    44    42    48    1
    45    35    38    1
    46    54    53    3
    47    18    17   ar
    48    15    16   ar
    49     5     6    1
    50    24    22    1
    51    17    16   ar
    52    17    27    1
    53    16    21    1
    54    21    22    1
    55    27    26    3
    56    22    23    1
    57    22    25    1
