@<TRIPOS>MOLECULE
mol_data/opt/m06hf/geoms/mol2/13ld13ld-.out
 28 29 0 0 0
SMALL
GASTEIGER

@<TRIPOS>ATOM
      1 C           1.1452   -0.4571   -0.0002 C.ar    1  LIG1        0.0457
      2 C           0.8230    0.8787    0.0000 C.ar    1  LIG1        0.1553
      3 C          -0.5998    0.9714    0.0004 C.ar    1  LIG1        0.1200
      4 C          -1.0954   -0.3254    0.0004 C.ar    1  LIG1        0.0878
      5 N          -0.0387   -1.1622    0.0000 N.ar    1  LIG1       -0.3553
      6 H          -0.1505   -2.1677   -0.0001 H       1  LIG1        0.1655
      7 H           2.0963   -0.9558   -0.0004 H       1  LIG1        0.0845
      8 O           1.6155    1.9680   -0.0001 O.3     1  LIG1       -0.4923
      9 C           3.0065    1.7037   -0.0006 C.3     1  LIG1        0.0789
     10 H           3.5003    2.6710   -0.0006 H       1  LIG1        0.0660
     11 H           3.2840    1.1409    0.8951 H       1  LIG1        0.0660
     12 H           3.2834    1.1411   -0.8966 H       1  LIG1        0.0660
     13 N          -2.1650    3.0145    0.0011 N.1     1  LIG1       -0.1907
     14 C          -1.4167    2.1405    0.0008 C.1     1  LIG1        0.1050
     15 C          -2.4622   -0.8159    0.0006 C.ar    1  LIG1        0.1078
     16 C          -2.9022   -2.1211    0.0005 C.ar    1  LIG1        0.1640
     17 C          -4.3309   -2.0849    0.0010 C.ar    1  LIG1        0.1112
     18 C          -4.6918   -0.7457    0.0010 C.ar    1  LIG1        0.0233
     19 N          -3.5715   -0.0053    0.0010 N.ar    1  LIG1       -0.3553
     20 H          -3.5330    1.0075    0.0012 H       1  LIG1        0.1655
     21 H          -5.6746   -0.3087    0.0012 H       1  LIG1        0.0821
     22 O          -2.0335   -3.1631    0.0001 O.3     1  LIG1       -0.4916
     23 C          -2.5891   -4.4768   -0.0004 C.3     1  LIG1        0.0789
     24 H          -1.7404   -5.1549   -0.0008 H       1  LIG1        0.0660
     25 H          -3.1941   -4.6301    0.8934 H       1  LIG1        0.0660
     26 H          -3.1945   -4.6292   -0.8941 H       1  LIG1        0.0660
     27 N          -6.0332   -4.0250    0.0012 N.1     1  LIG1       -0.1907
     28 C          -5.2732   -3.1639    0.0012 C.1     1  LIG1        0.1044
@<TRIPOS>BOND
     1    12     9    1
     2    26    23    1
     3    24    23    1
     4    10     9    1
     5     9     8    1
     6     9    11    1
     7     7     1    1
     8    23    22    1
     9    23    25    1
    10     1     2   ar
    11     1     5   ar
    12     8     2    1
    13     6     5    1
    14     2     3   ar
    15     5     4   ar
    16    22    16    1
    17     4     3   ar
    18     4    15    1
    19     3    14    1
    20    16    15   ar
    21    16    17   ar
    22    15    19   ar
    23    14    13    3
    24    18    17   ar
    25    18    19   ar
    26    18    21    1
    27    17    28    1
    28    19    20    1
    29    28    27    3
