@<TRIPOS>MOLECULE
mol_data/opt/m06hf/geoms/mol2/13ld13ld-13ld13ld-.out
 54 57 0 0 0
SMALL
GASTEIGER

@<TRIPOS>ATOM
      1 C           1.3849   -0.7388    0.1613 C.ar    1  LIG1        0.0457
      2 C           1.0487    0.5871    0.0318 C.ar    1  LIG1        0.1553
      3 C          -0.3756    0.6632   -0.0123 C.ar    1  LIG1        0.1200
      4 C          -0.8560   -0.6361    0.0932 C.ar    1  LIG1        0.0878
      5 N           0.2089   -1.4557    0.1963 N.ar    1  LIG1       -0.3553
      6 H           0.1085   -2.4583    0.2852 H       1  LIG1        0.1655
      7 H           2.3412   -1.2234    0.2314 H       1  LIG1        0.0845
      8 O           1.8337    1.6793   -0.0470 O.3     1  LIG1       -0.4923
      9 C           3.2251    1.4225    0.0081 C.3     1  LIG1        0.0789
     10 H           3.7174    2.3871   -0.0720 H       1  LIG1        0.0660
     11 H           3.4835    0.9472    0.9583 H       1  LIG1        0.0660
     12 H           3.5229    0.7793   -0.8248 H       1  LIG1        0.0660
     13 N          -1.9268    2.7060   -0.2428 N.1     1  LIG1       -0.1907
     14 C          -1.1951    1.8240   -0.1415 C.1     1  LIG1        0.1050
     15 C          -2.2154   -1.1399    0.1009 C.ar    1  LIG1        0.1083
     16 C          -2.6503   -2.4435    0.1897 C.ar    1  LIG1        0.1647
     17 C          -4.0777   -2.4165    0.1515 C.ar    1  LIG1        0.1207
     18 C          -4.4475   -1.0721    0.0390 C.ar    1  LIG1        0.0883
     19 N          -3.3239   -0.3353    0.0132 N.ar    1  LIG1       -0.3478
     20 H          -3.3276    0.6807   -0.0622 H       1  LIG1        0.1661
     21 O          -1.7861   -3.4826    0.2994 O.3     1  LIG1       -0.4916
     22 C          -2.3357   -4.7952    0.2204 C.3     1  LIG1        0.0789
     23 H          -1.4884   -5.4737    0.2648 H       1  LIG1        0.0660
     24 H          -3.0046   -4.9760    1.0627 H       1  LIG1        0.0660
     25 H          -2.8711   -4.9224   -0.7217 H       1  LIG1        0.0660
     26 N          -5.8570   -4.2779    0.2688 N.1     1  LIG1       -0.1907
     27 C          -5.0345   -3.4740    0.2187 C.1     1  LIG1        0.1050
     28 C          -5.7519   -0.4506   -0.0416 C.ar    1  LIG1        0.1083
     29 C          -6.0266    0.8981   -0.1366 C.ar    1  LIG1        0.1647
     30 C          -7.4452    1.0353   -0.1883 C.ar    1  LIG1        0.1207
     31 C          -7.9740   -0.2585   -0.1201 C.ar    1  LIG1        0.0883
     32 N          -6.9491   -1.1229   -0.0341 N.ar    1  LIG1       -0.3478
     33 H          -7.0887   -2.1299    0.0242 H       1  LIG1        0.1661
     34 O          -5.0391    1.8143   -0.1567 O.3     1  LIG1       -0.4916
     35 C          -5.3804    3.1821   -0.3782 C.3     1  LIG1        0.0789
     36 H          -6.0074    3.5462    0.4370 H       1  LIG1        0.0660
     37 H          -4.4317    3.7093   -0.3984 H       1  LIG1        0.0660
     38 H          -5.8994    3.2854   -1.3324 H       1  LIG1        0.0660
     39 N          -9.0280    3.0599   -0.3508 N.1     1  LIG1       -0.1907
     40 C          -8.2757    2.1917   -0.2805 C.1     1  LIG1        0.1050
     41 C          -9.3448   -0.7297   -0.1212 C.ar    1  LIG1        0.1078
     42 C          -9.7705   -2.0401   -0.0561 C.ar    1  LIG1        0.1640
     43 C         -11.1974   -2.0192   -0.0674 C.ar    1  LIG1        0.1112
     44 C         -11.5731   -0.6854   -0.1407 C.ar    1  LIG1        0.0233
     45 N         -10.4624    0.0689   -0.1734 N.ar    1  LIG1       -0.3553
     46 H         -10.4375    1.0798   -0.2267 H       1  LIG1        0.1655
     47 H         -12.5616   -0.2617   -0.1706 H       1  LIG1        0.0821
     48 O          -8.8869   -3.0601   -0.0121 O.3     1  LIG1       -0.4916
     49 C          -9.3682   -4.3708    0.2925 C.3     1  LIG1        0.0789
     50 H          -8.4760   -4.9858    0.3687 H       1  LIG1        0.0660
     51 H          -9.9105   -4.3563    1.2388 H       1  LIG1        0.0660
     52 H         -10.0164   -4.7260   -0.5084 H       1  LIG1        0.0660
     53 N         -12.8723   -3.9811    0.0046 N.1     1  LIG1       -0.1907
     54 C         -12.1227   -3.1118   -0.0263 C.1     1  LIG1        0.1044
@<TRIPOS>BOND
     1    38    35    1
     2    12     9    1
     3    25    22    1
     4    52    49    1
     5    37    35    1
     6    35    34    1
     7    35    36    1
     8    39    40    3
     9    40    30    1
    10    13    14    3
    11    46    45    1
    12    30    29   ar
    13    30    31   ar
    14    45    44   ar
    15    45    41   ar
    16    47    44    1
    17    34    29    1
    18    14     3    1
    19    44    43   ar
    20    29    28   ar
    21    41    31    1
    22    41    42   ar
    23    31    32   ar
    24    10     9    1
    25    43    42   ar
    26    43    54    1
    27    20    19    1
    28    42    48    1
    29     8     9    1
    30     8     2    1
    31    28    32   ar
    32    28    18    1
    33    32    33    1
    34    54    53    3
    35     3     2   ar
    36     3     4   ar
    37    48    49    1
    38     9    11    1
    39    19    18   ar
    40    19    15   ar
    41     2     1   ar
    42    18    17   ar
    43     4    15    1
    44     4     5   ar
    45    15    16   ar
    46    17    16   ar
    47    17    27    1
    48     1     5   ar
    49     1     7    1
    50    16    21    1
    51     5     6    1
    52    27    26    3
    53    22    23    1
    54    22    21    1
    55    22    24    1
    56    49    50    1
    57    49    51    1
