@<TRIPOS>MOLECULE
mol_data/opt/m06hf/geoms/mol2/13ld13ld13ld.out
 41 43 0 0 0
SMALL
GASTEIGER

@<TRIPOS>ATOM
      1 C           0.8493    1.3241    0.0208 C.ar    1  LIG1        0.0457
      2 C           0.8012    0.6212   -1.1588 C.ar    1  LIG1        0.1553
      3 C          -0.3524   -0.2166   -1.1086 C.ar    1  LIG1        0.1200
      4 C          -0.9692    0.0115    0.1146 C.ar    1  LIG1        0.0878
      5 N          -0.2372    0.9333    0.7723 N.ar    1  LIG1       -0.3553
      6 H          -0.4917    1.2643    1.6938 H       1  LIG1        0.1655
      7 H           1.5490    2.0538    0.3833 H       1  LIG1        0.0845
      8 O           1.6304    0.6461   -2.2204 O.3     1  LIG1       -0.4923
      9 C           2.7451    1.5091   -2.0909 C.3     1  LIG1        0.0789
     10 H           3.3157    1.4123   -3.0098 H       1  LIG1        0.0660
     11 H           2.4107    2.5426   -1.9663 H       1  LIG1        0.0660
     12 H           3.3571    1.2088   -1.2363 H       1  LIG1        0.0660
     13 N          -1.2668   -1.8833   -2.8465 N.1     1  LIG1       -0.1907
     14 C          -0.8234   -1.1292   -2.0995 C.1     1  LIG1        0.1050
     15 C          -2.1714   -0.5631    0.6872 C.ar    1  LIG1        0.1083
     16 C          -2.7837   -0.2579    1.8819 C.ar    1  LIG1        0.1647
     17 C          -3.9378   -1.0914    1.9898 C.ar    1  LIG1        0.1207
     18 C          -3.9711   -1.8786    0.8350 C.ar    1  LIG1        0.0883
     19 N          -2.9101   -1.5472    0.0793 N.ar    1  LIG1       -0.3478
     20 H          -2.7169   -1.9857   -0.8209 H       1  LIG1        0.1661
     21 O          -2.2832    0.6746    2.7296 O.3     1  LIG1       -0.4916
     22 C          -3.1152    1.0716    3.8169 C.3     1  LIG1        0.0789
     23 H          -2.5845    1.8759    4.3182 H       1  LIG1        0.0660
     24 H          -4.0758    1.4296    3.4431 H       1  LIG1        0.0660
     25 H          -3.2646    0.2369    4.5028 H       1  LIG1        0.0660
     26 N          -5.7676   -1.3466    3.7849 N.1     1  LIG1       -0.1907
     27 C          -4.9281   -1.1979    3.0114 C.1     1  LIG1        0.1050
     28 C          -4.9062   -2.8977    0.4004 C.ar    1  LIG1        0.1078
     29 C          -4.8503   -3.6232   -0.7710 C.ar    1  LIG1        0.1640
     30 C          -5.9728   -4.5043   -0.7743 C.ar    1  LIG1        0.1112
     31 C          -6.6633   -4.2701    0.4062 C.ar    1  LIG1        0.0233
     32 N          -6.0172   -3.3141    1.0952 N.ar    1  LIG1       -0.3553
     33 H          -6.3000   -2.9457    1.9948 H       1  LIG1        0.1655
     34 H          -7.5623   -4.7353    0.7703 H       1  LIG1        0.0821
     35 O          -3.8512   -3.4365   -1.6568 O.3     1  LIG1       -0.4916
     36 C          -3.9221   -4.0898   -2.9264 C.3     1  LIG1        0.0789
     37 H          -3.0672   -3.7140   -3.4795 H       1  LIG1        0.0660
     38 H          -3.8577   -5.1696   -2.7933 H       1  LIG1        0.0660
     39 H          -4.8551   -3.8266   -3.4266 H       1  LIG1        0.0660
     40 N          -6.6816   -6.2415   -2.5470 N.1     1  LIG1       -0.1907
     41 C          -6.3643   -5.4677   -1.7600 C.1     1  LIG1        0.1044
@<TRIPOS>BOND
     1    37    36    1
     2    39    36    1
     3    10     9    1
     4    36    38    1
     5    36    35    1
     6    13    14    3
     7    40    41    3
     8     8     9    1
     9     8     2    1
    10    14     3    1
    11     9    11    1
    12     9    12    1
    13    41    30    1
    14    35    29    1
    15     2     3   ar
    16     2     1   ar
    17     3     4   ar
    18    20    19    1
    19    30    29   ar
    20    30    31   ar
    21    29    28   ar
    22     1     7    1
    23     1     5   ar
    24    19    15   ar
    25    19    18   ar
    26     4    15    1
    27     4     5   ar
    28    28    18    1
    29    28    32   ar
    30    31    34    1
    31    31    32   ar
    32    15    16   ar
    33     5     6    1
    34    18    17   ar
    35    32    33    1
    36    16    17   ar
    37    16    21    1
    38    17    27    1
    39    21    22    1
    40    27    26    3
    41    24    22    1
    42    22    23    1
    43    22    25    1
