@<TRIPOS>MOLECULE
mol_data/opt/m06hf/geoms/mol2/13ld13ld13ld13ld-.out
 54 57 0 0 0
SMALL
GASTEIGER

@<TRIPOS>ATOM
      1 C           1.0692    1.4016   -0.3528 C.ar    1  LIG1        0.0457
      2 C           1.6444    0.1624   -0.5062 C.ar    1  LIG1        0.1553
      3 C           0.5948   -0.8019   -0.4400 C.ar    1  LIG1        0.1200
      4 C          -0.5897   -0.1027   -0.2505 C.ar    1  LIG1        0.0878
      5 N          -0.2866    1.2084   -0.2010 N.ar    1  LIG1       -0.3553
      6 H          -0.9951    1.9197   -0.0720 H       1  LIG1        0.1655
      7 H           1.5000    2.3857   -0.3433 H       1  LIG1        0.0845
      8 O           2.9339   -0.1814   -0.6834 O.3     1  LIG1       -0.4923
      9 C           3.8413    0.9047   -0.7554 C.3     1  LIG1        0.0789
     10 H           4.8247    0.4719   -0.9141 H       1  LIG1        0.0660
     11 H           3.5800    1.5579   -1.5918 H       1  LIG1        0.0660
     12 H           3.8270    1.4699    0.1802 H       1  LIG1        0.0660
     13 N           0.5931   -3.3719   -0.5732 N.1     1  LIG1       -0.1907
     14 C           0.6642   -2.2245   -0.5196 C.1     1  LIG1        0.1050
     15 C          -1.9493   -0.5834   -0.0974 C.ar    1  LIG1        0.1083
     16 C          -3.0654    0.1059    0.3107 C.ar    1  LIG1        0.1647
     17 C          -4.1528   -0.8152    0.3408 C.ar    1  LIG1        0.1207
     18 C          -3.6496   -2.0444   -0.0681 C.ar    1  LIG1        0.0883
     19 N          -2.3313   -1.8784   -0.3340 N.ar    1  LIG1       -0.3478
     20 H          -1.7225   -2.5874   -0.7237 H       1  LIG1        0.1661
     21 O          -3.0695    1.4309    0.6212 O.3     1  LIG1       -0.4916
     22 C          -3.3089    1.7012    2.0112 C.3     1  LIG1        0.0789
     23 H          -3.2591    2.7811    2.1200 H       1  LIG1        0.0660
     24 H          -4.2973    1.3422    2.2974 H       1  LIG1        0.0660
     25 H          -2.5382    1.2166    2.6133 H       1  LIG1        0.0660
     26 N          -6.5259   -0.2573    1.1783 N.1     1  LIG1       -0.1907
     27 C          -5.4830   -0.5308    0.7808 C.1     1  LIG1        0.1050
     28 C          -4.2826   -3.3443   -0.2038 C.ar    1  LIG1        0.1083
     29 C          -5.5771   -3.6726   -0.5370 C.ar    1  LIG1        0.1647
     30 C          -5.6470   -5.0990   -0.5728 C.ar    1  LIG1        0.1207
     31 C          -4.3768   -5.5813   -0.2725 C.ar    1  LIG1        0.0883
     32 N          -3.5753   -4.5183   -0.0592 N.ar    1  LIG1       -0.3478
     33 H          -2.6091   -4.6294    0.2330 H       1  LIG1        0.1661
     34 O          -6.5410   -2.7809   -0.8341 O.3     1  LIG1       -0.4916
     35 C          -7.7448   -2.8944   -0.0635 C.3     1  LIG1        0.0789
     36 H          -8.3422   -2.0259   -0.3232 H       1  LIG1        0.0660
     37 H          -8.2725   -3.8128   -0.3241 H       1  LIG1        0.0660
     38 H          -7.5040   -2.8724    0.9995 H       1  LIG1        0.0660
     39 N          -7.5936   -6.6925   -1.1254 N.1     1  LIG1       -0.1907
     40 C          -6.7521   -5.9437   -0.8907 C.1     1  LIG1        0.1050
     41 C          -3.8664   -6.9340   -0.1711 C.ar    1  LIG1        0.1078
     42 C          -2.5697   -7.3228    0.0889 C.ar    1  LIG1        0.1640
     43 C          -2.5495   -8.7497    0.0797 C.ar    1  LIG1        0.1112
     44 C          -3.8453   -9.1631   -0.1904 C.ar    1  LIG1        0.0233
     45 N          -4.6185   -8.0730   -0.3324 N.ar    1  LIG1       -0.3553
     46 H          -5.6080   -8.0760   -0.5462 H       1  LIG1        0.1655
     47 H          -4.2321  -10.1628   -0.2838 H       1  LIG1        0.0821
     48 O          -1.5886   -6.4193    0.3140 O.3     1  LIG1       -0.4916
     49 C          -0.2327   -6.8401    0.1106 C.3     1  LIG1        0.0789
     50 H           0.3545   -5.9269    0.0834 H       1  LIG1        0.0660
     51 H           0.0811   -7.4845    0.9309 H       1  LIG1        0.0660
     52 H          -0.1526   -7.3712   -0.8386 H       1  LIG1        0.0660
     53 N          -0.5712  -10.3548    0.4950 N.1     1  LIG1       -0.1907
     54 C          -1.4493   -9.6377    0.3109 C.1     1  LIG1        0.1044
@<TRIPOS>BOND
     1    11     9    1
     2    39    40    3
     3    10     9    1
     4    40    30    1
     5    52    49    1
     6    34    29    1
     7    34    35    1
     8     9     8    1
     9     9    12    1
    10    20    19    1
    11     8     2    1
    12    13    14    3
    13    30    29   ar
    14    30    31   ar
    15    46    45    1
    16    29    28   ar
    17    14     3    1
    18     2     3   ar
    19     2     1   ar
    20     3     4   ar
    21     1     7    1
    22     1     5   ar
    23    19    15   ar
    24    19    18   ar
    25    45    44   ar
    26    45    41   ar
    27    37    35    1
    28    36    35    1
    29    47    44    1
    30    31    41    1
    31    31    32   ar
    32     4     5   ar
    33     4    15    1
    34    28    18    1
    35    28    32   ar
    36     5     6    1
    37    44    43   ar
    38    41    42   ar
    39    15    16   ar
    40    18    17   ar
    41    35    38    1
    42    32    33    1
    43    43    42   ar
    44    43    54    1
    45    50    49    1
    46    42    48    1
    47    49    48    1
    48    49    51    1
    49    16    17   ar
    50    16    21    1
    51    54    53    3
    52    17    27    1
    53    21    22    1
    54    27    26    3
    55    22    23    1
    56    22    24    1
    57    22    25    1
