@<TRIPOS>MOLECULE
mol_data/opt/m06hf/geoms/mol2/13ld6hi-4eh13ll-.out
 59 62 0 0 0
SMALL
GASTEIGER

@<TRIPOS>ATOM
      1 C           1.5580   -0.2954   -0.4337 C.ar    1  LIG1        0.0457
      2 C           1.2687    0.9728    0.0122 C.ar    1  LIG1        0.1552
      3 C          -0.1452    1.0569    0.1706 C.ar    1  LIG1        0.1186
      4 C          -0.6764   -0.1773   -0.1845 C.ar    1  LIG1        0.0710
      5 N           0.3639   -0.9639   -0.5461 N.ar    1  LIG1       -0.3565
      6 H           0.2290   -1.9205   -0.8529 H       1  LIG1        0.1655
      7 H           2.4919   -0.7646   -0.6828 H       1  LIG1        0.0845
      8 O           2.0915    2.0089    0.2698 O.3     1  LIG1       -0.4923
      9 C           3.4676    1.7450    0.0753 C.3     1  LIG1        0.0789
     10 H           3.9942    2.6597    0.3312 H       1  LIG1        0.0660
     11 H           3.7925    0.9308    0.7289 H       1  LIG1        0.0660
     12 H           3.6602    1.4827   -0.9688 H       1  LIG1        0.0660
     13 N          -1.4631    3.1253    0.9659 N.1     1  LIG1       -0.1907
     14 C          -0.8680    2.2109    0.6056 C.1     1  LIG1        0.1050
     15 C          -2.4980   -1.7279   -0.9697 C.ar    1  LIG1        0.1261
     16 C          -2.0639   -0.6738   -0.1436 C.ar    1  LIG1        0.0395
     17 C          -2.9847   -0.1676    0.7678 C.ar    1  LIG1       -0.0444
     18 C          -4.2757   -0.6868    0.8575 C.ar    1  LIG1       -0.0237
     19 C          -4.5826   -1.7454   -0.0041 C.ar    1  LIG1        0.0772
     20 N          -3.7089   -2.2496   -0.8799 N.ar    1  LIG1       -0.2315
     21 H          -2.6847    0.6289    1.4387 H       1  LIG1        0.0628
     22 N          -1.6296   -2.3149   -1.9158 N.pl3   1  LIG1       -0.3426
     23 H          -2.1439   -3.0187   -2.4360 H       1  LIG1        0.1437
     24 H          -1.2320   -1.6248   -2.5489 H       1  LIG1        0.1437
     25 C          -5.2540   -0.1523    1.8845 C.3     1  LIG1       -0.0377
     26 H          -5.8622   -0.9614    2.2889 H       1  LIG1        0.0278
     27 H          -5.9181    0.5806    1.4254 H       1  LIG1        0.0278
     28 H          -4.7071    0.3241    2.6977 H       1  LIG1        0.0278
     29 C          -7.1066   -1.7629   -0.2809 C.ar    1  LIG1        0.0346
     30 C          -8.3213   -2.4453   -0.1834 C.ar    1  LIG1       -0.0347
     31 C          -5.9144   -2.4283    0.0370 C.ar    1  LIG1        0.0178
     32 C          -8.3724   -3.7830    0.2036 C.ar    1  LIG1        0.0238
     33 H          -9.2451   -1.9305   -0.4118 H       1  LIG1        0.0637
     34 C          -5.9588   -3.7758    0.3753 C.ar    1  LIG1       -0.0300
     35 C          -7.1659   -4.4676    0.4486 C.ar    1  LIG1        0.0346
     36 H          -5.0267   -4.2942    0.5691 H       1  LIG1        0.0643
     37 C          -7.1002   -0.3923   -0.7371 C.1     1  LIG1       -0.0690
     38 C          -7.1110    0.7439   -1.1315 C.1     1  LIG1       -0.1139
     39 H          -7.1122    1.7495   -1.4841 H       1  LIG1        0.1232
     40 N          -7.1897   -5.8349    0.8036 N.pl3   1  LIG1       -0.3574
     41 H          -7.7822   -6.3798    0.1827 H       1  LIG1        0.1423
     42 H          -6.2621   -6.2393    0.8466 H       1  LIG1        0.1423
     43 C          -9.6822   -4.4386    0.3647 C.ar    1  LIG1        0.0943
     44 C         -10.9032   -4.1333   -0.2041 C.ar    1  LIG1        0.1869
     45 C         -11.8722   -5.0169    0.3490 C.ar    1  LIG1        0.1794
     46 C         -11.2208   -5.8263    1.2484 C.ar    1  LIG1        0.0481
     47 N          -9.9048   -5.4717    1.2408 N.ar    1  LIG1       -0.3546
     48 H          -9.1698   -5.8581    1.8174 H       1  LIG1        0.1656
     49 H         -11.6026   -6.6220    1.8629 H       1  LIG1        0.0845
     50 O         -11.1507   -3.1543   -1.1249 O.3     1  LIG1       -0.4895
     51 C         -11.5291   -3.6829   -2.3972 C.3     1  LIG1        0.0791
     52 H         -11.7440   -2.8278   -3.0341 H       1  LIG1        0.0660
     53 H         -10.7049   -4.2666   -2.8116 H       1  LIG1        0.0660
     54 H         -12.4143   -4.3121   -2.2872 H       1  LIG1        0.0660
     55 O         -13.1979   -5.0565    0.0205 O.3     1  LIG1       -0.4900
     56 C         -13.8899   -3.8654    0.3952 C.3     1  LIG1        0.0790
     57 H         -14.9192   -3.9924    0.0679 H       1  LIG1        0.0660
     58 H         -13.8510   -3.7392    1.4792 H       1  LIG1        0.0660
     59 H         -13.4386   -2.9995   -0.0928 H       1  LIG1        0.0660
@<TRIPOS>BOND
     1    52    51    1
     2    53    51    1
     3    24    22    1
     4    23    22    1
     5    51    54    1
     6    51    50    1
     7    22    15    1
     8    39    38    1
     9    38    37    3
    10    50    44    1
    11    15    20   ar
    12    15    16   ar
    13    12     9    1
    14    20    19   ar
    15     6     5    1
    16    37    29    1
    17     7     1    1
    18     5     1   ar
    19     5     4   ar
    20     1     2   ar
    21    33    30    1
    22    29    30   ar
    23    29    31   ar
    24    44    45   ar
    25    44    43   ar
    26     4    16    1
    27     4     3   ar
    28    30    32   ar
    29    16    17   ar
    30    59    56    1
    31    19    31    1
    32    19    18   ar
    33     2     3   ar
    34     2     8    1
    35    55    45    1
    36    55    56    1
    37    31    34   ar
    38    57    56    1
    39     9     8    1
    40     9    10    1
    41     9    11    1
    42     3    14    1
    43    41    40    1
    44    32    43    1
    45    32    35   ar
    46    45    46   ar
    47    43    47   ar
    48    34    35   ar
    49    34    36    1
    50    56    58    1
    51    35    40    1
    52    14    13    3
    53    17    18   ar
    54    17    21    1
    55    40    42    1
    56    18    25    1
    57    47    46   ar
    58    47    48    1
    59    46    49    1
    60    27    25    1
    61    25    26    1
    62    25    28    1
