@<TRIPOS>MOLECULE
mol_data/opt/m06hf/geoms/mol2/13ld13ld-13ld-13ld-.out
 54 57 0 0 0
SMALL
GASTEIGER

@<TRIPOS>ATOM
      1 C           1.1590   -0.4553    0.0498 C.ar    1  LIG1        0.0457
      2 C           0.7716    0.8498    0.2365 C.ar    1  LIG1        0.1553
      3 C          -0.6550    0.8687    0.2574 C.ar    1  LIG1        0.1200
      4 C          -1.0833   -0.4432    0.0827 C.ar    1  LIG1        0.0878
      5 N           0.0117   -1.2153   -0.0383 N.ar    1  LIG1       -0.3553
      6 H          -0.0467   -2.2120   -0.2004 H       1  LIG1        0.1655
      7 H           2.1338   -0.9003   -0.0287 H       1  LIG1        0.0845
      8 O           1.5126    1.9647    0.3794 O.3     1  LIG1       -0.4923
      9 C           2.9144    1.7660    0.3227 C.3     1  LIG1        0.0789
     10 H           3.3677    2.7439    0.4549 H       1  LIG1        0.0660
     11 H           3.2319    1.0953    1.1254 H       1  LIG1        0.0660
     12 H           3.1973    1.3491   -0.6475 H       1  LIG1        0.0660
     13 N          -2.3753    2.7685    0.4907 N.1     1  LIG1       -0.1907
     14 C          -1.5470    1.9736    0.3933 C.1     1  LIG1        0.1050
     15 C          -2.4283   -0.9756    0.0086 C.ar    1  LIG1        0.1083
     16 C          -2.8584   -2.2493   -0.2897 C.ar    1  LIG1        0.1647
     17 C          -4.2892   -2.2299   -0.2784 C.ar    1  LIG1        0.1207
     18 C          -4.6658   -0.9275    0.0433 C.ar    1  LIG1        0.0883
     19 N          -3.5424   -0.2027    0.2114 N.ar    1  LIG1       -0.3478
     20 H          -3.5154    0.7522    0.5468 H       1  LIG1        0.1661
     21 O          -1.9784   -3.2451   -0.5482 O.3     1  LIG1       -0.4916
     22 C          -2.4976   -4.5707   -0.6634 C.3     1  LIG1        0.0789
     23 H          -1.6302   -5.2176   -0.7570 H       1  LIG1        0.0660
     24 H          -3.0683   -4.8284    0.2296 H       1  LIG1        0.0660
     25 H          -3.1267   -4.6546   -1.5488 H       1  LIG1        0.0660
     26 N          -5.9363   -4.1148   -0.9003 N.1     1  LIG1       -0.1907
     27 C          -5.2102   -3.2727   -0.6111 C.1     1  LIG1        0.1050
     28 C          -5.9617   -0.2846    0.1716 C.ar    1  LIG1        0.1083
     29 C          -7.1655   -0.7444    0.6494 C.ar    1  LIG1        0.1647
     30 C          -8.0686    0.3666    0.6497 C.ar    1  LIG1        0.1207
     31 C          -7.3722    1.4660    0.1752 C.ar    1  LIG1        0.0883
     32 N          -6.1063    1.0618   -0.0976 N.ar    1  LIG1       -0.3478
     33 H          -5.4466    1.6097   -0.6332 H       1  LIG1        0.1661
     34 O          -7.3745   -1.9914    1.1108 O.3     1  LIG1       -0.4916
     35 C          -8.4639   -2.6986    0.4993 C.3     1  LIG1        0.0789
     36 H          -8.4167   -3.7070    0.8982 H       1  LIG1        0.0660
     37 H          -9.4113   -2.2273    0.7607 H       1  LIG1        0.0660
     38 H          -8.3233   -2.7203   -0.5815 H       1  LIG1        0.0660
     39 N         -10.4871    0.3715    1.5463 N.1     1  LIG1       -0.1907
     40 C          -9.4122    0.3835    1.1406 C.1     1  LIG1        0.1050
     41 C          -7.7967    2.8425   -0.0260 C.ar    1  LIG1        0.1078
     42 C          -8.9904    3.3306   -0.5047 C.ar    1  LIG1        0.1640
     43 C          -8.8697    4.7562   -0.5439 C.ar    1  LIG1        0.1112
     44 C          -7.6041    5.0720   -0.0894 C.ar    1  LIG1        0.0233
     45 N          -6.9678    3.9200    0.2078 N.ar    1  LIG1       -0.3553
     46 H          -6.0528    3.8591    0.6302 H       1  LIG1        0.1655
     47 H          -7.1402    6.0347    0.0379 H       1  LIG1        0.0821
     48 O         -10.0156    2.5574   -0.9086 O.3     1  LIG1       -0.4916
     49 C         -11.2906    2.8593   -0.3223 C.3     1  LIG1        0.0789
     50 H         -11.9414    2.0361   -0.6010 H       1  LIG1        0.0660
     51 H         -11.1941    2.9017    0.7628 H       1  LIG1        0.0660
     52 H         -11.6723    3.8002   -0.7174 H       1  LIG1        0.0660
     53 N         -10.6314    6.4366   -1.4005 N.1     1  LIG1       -0.1907
     54 C          -9.8435    5.6948   -1.0160 C.1     1  LIG1        0.1044
@<TRIPOS>BOND
     1    25    22    1
     2    53    54    3
     3    54    43    1
     4    48    42    1
     5    48    49    1
     6    26    27    3
     7    23    22    1
     8    52    49    1
     9    22    21    1
    10    22    24    1
    11    12     9    1
    12    33    32    1
    13    27    17    1
    14    50    49    1
    15    38    35    1
    16    21    16    1
    17    43    42   ar
    18    43    44   ar
    19    42    41   ar
    20    49    51    1
    21    16    17   ar
    22    16    15   ar
    23    17    18   ar
    24     6     5    1
    25    32    28   ar
    26    32    31   ar
    27    44    47    1
    28    44    45   ar
    29     5     1   ar
    30     5     4   ar
    31     7     1    1
    32    41    31    1
    33    41    45   ar
    34    15     4    1
    35    15    19   ar
    36    18    28    1
    37    18    19   ar
    38     1     2   ar
    39     4     3   ar
    40    28    29   ar
    41    31    30   ar
    42    45    46    1
    43    19    20    1
    44     2     3   ar
    45     2     8    1
    46     3    14    1
    47     9     8    1
    48     9    10    1
    49     9    11    1
    50    14    13    3
    51    35    37    1
    52    35    36    1
    53    35    34    1
    54    29    30   ar
    55    29    34    1
    56    30    40    1
    57    40    39    3
