@<TRIPOS>MOLECULE
mol_data/opt/m06hf/geoms/mol2/13le13le.out
 30 31 0 0 0
SMALL
GASTEIGER

@<TRIPOS>ATOM
      1 C           0.8438    0.5451   -1.0777 C.ar    1  LIG1        0.0457
      2 C           1.1804    0.8587    0.2178 C.ar    1  LIG1        0.1533
      3 C           0.0316    0.6313    1.0371 C.ar    1  LIG1        0.0930
      4 C          -0.9689    0.1820    0.1885 C.ar    1  LIG1        0.0857
      5 N          -0.4703    0.1381   -1.0668 N.ar    1  LIG1       -0.3554
      6 H          -1.0196   -0.1983   -1.8470 H       1  LIG1        0.1655
      7 H           1.4165    0.5740   -1.9864 H       1  LIG1        0.0845
      8 O           2.3515    1.3081    0.7212 O.3     1  LIG1       -0.4924
      9 C           3.3777    1.4927   -0.2329 C.3     1  LIG1        0.0789
     10 H           4.2418    1.8623    0.3119 H       1  LIG1        0.0660
     11 H           3.6202    0.5434   -0.7187 H       1  LIG1        0.0660
     12 H           3.0689    2.2245   -0.9849 H       1  LIG1        0.0660
     13 C          -0.0817    0.8226    2.4486 C.1     1  LIG1       -0.0638
     14 C          -0.1998    0.9745    3.6380 C.1     1  LIG1       -0.1137
     15 H          -0.2662    1.1308    4.6897 H       1  LIG1        0.1232
     16 C          -2.3423   -0.2054    0.4593 C.ar    1  LIG1        0.1077
     17 C          -3.3307   -0.5568   -0.4297 C.ar    1  LIG1        0.1620
     18 C          -4.5062   -0.8629    0.3193 C.ar    1  LIG1        0.0842
     19 C          -4.1698   -0.6872    1.6496 C.ar    1  LIG1        0.0213
     20 N          -2.8745   -0.2993    1.7168 N.ar    1  LIG1       -0.3554
     21 H          -2.3462   -0.0890    2.5539 H       1  LIG1        0.1655
     22 H          -4.7740   -0.8201    2.5293 H       1  LIG1        0.0820
     23 O          -3.1637   -0.5965   -1.7864 O.3     1  LIG1       -0.4917
     24 C          -3.9074    0.4156   -2.4735 C.3     1  LIG1        0.0789
     25 H          -3.7087    0.2741   -3.5332 H       1  LIG1        0.0660
     26 H          -4.9716    0.2965   -2.2709 H       1  LIG1        0.0660
     27 H          -3.5701    1.4021   -2.1485 H       1  LIG1        0.0660
     28 C          -5.7713   -1.2838   -0.2031 C.1     1  LIG1       -0.0645
     29 C          -6.8304   -1.6311   -0.6549 C.1     1  LIG1       -0.1137
     30 H          -7.7650   -1.9533   -1.0515 H       1  LIG1        0.1232
@<TRIPOS>BOND
     1    25    24    1
     2    24    26    1
     3    24    27    1
     4    24    23    1
     5     7     1    1
     6     6     5    1
     7    23    17    1
     8     1     5   ar
     9     1     2   ar
    10     5     4   ar
    11    30    29    1
    12    12     9    1
    13    11     9    1
    14    29    28    3
    15    17    18   ar
    16    17    16   ar
    17     9    10    1
    18     9     8    1
    19    28    18    1
    20     4    16    1
    21     4     3   ar
    22     2     8    1
    23     2     3   ar
    24    18    19   ar
    25    16    20   ar
    26     3    13    1
    27    19    20   ar
    28    19    22    1
    29    20    21    1
    30    13    14    3
    31    14    15    1
