@<TRIPOS>MOLECULE
mol_data/opt/m06hf/geoms/mol2/13le13le-.out
 30 31 0 0 0
SMALL
GASTEIGER

@<TRIPOS>ATOM
      1 C           1.1496   -0.4357   -0.0004 C.ar    1  LIG1        0.0457
      2 C           0.7995    0.8935   -0.0001 C.ar    1  LIG1        0.1533
      3 C          -0.6267    0.9719    0.0004 C.ar    1  LIG1        0.0930
      4 C          -1.0909   -0.3367    0.0004 C.ar    1  LIG1        0.0857
      5 N          -0.0200   -1.1609   -0.0001 N.ar    1  LIG1       -0.3554
      6 H          -0.1190   -2.1669   -0.0002 H       1  LIG1        0.1655
      7 H           2.1100   -0.9167   -0.0008 H       1  LIG1        0.0845
      8 O           1.5826    1.9953   -0.0002 O.3     1  LIG1       -0.4924
      9 C           2.9726    1.7411   -0.0007 C.3     1  LIG1        0.0789
     10 H           3.4626    2.7108   -0.0007 H       1  LIG1        0.0660
     11 H           3.2563    1.1790    0.8941 H       1  LIG1        0.0660
     12 H           3.2557    1.1792   -0.8959 H       1  LIG1        0.0660
     13 C          -1.4252    2.1563    0.0009 C.1     1  LIG1       -0.0638
     14 C          -2.1138    3.1453    0.0012 C.1     1  LIG1       -0.1137
     15 H          -2.6859    4.0440    0.0016 H       1  LIG1        0.1232
     16 C          -2.4465   -0.8554    0.0008 C.ar    1  LIG1        0.1077
     17 C          -2.8788   -2.1634    0.0008 C.ar    1  LIG1        0.1620
     18 C          -4.3106   -2.1468    0.0013 C.ar    1  LIG1        0.0842
     19 C          -4.6743   -0.8079    0.0016 C.ar    1  LIG1        0.0213
     20 N          -3.5582   -0.0543    0.0014 N.ar    1  LIG1       -0.3554
     21 H          -3.5044    0.9566    0.0015 H       1  LIG1        0.1655
     22 H          -5.6608   -0.3800    0.0021 H       1  LIG1        0.0820
     23 O          -1.9900   -3.1961    0.0004 O.3     1  LIG1       -0.4917
     24 C          -2.5272   -4.5128   -0.0002 C.3     1  LIG1        0.0789
     25 H          -1.6700   -5.1814   -0.0008 H       1  LIG1        0.0660
     26 H          -3.1332   -4.6737    0.8915 H       1  LIG1        0.0660
     27 H          -3.1336   -4.6727   -0.8918 H       1  LIG1        0.0660
     28 C          -5.2578   -3.2236    0.0015 C.1     1  LIG1       -0.0645
     29 C          -6.0779   -4.1033    0.0017 C.1     1  LIG1       -0.1137
     30 H          -6.8034   -4.8834    0.0018 H       1  LIG1        0.1232
@<TRIPOS>BOND
     1    12     9    1
     2    27    24    1
     3    25    24    1
     4     7     1    1
     5    10     9    1
     6     9     8    1
     7     9    11    1
     8     1     2   ar
     9     1     5   ar
    10    24    23    1
    11    24    26    1
    12     8     2    1
    13     6     5    1
    14     2     3   ar
    15     5     4   ar
    16    23    17    1
    17     4     3   ar
    18     4    16    1
    19     3    13    1
    20    17    16   ar
    21    17    18   ar
    22    16    20   ar
    23    13    14    3
    24    14    15    1
    25    18    28    1
    26    18    19   ar
    27    20    21    1
    28    20    19   ar
    29    28    29    3
    30    19    22    1
    31    29    30    1
