@<TRIPOS>MOLECULE
mol_data/opt/m06hf/geoms/mol2/13le13le13le13le.out
 58 61 0 0 0
SMALL
GASTEIGER

@<TRIPOS>ATOM
      1 C           0.7204    0.8095    1.0573 C.ar    1  LIG1        0.0457
      2 C           1.1192   -0.4023    0.5431 C.ar    1  LIG1        0.1533
      3 C          -0.0509   -1.1879    0.3114 C.ar    1  LIG1        0.0930
      4 C          -1.1284   -0.4007    0.6963 C.ar    1  LIG1        0.0858
      5 N          -0.6540    0.7842    1.1374 N.ar    1  LIG1       -0.3554
      6 H          -1.2600    1.4927    1.5270 H       1  LIG1        0.1655
      7 H           1.2872    1.6680    1.3679 H       1  LIG1        0.0845
      8 O           2.3612   -0.8593    0.2722 O.3     1  LIG1       -0.4924
      9 C           3.4098    0.0441    0.5588 C.3     1  LIG1        0.0789
     10 H           4.3332   -0.4637    0.2947 H       1  LIG1        0.0660
     11 H           3.3004    0.9543   -0.0382 H       1  LIG1        0.0660
     12 H           3.4134    0.2977    1.6224 H       1  LIG1        0.0660
     13 C          -0.1370   -2.5328   -0.1722 C.1     1  LIG1       -0.0638
     14 C          -0.2819   -3.6653   -0.5636 C.1     1  LIG1       -0.1137
     15 H          -0.4174   -4.6720   -0.8981 H       1  LIG1        0.1232
     16 C          -2.5448   -0.7090    0.6838 C.ar    1  LIG1        0.1081
     17 C          -3.6303    0.0037    1.1349 C.ar    1  LIG1        0.1627
     18 C          -4.7996   -0.7959    0.9348 C.ar    1  LIG1        0.0937
     19 C          -4.3614   -1.9812    0.3505 C.ar    1  LIG1        0.0862
     20 N          -3.0136   -1.9010    0.2122 N.ar    1  LIG1       -0.3478
     21 H          -2.4146   -2.5671   -0.2606 H       1  LIG1        0.1661
     22 O          -3.5404    1.2444    1.6984 O.3     1  LIG1       -0.4917
     23 C          -4.2320    2.2578    0.9617 C.3     1  LIG1        0.0789
     24 H          -4.0996    3.1817    1.5193 H       1  LIG1        0.0660
     25 H          -3.7970    2.3467   -0.0362 H       1  LIG1        0.0660
     26 H          -5.2910    2.0106    0.8904 H       1  LIG1        0.0660
     27 C          -6.1345   -0.4685    1.3268 C.1     1  LIG1       -0.0638
     28 C          -7.2552   -0.1821    1.6558 C.1     1  LIG1       -0.1137
     29 H          -8.2506    0.0412    1.9610 H       1  LIG1        0.1232
     30 C          -5.0280   -3.2087   -0.0604 C.ar    1  LIG1        0.1082
     31 C          -6.3108   -3.5108   -0.4721 C.ar    1  LIG1        0.1627
     32 C          -6.3320   -4.8902   -0.8464 C.ar    1  LIG1        0.0937
     33 C          -5.0501   -5.3788   -0.6389 C.ar    1  LIG1        0.0862
     34 N          -4.2894   -4.3635   -0.1712 N.ar    1  LIG1       -0.3478
     35 H          -3.3218   -4.5023    0.0959 H       1  LIG1        0.1661
     36 O          -7.3770   -2.6780   -0.5461 O.3     1  LIG1       -0.4917
     37 C          -7.3084   -1.7514   -1.6286 C.3     1  LIG1        0.0789
     38 H          -8.2186   -1.1589   -1.5772 H       1  LIG1        0.0660
     39 H          -6.4381   -1.1024   -1.5166 H       1  LIG1        0.0660
     40 H          -7.2577   -2.2925   -2.5756 H       1  LIG1        0.0660
     41 C          -7.4419   -5.6337   -1.3558 C.1     1  LIG1       -0.0638
     42 C          -8.3606   -6.2780   -1.7940 C.1     1  LIG1       -0.1137
     43 H          -9.1968   -6.8170   -2.1750 H       1  LIG1        0.1232
     44 C          -4.4624   -6.6902   -0.8384 C.ar    1  LIG1        0.1077
     45 C          -3.1662   -7.0919   -0.6057 C.ar    1  LIG1        0.1620
     46 C          -3.0610   -8.4661   -0.9717 C.ar    1  LIG1        0.0842
     47 C          -4.3138   -8.8396   -1.4243 C.ar    1  LIG1        0.0213
     48 N          -5.1376   -7.7679   -1.3418 N.ar    1  LIG1       -0.3554
     49 H          -6.1128   -7.7293   -1.6077 H       1  LIG1        0.1655
     50 H          -4.6477   -9.7920   -1.7961 H       1  LIG1        0.0820
     51 O          -2.1833   -6.2730   -0.1147 O.3     1  LIG1       -0.4917
     52 C          -1.7649   -6.6148    1.2157 C.3     1  LIG1        0.0789
     53 H          -1.0298   -5.8656    1.5023 H       1  LIG1        0.0660
     54 H          -2.6264   -6.5848    1.8854 H       1  LIG1        0.0660
     55 H          -1.3186   -7.6090    1.2171 H       1  LIG1        0.0660
     56 C          -1.8884   -9.2846   -0.8964 C.1     1  LIG1       -0.0645
     57 C          -0.8974   -9.9613   -0.8191 C.1     1  LIG1       -0.1137
     58 H          -0.0212  -10.5642   -0.7588 H       1  LIG1        0.1232
@<TRIPOS>BOND
     1    40    37    1
     2    43    42    1
     3    50    47    1
     4    42    41    3
     5    37    38    1
     6    37    39    1
     7    37    36    1
     8    49    48    1
     9    47    48   ar
    10    47    46   ar
    11    41    32    1
    12    48    44   ar
    13    46    56    1
    14    46    45   ar
    15    15    14    1
    16    56    57    3
    17    32    33   ar
    18    32    31   ar
    19    44    33    1
    20    44    45   ar
    21    57    58    1
    22    33    34   ar
    23    45    51    1
    24    14    13    3
    25    36    31    1
    26    31    30   ar
    27    21    20    1
    28    13     3    1
    29    34    30   ar
    30    34    35    1
    31    51    52    1
    32    30    19    1
    33    11     9    1
    34    25    23    1
    35    20    19   ar
    36    20    16   ar
    37     8     2    1
    38     8     9    1
    39    10     9    1
    40     3     2   ar
    41     3     4   ar
    42    19    18   ar
    43     2     1   ar
    44     9    12    1
    45    16     4    1
    46    16    17   ar
    47     4     5   ar
    48    26    23    1
    49    18    17   ar
    50    18    27    1
    51    23    24    1
    52    23    22    1
    53     1     5   ar
    54     1     7    1
    55    17    22    1
    56     5     6    1
    57    52    55    1
    58    52    53    1
    59    52    54    1
    60    27    28    3
    61    28    29    1
