@<TRIPOS>MOLECULE
mol_data/opt/m06hf/geoms/mol2/13le13le-13le-13le.out
 58 61 0 0 0
SMALL
GASTEIGER

@<TRIPOS>ATOM
      1 C           1.0345   -0.3423    0.0011 C.ar    1  LIG1        0.0457
      2 C           0.5497    0.9176   -0.2623 C.ar    1  LIG1        0.1533
      3 C          -0.8756    0.8377   -0.3162 C.ar    1  LIG1        0.0930
      4 C          -1.1976   -0.4933   -0.0851 C.ar    1  LIG1        0.0858
      5 N          -0.0516   -1.1827    0.1011 N.ar    1  LIG1       -0.3554
      6 H          -0.0496   -2.1608    0.3539 H       1  LIG1        0.1655
      7 H           2.0389   -0.7035    0.1249 H       1  LIG1        0.0845
      8 O           1.2173    2.0776   -0.4474 O.3     1  LIG1       -0.4924
      9 C           2.6245    1.9772   -0.3621 C.3     1  LIG1        0.0789
     10 H           3.0148    2.9777   -0.5267 H       1  LIG1        0.0660
     11 H           2.9206    1.6184    0.6278 H       1  LIG1        0.0660
     12 H           3.0038    1.2977   -1.1307 H       1  LIG1        0.0660
     13 C          -1.8202    1.8956   -0.5121 C.1     1  LIG1       -0.0638
     14 C          -2.6719    2.7382   -0.6600 C.1     1  LIG1       -0.1137
     15 H          -3.4328    3.4807   -0.7771 H       1  LIG1        0.1232
     16 C          -2.4990   -1.1269   -0.0068 C.ar    1  LIG1        0.1081
     17 C          -2.8610   -2.4064    0.3418 C.ar    1  LIG1        0.1627
     18 C          -4.2893   -2.4814    0.3336 C.ar    1  LIG1        0.0937
     19 C          -4.7395   -1.2195   -0.0401 C.ar    1  LIG1        0.0862
     20 N          -3.6511   -0.4327   -0.2365 N.ar    1  LIG1       -0.3478
     21 H          -3.6512    0.5125   -0.6007 H       1  LIG1        0.1661
     22 O          -1.9674   -3.3907    0.6559 O.3     1  LIG1       -0.4917
     23 C          -1.9823   -4.4815   -0.2713 C.3     1  LIG1        0.0789
     24 H          -1.2499   -5.1988    0.0912 H       1  LIG1        0.0660
     25 H          -2.9729   -4.9358   -0.2974 H       1  LIG1        0.0660
     26 H          -1.7078   -4.1211   -1.2649 H       1  LIG1        0.0660
     27 C          -5.0660   -3.6149    0.7278 C.1     1  LIG1       -0.0638
     28 C          -5.6701   -4.5942    1.0795 C.1     1  LIG1       -0.1137
     29 H          -6.2081   -5.4569    1.3964 H       1  LIG1        0.1232
     30 C          -6.0558   -0.6149   -0.1818 C.ar    1  LIG1        0.1082
     31 C          -7.2882   -1.1040   -0.5539 C.ar    1  LIG1        0.1627
     32 C          -8.1938    0.0047   -0.6157 C.ar    1  LIG1        0.0937
     33 C          -7.4559    1.1356   -0.2923 C.ar    1  LIG1        0.0862
     34 N          -6.1873    0.7469   -0.0364 N.ar    1  LIG1       -0.3478
     35 H          -5.4734    1.4051    0.2531 H       1  LIG1        0.1661
     36 O          -7.5594   -2.3930   -0.8635 O.3     1  LIG1       -0.4917
     37 C          -8.4821   -3.0233    0.0248 C.3     1  LIG1        0.0789
     38 H          -8.5645   -4.0537   -0.3119 H       1  LIG1        0.0660
     39 H          -8.0919   -2.9909    1.0430 H       1  LIG1        0.0660
     40 H          -9.4540   -2.5299   -0.0288 H       1  LIG1        0.0660
     41 C          -9.5732   -0.0049   -0.9916 C.1     1  LIG1       -0.0638
     42 C         -10.7373    0.0067   -1.3030 C.1     1  LIG1       -0.1137
     43 H         -11.7620   -0.0158   -1.5934 H       1  LIG1        0.1232
     44 C          -7.8118    2.5404   -0.2108 C.ar    1  LIG1        0.1077
     45 C          -7.0020    3.6119    0.0917 C.ar    1  LIG1        0.1620
     46 C          -7.7964    4.7949    0.0247 C.ar    1  LIG1        0.0842
     47 C          -9.0689    4.3826   -0.3285 C.ar    1  LIG1        0.0213
     48 N          -9.0606    3.0358   -0.4689 N.ar    1  LIG1       -0.3554
     49 H          -9.8395    2.4496   -0.7377 H       1  LIG1        0.1655
     50 H          -9.9558    4.9694   -0.4880 H       1  LIG1        0.0820
     51 O          -5.6675    3.5086    0.3827 O.3     1  LIG1       -0.4917
     52 C          -5.3452    3.8500    1.7392 C.3     1  LIG1        0.0789
     53 H          -4.2761    3.6792    1.8464 H       1  LIG1        0.0660
     54 H          -5.5859    4.8967    1.9229 H       1  LIG1        0.0660
     55 H          -5.9075    3.2065    2.4187 H       1  LIG1        0.0660
     56 C          -7.3571    6.1372    0.2597 C.1     1  LIG1       -0.0645
     57 C          -6.9746    7.2579    0.4674 C.1     1  LIG1       -0.1137
     58 H          -6.6391    8.2534    0.6441 H       1  LIG1        0.1232
@<TRIPOS>BOND
     1    43    42    1
     2    42    41    3
     3    26    23    1
     4    12     9    1
     5    41    32    1
     6    36    31    1
     7    36    37    1
     8    15    14    1
     9    49    48    1
    10    14    13    3
    11    32    31   ar
    12    32    33   ar
    13    21    20    1
    14    31    30   ar
    15    10     9    1
    16    13     3    1
    17    50    47    1
    18    48    47   ar
    19    48    44   ar
    20     8     9    1
    21     8     2    1
    22     9    11    1
    23    47    46   ar
    24     3     2   ar
    25     3     4   ar
    26    38    37    1
    27    25    23    1
    28    33    44    1
    29    33    34   ar
    30    23    24    1
    31    23    22    1
    32     2     1   ar
    33    20    19   ar
    34    20    16   ar
    35    44    45   ar
    36    30    19    1
    37    30    34   ar
    38     4    16    1
    39     4     5   ar
    40    19    18   ar
    41    34    35    1
    42    40    37    1
    43    16    17   ar
    44     1     5   ar
    45     1     7    1
    46    46    45   ar
    47    46    56    1
    48    37    39    1
    49    45    51    1
    50     5     6    1
    51    56    57    3
    52    18    17   ar
    53    18    27    1
    54    17    22    1
    55    51    52    1
    56    57    58    1
    57    27    28    3
    58    28    29    1
    59    52    53    1
    60    52    54    1
    61    52    55    1
