@<TRIPOS>MOLECULE
mol_data/opt/m06hf/geoms/mol2/13le13le13le13le-.out
 58 61 0 0 0
SMALL
GASTEIGER

@<TRIPOS>ATOM
      1 C           0.4517    1.4263   -1.3938 C.ar    1  LIG1        0.0457
      2 C           1.0767    0.2072   -1.2668 C.ar    1  LIG1        0.1533
      3 C           0.0783   -0.7688   -0.9633 C.ar    1  LIG1        0.0930
      4 C          -1.1298   -0.0852   -0.9223 C.ar    1  LIG1        0.0858
      5 N          -0.8918    1.2188   -1.1781 N.ar    1  LIG1       -0.3554
      6 H          -1.6334    1.9051   -1.2049 H       1  LIG1        0.1655
      7 H           0.8417    2.4022   -1.6169 H       1  LIG1        0.0845
      8 O           2.3855   -0.1063   -1.3870 O.3     1  LIG1       -0.4924
      9 C           3.2278    0.9756   -1.7309 C.3     1  LIG1        0.0789
     10 H           4.2334    0.5712   -1.8046 H       1  LIG1        0.0660
     11 H           2.9250    1.4013   -2.6915 H       1  LIG1        0.0660
     12 H           3.1915    1.7463   -0.9557 H       1  LIG1        0.0660
     13 C           0.2402   -2.1724   -0.7329 C.1     1  LIG1       -0.0638
     14 C           0.2992   -3.3614   -0.5344 C.1     1  LIG1       -0.1137
     15 H           0.3433   -4.4145   -0.3525 H       1  LIG1        0.1232
     16 C          -2.4620   -0.5866   -0.6500 C.ar    1  LIG1        0.1081
     17 C          -3.6431    0.0769   -0.4153 C.ar    1  LIG1        0.1627
     18 C          -4.6524   -0.8999   -0.1450 C.ar    1  LIG1        0.0937
     19 C          -4.0272   -2.1393   -0.2463 C.ar    1  LIG1        0.0862
     20 N          -2.7242   -1.9225   -0.5613 N.ar    1  LIG1       -0.3478
     21 H          -2.0335   -2.6287   -0.7842 H       1  LIG1        0.1661
     22 O          -3.7647    1.4369   -0.4322 O.3     1  LIG1       -0.4917
     23 C          -4.0466    1.9943    0.8564 C.3     1  LIG1        0.0789
     24 H          -4.1266    3.0691    0.7132 H       1  LIG1        0.0660
     25 H          -4.9863    1.5939    1.2368 H       1  LIG1        0.0660
     26 H          -3.2302    1.7583    1.5424 H       1  LIG1        0.0660
     27 C          -6.0178   -0.6512    0.1975 C.1     1  LIG1       -0.0638
     28 C          -7.1639   -0.4377    0.4926 C.1     1  LIG1       -0.1137
     29 H          -8.1819   -0.2696    0.7567 H       1  LIG1        0.1232
     30 C          -4.4718   -3.5095   -0.0359 C.ar    1  LIG1        0.1082
     31 C          -5.6845   -4.1547   -0.1743 C.ar    1  LIG1        0.1627
     32 C          -5.4685   -5.5421    0.0910 C.ar    1  LIG1        0.0937
     33 C          -4.1208   -5.6860    0.3892 C.ar    1  LIG1        0.0862
     34 N          -3.5444   -4.4656    0.3076 N.ar    1  LIG1       -0.3478
     35 H          -2.5676   -4.3194    0.5350 H       1  LIG1        0.1661
     36 O          -6.8788   -3.6145   -0.5151 O.3     1  LIG1       -0.4917
     37 C          -6.9633   -3.2128   -1.8823 C.3     1  LIG1        0.0789
     38 H          -7.9622   -2.8051   -2.0162 H       1  LIG1        0.0660
     39 H          -6.2189   -2.4447   -2.0988 H       1  LIG1        0.0660
     40 H          -6.8141   -4.0786   -2.5309 H       1  LIG1        0.0660
     41 C          -6.4343   -6.5955    0.0431 C.1     1  LIG1       -0.0638
     42 C          -7.2273   -7.5012    0.0010 C.1     1  LIG1       -0.1137
     43 H          -7.9589   -8.2744   -0.0431 H       1  LIG1        0.1232
     44 C          -3.3187   -6.8439    0.7373 C.ar    1  LIG1        0.1077
     45 C          -1.9774   -6.8971    1.0419 C.ar    1  LIG1        0.1620
     46 C          -1.6396   -8.2592    1.2977 C.ar    1  LIG1        0.0842
     47 C          -2.8067   -8.9822    1.1271 C.ar    1  LIG1        0.0213
     48 N          -3.7983   -8.1237    0.7894 N.ar    1  LIG1       -0.3554
     49 H          -4.7630   -8.3561    0.5936 H       1  LIG1        0.1655
     50 H          -2.9730  -10.0404    1.2228 H       1  LIG1        0.0820
     51 O          -1.1513   -5.8040    1.0765 O.3     1  LIG1       -0.4917
     52 C          -0.7005   -5.4740    2.3990 C.3     1  LIG1        0.0789
     53 H          -0.0953   -4.5757    2.2972 H       1  LIG1        0.0660
     54 H          -1.5641   -5.2847    3.0393 H       1  LIG1        0.0660
     55 H          -0.1043   -6.2935    2.7993 H       1  LIG1        0.0660
     56 C          -0.3491   -8.7701    1.6487 C.1     1  LIG1       -0.0645
     57 C           0.7386   -9.1831    1.9517 C.1     1  LIG1       -0.1137
     58 H           1.7017   -9.5552    2.2140 H       1  LIG1        0.1232
@<TRIPOS>BOND
     1    11     9    1
     2    40    37    1
     3    39    37    1
     4    38    37    1
     5    37    36    1
     6    10     9    1
     7     9     8    1
     8     9    12    1
     9     7     1    1
    10     1     2   ar
    11     1     5   ar
    12     8     2    1
    13     2     3   ar
    14     6     5    1
    15     5     4   ar
    16     3     4   ar
    17     3    13    1
    18     4    16    1
    19    21    20    1
    20    13    14    3
    21    16    20   ar
    22    16    17   ar
    23    20    19   ar
    24    14    15    1
    25    36    31    1
    26    22    17    1
    27    22    23    1
    28    17    18   ar
    29    19    18   ar
    30    19    30    1
    31    31    30   ar
    32    31    32   ar
    33    18    27    1
    34    43    42    1
    35    30    34   ar
    36    42    41    3
    37    41    32    1
    38    32    33   ar
    39    27    28    3
    40    34    33   ar
    41    34    35    1
    42    33    44    1
    43    28    29    1
    44    49    48    1
    45    24    23    1
    46    44    48   ar
    47    44    45   ar
    48    48    47   ar
    49    23    25    1
    50    23    26    1
    51    45    51    1
    52    45    46   ar
    53    51    52    1
    54    47    50    1
    55    47    46   ar
    56    46    56    1
    57    56    57    3
    58    57    58    1
    59    53    52    1
    60    52    55    1
    61    52    54    1
