@<TRIPOS>MOLECULE
mol_data/opt/m06hf/geoms/mol2/13le6fe6dd6lf-.out
 53 56 0 0 0
SMALL
GASTEIGER

@<TRIPOS>ATOM
      1 C           1.2305   -0.1055   -0.8896 C.ar    1  LIG1        0.0456
      2 C           0.9861    0.9650   -0.0625 C.ar    1  LIG1        0.1532
      3 C          -0.3712    0.8808    0.3769 C.ar    1  LIG1        0.0916
      4 C          -0.9099   -0.2531   -0.2070 C.ar    1  LIG1        0.0709
      5 N           0.0706   -0.8411   -0.9528 N.ar    1  LIG1       -0.3565
      6 H          -0.0897   -1.6165   -1.5796 H       1  LIG1        0.1655
      7 H           2.1145   -0.4064   -1.4218 H       1  LIG1        0.0845
      8 O           1.8139    1.9513    0.3348 O.3     1  LIG1       -0.4924
      9 C           3.1407    1.8539   -0.1472 C.3     1  LIG1        0.0789
     10 H           3.6831    2.6944    0.2750 H       1  LIG1        0.0660
     11 H           3.5939    0.9139    0.1802 H       1  LIG1        0.0660
     12 H           3.1536    1.9132   -1.2392 H       1  LIG1        0.0660
     13 C          -1.0289    1.7834    1.2701 C.1     1  LIG1       -0.0639
     14 C          -1.5868    2.5439    2.0154 C.1     1  LIG1       -0.1137
     15 H          -2.0696    3.2179    2.6848 H       1  LIG1        0.1232
     16 C          -2.5051   -2.1916   -0.1016 C.ar    1  LIG1        0.2223
     17 C          -2.2748   -0.7979   -0.1294 C.ar    1  LIG1        0.0621
     18 C          -3.3853    0.0290   -0.0817 C.ar    1  LIG1       -0.0300
     19 C          -4.6694   -0.5273   -0.0442 C.ar    1  LIG1        0.0516
     20 C          -4.7707   -1.9227   -0.0767 C.ar    1  LIG1        0.0929
     21 N          -3.7071   -2.7222   -0.0985 N.ar    1  LIG1       -0.2111
     22 H          -3.2609    1.1039   -0.0747 H       1  LIG1        0.0639
     23 O          -1.4779   -3.0677   -0.1105 O.3     1  LIG1       -0.4919
     24 H          -0.6940   -2.6589    0.2814 H       1  LIG1        0.2937
     25 C          -5.8274    0.3281    0.0269 C.1     1  LIG1       -0.0675
     26 C          -6.7765    1.0635    0.0835 C.1     1  LIG1       -0.1138
     27 H          -7.6200    1.7134    0.1401 H       1  LIG1        0.1232
     28 C          -6.3561   -3.6778    0.8031 C.ar    1  LIG1        0.1500
     29 C          -6.0907   -2.6170   -0.0736 C.ar    1  LIG1        0.0388
     30 C          -7.1030   -2.2685   -0.9582 C.ar    1  LIG1       -0.0303
     31 C          -8.2952   -2.9874   -0.9384 C.ar    1  LIG1        0.0785
     32 C          -8.4605   -4.0373   -0.0215 C.ar    1  LIG1        0.0950
     33 N          -7.4942   -4.3570    0.8336 N.ar    1  LIG1       -0.2342
     34 H          -6.9661   -1.4599   -1.6641 H       1  LIG1        0.0638
     35 N          -4.6349   -4.3766    2.6309 N.1     1  LIG1       -0.1893
     36 C          -5.3727   -4.0722    1.8089 C.1     1  LIG1        0.1198
     37 N         -10.1559   -2.3493   -2.6297 N.1     1  LIG1       -0.1908
     38 C          -9.3409   -2.6481   -1.8797 C.1     1  LIG1        0.1013
     39 C          -9.6824   -6.2366   -0.0175 C.ar    1  LIG1        0.2241
     40 C          -9.7216   -4.8247    0.0566 C.ar    1  LIG1        0.0666
     41 C         -10.9501   -4.2176    0.2247 C.ar    1  LIG1       -0.0043
     42 C         -12.0950   -5.0124    0.3399 C.ar    1  LIG1        0.1357
     43 C         -11.9437   -6.3857    0.2811 C.ar    1  LIG1        0.0728
     44 N         -10.7584   -6.9796    0.0994 N.ar    1  LIG1       -0.2171
     45 H         -11.0491   -3.1410    0.2870 H       1  LIG1        0.0663
     46 H         -12.8017   -7.0430    0.3798 H       1  LIG1        0.0868
     47 O          -8.4949   -6.8135   -0.2402 O.3     1  LIG1       -0.4792
     48 C          -8.4622   -8.2380   -0.2363 C.3     1  LIG1        0.0804
     49 H          -7.4226   -8.4982   -0.4119 H       1  LIG1        0.0660
     50 H          -8.8005   -8.6172    0.7274 H       1  LIG1        0.0660
     51 H          -9.1029   -8.6328   -1.0245 H       1  LIG1        0.0660
     52 O         -13.2919   -4.3882    0.5149 O.3     1  LIG1       -0.5052
     53 H         -14.0040   -5.0314    0.5985 H       1  LIG1        0.2922
@<TRIPOS>BOND
     1    37    38    3
     2    38    31    1
     3    34    30    1
     4     6     5    1
     5     7     1    1
     6    12     9    1
     7    51    48    1
     8    30    31   ar
     9    30    29   ar
    10     5     1   ar
    11     5     4   ar
    12    31    32   ar
    13     1     2   ar
    14    49    48    1
    15    47    48    1
    16    47    39    1
    17    48    50    1
    18     4    17    1
    19     4     3   ar
    20     9    11    1
    21     9    10    1
    22     9     8    1
    23    17    16   ar
    24    17    18   ar
    25    23    16    1
    26    23    24    1
    27    16    21   ar
    28    21    20   ar
    29    18    22    1
    30    18    19   ar
    31    20    29    1
    32    20    19   ar
    33    29    28   ar
    34     2     8    1
    35     2     3   ar
    36    19    25    1
    37    32    40    1
    38    32    33   ar
    39    39    40   ar
    40    39    44   ar
    41    25    26    3
    42    40    41   ar
    43    26    27    1
    44    44    43   ar
    45    41    45    1
    46    41    42   ar
    47    43    42   ar
    48    43    46    1
    49    42    52    1
    50     3    13    1
    51    52    53    1
    52    28    33   ar
    53    28    36    1
    54    13    14    3
    55    36    35    3
    56    14    15    1
