@<TRIPOS>MOLECULE
mol_data/opt/m06hf/geoms/mol2/13le13le-13le13le-.out
 58 61 0 0 0
SMALL
GASTEIGER

@<TRIPOS>ATOM
      1 C           1.2502   -0.6610    0.2723 C.ar    1  LIG1        0.0457
      2 C           0.9041    0.5582   -0.2621 C.ar    1  LIG1        0.1533
      3 C          -0.5206    0.6095   -0.3538 C.ar    1  LIG1        0.0930
      4 C          -0.9849   -0.6023    0.1362 C.ar    1  LIG1        0.0858
      5 N           0.0809   -1.3489    0.5035 N.ar    1  LIG1       -0.3554
      6 H          -0.0223   -2.2611    0.9258 H       1  LIG1        0.1655
      7 H           2.2089   -1.0871    0.5035 H       1  LIG1        0.0845
      8 O           1.6943    1.5786   -0.6639 O.3     1  LIG1       -0.4924
      9 C           3.0803    1.3611   -0.4954 C.3     1  LIG1        0.0789
     10 H           3.5794    2.2558   -0.8568 H       1  LIG1        0.0660
     11 H           3.3144    1.2036    0.5616 H       1  LIG1        0.0660
     12 H           3.4026    0.4929   -1.0778 H       1  LIG1        0.0660
     13 C          -1.3384    1.6674   -0.8575 C.1     1  LIG1       -0.0638
     14 C          -2.0718    2.5254   -1.2788 C.1     1  LIG1       -0.1137
     15 H          -2.7106    3.2775   -1.6809 H       1  LIG1        0.1232
     16 C          -2.3424   -1.0920    0.2830 C.ar    1  LIG1        0.1081
     17 C          -2.7838   -2.3380    0.6694 C.ar    1  LIG1        0.1627
     18 C          -4.2094   -2.3188    0.6652 C.ar    1  LIG1        0.0937
     19 C          -4.5726   -1.0329    0.2766 C.ar    1  LIG1        0.0862
     20 N          -3.4458   -0.3173    0.0570 N.ar    1  LIG1       -0.3478
     21 H          -3.4335    0.6426   -0.2787 H       1  LIG1        0.1661
     22 O          -1.9600   -3.3804    0.9911 O.3     1  LIG1       -0.4917
     23 C          -1.9602   -4.4146    0.0019 C.3     1  LIG1        0.0789
     24 H          -1.2921   -5.1901    0.3686 H       1  LIG1        0.0660
     25 H          -2.9674   -4.8143   -0.1180 H       1  LIG1        0.0660
     26 H          -1.5999   -4.0139   -0.9476 H       1  LIG1        0.0660
     27 C          -5.1245   -3.3622    1.0087 C.1     1  LIG1       -0.0638
     28 C          -5.9353   -4.2083    1.2894 C.1     1  LIG1       -0.1137
     29 H          -6.6577   -4.9394    1.5723 H       1  LIG1        0.1232
     30 C          -5.8801   -0.4313    0.1151 C.ar    1  LIG1        0.1082
     31 C          -6.1948    0.8846   -0.1421 C.ar    1  LIG1        0.1627
     32 C          -7.6160    0.9895   -0.2024 C.ar    1  LIG1        0.0937
     33 C          -8.1051   -0.2952    0.0147 C.ar    1  LIG1        0.0862
     34 N          -7.0535   -1.1259    0.1999 N.ar    1  LIG1       -0.3478
     35 H          -7.1484   -2.1145    0.4187 H       1  LIG1        0.1661
     36 O          -5.2723    1.8790   -0.2980 O.3     1  LIG1       -0.4917
     37 C          -5.1517    2.7174    0.8581 C.3     1  LIG1        0.0789
     38 H          -4.3318    3.4015    0.6538 H       1  LIG1        0.0660
     39 H          -6.0806    3.2670    1.0152 H       1  LIG1        0.0660
     40 H          -4.9233    2.1055    1.7324 H       1  LIG1        0.0660
     41 C          -8.4002    2.1601   -0.4442 C.1     1  LIG1       -0.0638
     42 C          -9.0711    3.1426   -0.6351 C.1     1  LIG1       -0.1137
     43 H          -9.6395    4.0246   -0.8201 H       1  LIG1        0.1232
     44 C          -9.4582   -0.8164    0.0473 C.ar    1  LIG1        0.1077
     45 C          -9.8603   -2.1284    0.1490 C.ar    1  LIG1        0.1620
     46 C         -11.2857   -2.1518    0.1279 C.ar    1  LIG1        0.0842
     47 C         -11.6909   -0.8334    0.0216 C.ar    1  LIG1        0.0213
     48 N         -10.5881   -0.0475   -0.0215 N.ar    1  LIG1       -0.3554
     49 H         -10.5655    0.9600   -0.1023 H       1  LIG1        0.1655
     50 H         -12.6859   -0.4272   -0.0205 H       1  LIG1        0.0820
     51 O          -9.0052   -3.1908    0.2433 O.3     1  LIG1       -0.4917
     52 C          -8.9102   -3.9388   -0.9749 C.3     1  LIG1        0.0789
     53 H          -8.1792   -4.7234   -0.7940 H       1  LIG1        0.0660
     54 H          -9.8812   -4.3696   -1.2202 H       1  LIG1        0.0660
     55 H          -8.5708   -3.2851   -1.7808 H       1  LIG1        0.0660
     56 C         -12.1212   -3.3119    0.2042 C.1     1  LIG1       -0.0645
     57 C         -12.8102   -4.2955    0.2611 C.1     1  LIG1       -0.1137
     58 H         -13.4236   -5.1640    0.3231 H       1  LIG1        0.1232
@<TRIPOS>BOND
     1    55    52    1
     2    15    14    1
     3    14    13    3
     4    54    52    1
     5    12     9    1
     6    52    53    1
     7    52    51    1
     8    26    23    1
     9    13     3    1
    10    10     9    1
    11    43    42    1
    12     8     9    1
    13     8     2    1
    14    42    41    3
    15     9    11    1
    16    41    32    1
    17     3     2   ar
    18     3     4   ar
    19    36    31    1
    20    36    37    1
    21    21    20    1
    22     2     1   ar
    23    32    31   ar
    24    32    33   ar
    25    31    30   ar
    26    25    23    1
    27    49    48    1
    28    48    47   ar
    29    48    44   ar
    30    50    47    1
    31    23    24    1
    32    23    22    1
    33    33    44    1
    34    33    34   ar
    35    47    46   ar
    36    44    45   ar
    37    20    19   ar
    38    20    16   ar
    39    30    34   ar
    40    30    19    1
    41    46    45   ar
    42    46    56    1
    43     4    16    1
    44     4     5   ar
    45    45    51    1
    46    34    35    1
    47    56    57    3
    48    57    58    1
    49     1     7    1
    50     1     5   ar
    51    19    18   ar
    52    16    17   ar
    53     5     6    1
    54    38    37    1
    55    18    17   ar
    56    18    27    1
    57    17    22    1
    58    37    39    1
    59    37    40    1
    60    27    28    3
    61    28    29    1
