@<TRIPOS>MOLECULE
mol_data/opt/m06hf/geoms/mol2/13le12ae4ai4lf-.out
 52 55 0 0 0
SMALL
GASTEIGER

@<TRIPOS>ATOM
      1 C           1.3430   -0.0289   -0.1519 C.ar    1  LIG1        0.0444
      2 C           0.8470    1.2537   -0.2631 C.ar    1  LIG1        0.1380
      3 C          -0.5710    1.1893   -0.2428 C.ar    1  LIG1        0.0085
      4 C          -0.8914   -0.1452   -0.1176 C.ar    1  LIG1        0.0895
      5 N           0.2611   -0.8674   -0.0642 N.ar    1  LIG1       -0.3551
      6 H           0.2925   -1.8687    0.0365 H       1  LIG1        0.1655
      7 H           2.3497   -0.4041   -0.1266 H       1  LIG1        0.0844
      8 O           1.5305    2.4219   -0.3779 O.3     1  LIG1       -0.4936
      9 C           2.9356    2.2953   -0.3451 C.3     1  LIG1        0.0789
     10 H           3.3402    3.2994   -0.4443 H       1  LIG1        0.0660
     11 H           3.2572    1.8555    0.6036 H       1  LIG1        0.0660
     12 H           3.2826    1.6720   -1.1752 H       1  LIG1        0.0660
     13 H          -1.2598    2.0128   -0.3109 H       1  LIG1        0.0676
     14 C          -2.1843   -0.7976   -0.0459 C.ar    1  LIG1        0.1968
     15 C          -3.4557   -0.3199   -0.0097 C.ar    1  LIG1        0.2073
     16 C          -4.3096   -1.4662    0.0667 C.ar    1  LIG1        0.2059
     17 C          -3.5063   -2.5640    0.0844 C.ar    1  LIG1        0.1822
     18 O          -2.2130   -2.1585    0.0034 O.2     1  LIG1       -0.4457
     19 O          -3.8530    0.9733   -0.0477 O.3     1  LIG1       -0.5008
     20 H          -4.8182    0.9952   -0.0473 H       1  LIG1        0.2924
     21 O          -5.6718   -1.3640    0.1023 O.3     1  LIG1       -0.5008
     22 H          -6.0641   -2.0147   -0.4935 H       1  LIG1        0.2924
     23 C          -2.9265   -4.9396   -0.3945 C.ar    1  LIG1        0.0390
     24 C          -3.8142   -3.9916    0.1204 C.ar    1  LIG1        0.0394
     25 C          -5.0039   -4.4580    0.6806 C.ar    1  LIG1       -0.0446
     26 C          -5.3005   -5.8172    0.6746 C.ar    1  LIG1       -0.0237
     27 C          -4.3537   -6.6756    0.0885 C.ar    1  LIG1        0.0774
     28 N          -3.1900   -6.2377   -0.4014 N.ar    1  LIG1       -0.2539
     29 H          -5.6838   -3.7585    1.1559 H       1  LIG1        0.0628
     30 H          -1.9772   -4.6277   -0.8125 H       1  LIG1        0.0837
     31 C          -6.5711   -6.3104    1.3381 C.3     1  LIG1       -0.0377
     32 H          -6.4647   -7.3508    1.6450 H       1  LIG1        0.0278
     33 H          -7.4074   -6.2409    0.6417 H       1  LIG1        0.0278
     34 H          -6.7829   -5.6995    2.2159 H       1  LIG1        0.0278
     35 C          -5.6934   -8.7421   -0.5063 C.ar    1  LIG1        0.1293
     36 C          -5.8321  -10.1274   -0.5111 C.ar    1  LIG1       -0.0190
     37 C          -4.5407   -8.1590    0.0433 C.ar    1  LIG1        0.0425
     38 C          -4.8112  -10.9263    0.0053 C.ar    1  LIG1       -0.0553
     39 H          -6.7136  -10.5954   -0.9258 H       1  LIG1        0.0654
     40 C          -3.5302   -8.9816    0.5246 C.ar    1  LIG1       -0.0461
     41 C          -3.6450  -10.3740    0.5215 C.ar    1  LIG1       -0.0496
     42 H          -2.6339   -8.5087    0.9100 H       1  LIG1        0.0628
     43 H          -4.9322  -12.0029   -0.0097 H       1  LIG1        0.0621
     44 O          -6.6134   -7.8895   -1.0313 O.3     1  LIG1       -0.4945
     45 C          -7.8559   -8.4243   -1.4417 C.3     1  LIG1        0.0788
     46 H          -8.4586   -7.5749   -1.7525 H       1  LIG1        0.0660
     47 H          -7.7263   -9.1079   -2.2843 H       1  LIG1        0.0660
     48 H          -8.3440   -8.9431   -0.6116 H       1  LIG1        0.0660
     49 C          -2.5239  -11.2390    1.0680 C.3     1  LIG1       -0.0397
     50 H          -2.3695  -11.0398    2.1297 H       1  LIG1        0.0278
     51 H          -1.5919  -11.0278    0.5416 H       1  LIG1        0.0278
     52 H          -2.7598  -12.2956    0.9444 H       1  LIG1        0.0278
@<TRIPOS>BOND
     1    47    45    1
     2    46    45    1
     3    45    44    1
     4    45    48    1
     5    12     9    1
     6    44    35    1
     7    39    36    1
     8    30    23    1
     9    36    35   ar
    10    36    38   ar
    11    35    37   ar
    12    22    21    1
    13    10     9    1
    14    28    23   ar
    15    28    27   ar
    16    23    24   ar
    17     8     9    1
    18     8     2    1
    19     9    11    1
    20    13     3    1
    21     2     3   ar
    22     2     1   ar
    23     3     4   ar
    24     1     7    1
    25     1     5   ar
    26     4     5   ar
    27     4    14    1
    28     5     6    1
    29    19    20    1
    30    19    15    1
    31    14    15   ar
    32    14    18   ar
    33    43    38    1
    34    15    16   ar
    35    18    17   ar
    36    38    41   ar
    37    37    27    1
    38    37    40   ar
    39    16    17   ar
    40    16    21    1
    41    17    24    1
    42    27    26   ar
    43    24    25   ar
    44    41    40   ar
    45    41    49    1
    46    40    42    1
    47    51    49    1
    48    33    31    1
    49    26    25   ar
    50    26    31    1
    51    25    29    1
    52    52    49    1
    53    49    50    1
    54    31    32    1
    55    31    34    1
