@<TRIPOS>MOLECULE
mol_data/opt/m06hf/geoms/mol2/13le13le-13le.out
 44 46 0 0 0
SMALL
GASTEIGER

@<TRIPOS>ATOM
      1 C           1.2449   -0.6274    0.2495 C.ar    1  LIG1        0.0457
      2 C           0.9000    0.6423   -0.1524 C.ar    1  LIG1        0.1533
      3 C          -0.5227    0.6934   -0.2735 C.ar    1  LIG1        0.0930
      4 C          -0.9865   -0.5687    0.0649 C.ar    1  LIG1        0.0858
      5 N           0.0773   -1.3449    0.3726 N.ar    1  LIG1       -0.3554
      6 H          -0.0279   -2.2987    0.6913 H       1  LIG1        0.1655
      7 H           2.2015   -1.0713    0.4544 H       1  LIG1        0.0845
      8 O           1.6925    1.7055   -0.4156 O.3     1  LIG1       -0.4924
      9 C           3.0770    1.4627   -0.2718 C.3     1  LIG1        0.0789
     10 H           3.5815    2.3916   -0.5224 H       1  LIG1        0.0660
     11 H           3.3079    1.1783    0.7590 H       1  LIG1        0.0660
     12 H           3.3954    0.6690   -0.9537 H       1  LIG1        0.0660
     13 C          -1.3428    1.7918   -0.6778 C.1     1  LIG1       -0.0638
     14 C          -2.0813    2.6795   -1.0209 C.1     1  LIG1       -0.1137
     15 H          -2.7304    3.4567   -1.3528 H       1  LIG1        0.1232
     16 C          -2.3409   -1.0857    0.1223 C.ar    1  LIG1        0.1081
     17 C          -2.7708   -2.3729    0.3515 C.ar    1  LIG1        0.1627
     18 C          -4.1969   -2.3716    0.3194 C.ar    1  LIG1        0.0937
     19 C          -4.5730   -1.0540    0.0766 C.ar    1  LIG1        0.0862
     20 N          -3.4518   -0.3053   -0.0336 N.ar    1  LIG1       -0.3478
     21 H          -3.4533    0.6901   -0.2482 H       1  LIG1        0.1661
     22 O          -1.9407   -3.4376    0.5667 O.3     1  LIG1       -0.4917
     23 C          -1.8832   -4.3318   -0.5492 C.3     1  LIG1        0.0789
     24 H          -1.2107   -5.1367   -0.2617 H       1  LIG1        0.0660
     25 H          -2.8767   -4.7296   -0.7584 H       1  LIG1        0.0660
     26 H          -1.4981   -3.8032   -1.4236 H       1  LIG1        0.0660
     27 C          -5.0784   -3.4813    0.5071 C.1     1  LIG1       -0.0638
     28 C          -5.8271   -4.4145    0.6533 C.1     1  LIG1       -0.1137
     29 H          -6.4639   -5.2552    0.8049 H       1  LIG1        0.1232
     30 C          -5.8793   -0.4343   -0.0407 C.ar    1  LIG1        0.1077
     31 C          -6.1773    0.9045   -0.1460 C.ar    1  LIG1        0.1620
     32 C          -7.5961    1.0329   -0.2169 C.ar    1  LIG1        0.0842
     33 C          -8.1025   -0.2529   -0.1592 C.ar    1  LIG1        0.0213
     34 N          -7.0646   -1.1185   -0.0568 N.ar    1  LIG1       -0.3554
     35 H          -7.1234   -2.1254    0.0115 H       1  LIG1        0.1655
     36 H          -9.1241   -0.5875   -0.1891 H       1  LIG1        0.0820
     37 O          -5.2426    1.9010   -0.1627 O.3     1  LIG1       -0.4917
     38 C          -5.1739    2.6205    1.0745 C.3     1  LIG1        0.0789
     39 H          -4.3668    3.3408    0.9641 H       1  LIG1        0.0660
     40 H          -6.1205    3.1293    1.2581 H       1  LIG1        0.0660
     41 H          -4.9515    1.9273    1.8885 H       1  LIG1        0.0660
     42 C          -8.3355    2.2542   -0.3293 C.1     1  LIG1       -0.0645
     43 C          -8.9396    3.2906   -0.4145 C.1     1  LIG1       -0.1137
     44 H          -9.4736    4.2084   -0.5017 H       1  LIG1        0.1232
@<TRIPOS>BOND
     1    26    23    1
     2    15    14    1
     3    14    13    3
     4    12     9    1
     5    25    23    1
     6    13     3    1
     7    23    24    1
     8    23    22    1
     9    10     9    1
    10    44    43    1
    11     8     9    1
    12     8     2    1
    13    43    42    3
    14    42    32    1
    15     3     2   ar
    16     3     4   ar
    17     9    11    1
    18    21    20    1
    19    32    33   ar
    20    32    31   ar
    21    36    33    1
    22    37    31    1
    23    37    38    1
    24    33    34   ar
    25     2     1   ar
    26    31    30   ar
    27    34    30   ar
    28    34    35    1
    29    30    19    1
    30    20    19   ar
    31    20    16   ar
    32     4    16    1
    33     4     5   ar
    34    19    18   ar
    35    16    17   ar
    36     1     5   ar
    37     1     7    1
    38    18    17   ar
    39    18    27    1
    40    17    22    1
    41     5     6    1
    42    27    28    3
    43    28    29    1
    44    39    38    1
    45    38    40    1
    46    38    41    1
