@<TRIPOS>MOLECULE
mol_data/opt/m06hf/geoms/mol2/13le13le-13le-13le-.out
 58 61 0 0 0
SMALL
GASTEIGER

@<TRIPOS>ATOM
      1 C           1.0158   -0.4861   -0.3822 C.ar    1  LIG1        0.0457
      2 C           0.5848    0.7029   -0.9233 C.ar    1  LIG1        0.1533
      3 C          -0.8358    0.7591   -0.7826 C.ar    1  LIG1        0.0930
      4 C          -1.2112   -0.4179   -0.1515 C.ar    1  LIG1        0.0858
      5 N          -0.0975   -1.1486    0.0791 N.ar    1  LIG1       -0.3554
      6 H          -0.1321   -2.0376    0.5600 H       1  LIG1        0.1655
      7 H           1.9998   -0.9062   -0.2856 H       1  LIG1        0.0845
      8 O           1.2979    1.6947   -1.5013 O.3     1  LIG1       -0.4924
      9 C           2.6933    1.4737   -1.5451 C.3     1  LIG1        0.0789
     10 H           3.1295    2.3458   -2.0240 H       1  LIG1        0.0660
     11 H           3.0922    1.3646   -0.5324 H       1  LIG1        0.0660
     12 H           2.9170    0.5764   -2.1291 H       1  LIG1        0.0660
     13 C          -1.7173    1.8040   -1.2001 C.1     1  LIG1       -0.0638
     14 C          -2.4850    2.6681   -1.5406 C.1     1  LIG1       -0.1137
     15 H          -3.1377    3.4453   -1.8657 H       1  LIG1        0.1232
     16 C          -2.5200   -0.9028    0.2453 C.ar    1  LIG1        0.1081
     17 C          -2.8652   -2.1208    0.7844 C.ar    1  LIG1        0.1627
     18 C          -4.2733   -2.1246    1.0054 C.ar    1  LIG1        0.0937
     19 C          -4.7340   -0.8858    0.5809 C.ar    1  LIG1        0.0862
     20 N          -3.6662   -0.1662    0.1375 N.ar    1  LIG1       -0.3478
     21 H          -3.7008    0.7386   -0.3168 H       1  LIG1        0.1661
     22 O          -1.9701   -3.1188    1.0525 O.3     1  LIG1       -0.4917
     23 C          -2.1513   -4.2688    0.2186 C.3     1  LIG1        0.0789
     24 H          -1.4001   -4.9917    0.5276 H       1  LIG1        0.0660
     25 H          -3.1508   -4.6787    0.3654 H       1  LIG1        0.0660
     26 H          -2.0069   -3.9884   -0.8266 H       1  LIG1        0.0660
     27 C          -5.0472   -3.1712    1.5974 C.1     1  LIG1       -0.0638
     28 C          -5.6876   -4.0572    2.0969 C.1     1  LIG1       -0.1137
     29 H          -6.2709   -4.8296    2.5409 H       1  LIG1        0.1232
     30 C          -6.0824   -0.3313    0.5751 C.ar    1  LIG1        0.1082
     31 C          -7.2729   -0.8868    0.1637 C.ar    1  LIG1        0.1627
     32 C          -8.2907    0.1049    0.3056 C.ar    1  LIG1        0.0937
     33 C          -7.6760    1.2391    0.8095 C.ar    1  LIG1        0.0862
     34 N          -6.3533    0.9568    0.9666 N.ar    1  LIG1       -0.3478
     35 H          -5.6697    1.6109    1.3166 H       1  LIG1        0.1661
     36 O          -7.4357   -2.1472   -0.3077 O.3     1  LIG1       -0.4917
     37 C          -7.5202   -2.2065   -1.7313 C.3     1  LIG1        0.0789
     38 H          -7.6566   -3.2548   -1.9842 H       1  LIG1        0.0660
     39 H          -8.3705   -1.6198   -2.0832 H       1  LIG1        0.0660
     40 H          -6.5955   -1.8286   -2.1730 H       1  LIG1        0.0660
     41 C          -9.6779   -0.0608   -0.0013 C.1     1  LIG1       -0.0638
     42 C         -10.8368   -0.2349   -0.2703 C.1     1  LIG1       -0.1137
     43 H         -11.8644   -0.3950   -0.4996 H       1  LIG1        0.1232
     44 C          -8.2315    2.5455    1.1577 C.ar    1  LIG1        0.1077
     45 C          -8.9031    3.4555    0.3775 C.ar    1  LIG1        0.1620
     46 C          -9.2005    4.5934    1.1964 C.ar    1  LIG1        0.0842
     47 C          -8.6861    4.3209    2.4487 C.ar    1  LIG1        0.0213
     48 N          -8.0993    3.1015    2.4114 N.ar    1  LIG1       -0.3554
     49 H          -7.7138    2.6148    3.2051 H       1  LIG1        0.1655
     50 H          -8.7075    4.9207    3.3415 H       1  LIG1        0.0820
     51 O          -9.1678    3.2917   -0.9403 O.3     1  LIG1       -0.4917
     52 C         -10.5596    3.3036   -1.2648 C.3     1  LIG1        0.0789
     53 H         -10.6195    3.0684   -2.3249 H       1  LIG1        0.0660
     54 H         -11.0766    2.5414   -0.6811 H       1  LIG1        0.0660
     55 H         -10.9843    4.2890   -1.0709 H       1  LIG1        0.0660
     56 C          -9.8558    5.8027    0.7975 C.1     1  LIG1       -0.0645
     57 C         -10.4076    6.8166    0.4614 C.1     1  LIG1       -0.1137
     58 H         -10.8888    7.7179    0.1612 H       1  LIG1        0.1232
@<TRIPOS>BOND
     1    53    52    1
     2    40    37    1
     3    12     9    1
     4    39    37    1
     5    10     9    1
     6    38    37    1
     7    15    14    1
     8    37    36    1
     9     9     8    1
    10     9    11    1
    11    14    13    3
    12     8     2    1
    13    52    55    1
    14    52    51    1
    15    52    54    1
    16    13     3    1
    17    51    45    1
    18     2     3   ar
    19     2     1   ar
    20    26    23    1
    21     3     4   ar
    22    43    42    1
    23     1     7    1
    24     1     5   ar
    25    21    20    1
    26    36    31    1
    27    42    41    3
    28     4     5   ar
    29     4    16    1
    30    41    32    1
    31     5     6    1
    32    20    16   ar
    33    20    19   ar
    34    58    57    1
    35    31    32   ar
    36    31    30   ar
    37    23    25    1
    38    23    24    1
    39    23    22    1
    40    16    17   ar
    41    32    33   ar
    42    45    44   ar
    43    45    46   ar
    44    57    56    3
    45    30    19    1
    46    30    34   ar
    47    19    18   ar
    48    17    18   ar
    49    17    22    1
    50    56    46    1
    51    33    34   ar
    52    33    44    1
    53    34    35    1
    54    18    27    1
    55    44    48   ar
    56    46    47   ar
    57    27    28    3
    58    28    29    1
    59    48    47   ar
    60    48    49    1
    61    47    50    1
