@<TRIPOS>MOLECULE
mol_data/opt/m06hf/geoms/mol2/13le13al4fa13fe12id-4df-6ih13lh-.out
 101 108 0 0 0
SMALL
GASTEIGER

@<TRIPOS>ATOM
      1 C           0.6556    1.1034   -0.3556 C.ar    1  LIG1        0.0457
      2 C          -0.0094    2.2916   -0.5361 C.ar    1  LIG1        0.1533
      3 C          -1.3992    2.0657   -0.2836 C.ar    1  LIG1        0.0929
      4 C          -1.5269    0.7286    0.0500 C.ar    1  LIG1        0.0822
      5 N          -0.2903    0.1648   -0.0053 N.ar    1  LIG1       -0.3555
      6 H          -0.0867   -0.7633    0.3274 H       1  LIG1        0.1655
      7 H           1.6961    0.8491   -0.4419 H       1  LIG1        0.0845
      8 O           0.4743    3.4989   -0.9010 O.3     1  LIG1       -0.4924
      9 C           1.8656    3.5344   -1.1437 C.3     1  LIG1        0.0789
     10 H           2.1031    4.5546   -1.4317 H       1  LIG1        0.0660
     11 H           2.4167    3.2652   -0.2377 H       1  LIG1        0.0660
     12 H           2.1281    2.8474   -1.9535 H       1  LIG1        0.0660
     13 C          -2.4511    3.0273   -0.3909 C.1     1  LIG1       -0.0638
     14 C          -3.3342    3.8379   -0.4802 C.1     1  LIG1       -0.1137
     15 H          -4.1127    4.5583   -0.5726 H       1  LIG1        0.1232
     16 C          -2.7104   -0.0471    0.4050 C.ar    1  LIG1        0.0682
     17 C          -3.8221    0.3113    1.1372 C.ar    1  LIG1        0.0075
     18 C          -4.6700   -0.8315    1.1698 C.ar    1  LIG1        0.1460
     19 C          -4.0575   -1.8453    0.4600 C.ar    1  LIG1        0.0927
     20 N          -2.8500   -1.3503    0.0230 N.ar    1  LIG1       -0.3500
     21 H          -2.3039   -1.7919   -0.7010 H       1  LIG1        0.1661
     22 H          -3.9717    1.2732    1.5966 H       1  LIG1        0.0676
     23 O          -5.8477   -0.9896    1.8181 O.3     1  LIG1       -0.4930
     24 C          -6.3826    0.1824    2.3999 C.3     1  LIG1        0.0789
     25 H          -7.3430   -0.0995    2.8237 H       1  LIG1        0.0660
     26 H          -5.7258    0.5548    3.1912 H       1  LIG1        0.0660
     27 H          -6.5218    0.9581    1.6423 H       1  LIG1        0.0660
     28 C          -5.7522   -3.5321   -0.2813 C.ar    1  LIG1        0.1267
     29 C          -6.1244   -4.8478   -0.5350 C.ar    1  LIG1       -0.0103
     30 C          -4.4633   -3.2313    0.1876 C.ar    1  LIG1        0.0433
     31 C          -5.2083   -5.8892   -0.3665 C.ar    1  LIG1        0.0054
     32 H          -7.1247   -5.0712   -0.8862 H       1  LIG1        0.0661
     33 C          -3.5605   -4.2838    0.3460 C.ar    1  LIG1       -0.0484
     34 C          -3.9102   -5.5974    0.0609 C.ar    1  LIG1       -0.0517
     35 H          -2.5677   -4.0599    0.7166 H       1  LIG1        0.0625
     36 O          -6.6011   -2.5007   -0.4935 O.3     1  LIG1       -0.5061
     37 H          -7.4602   -2.8254   -0.7820 H       1  LIG1        0.2922
     38 H          -3.1670   -6.3772    0.1664 H       1  LIG1        0.0624
     39 C          -5.6336   -7.2691   -0.6392 C.ar    1  LIG1        0.0904
     40 C          -6.7192   -7.7552   -1.3382 C.ar    1  LIG1        0.1581
     41 C          -6.6705   -9.1763   -1.3185 C.ar    1  LIG1        0.0949
     42 C          -5.5440   -9.5208   -0.5838 C.ar    1  LIG1        0.1021
     43 N          -4.9410   -8.3720   -0.1958 N.ar    1  LIG1       -0.3478
     44 H          -4.1400   -8.3426    0.4162 H       1  LIG1        0.1661
     45 O          -7.6614   -7.0062   -1.9645 O.3     1  LIG1       -0.5035
     46 H          -8.2762   -7.5963   -2.4191 H       1  LIG1        0.2923
     47 C          -7.5953  -10.0125   -2.0164 C.1     1  LIG1       -0.0637
     48 C          -8.4103  -10.6511   -2.6301 C.1     1  LIG1       -0.1137
     49 H          -9.1218  -11.2322   -3.1701 H       1  LIG1        0.1232
     50 C          -4.9952  -10.8225   -0.2360 C.ar    1  LIG1        0.1572
     51 C          -5.5602  -12.0145    0.0912 C.ar    1  LIG1        0.0148
     52 C          -4.4383  -12.8905    0.3319 C.ar    1  LIG1        0.1010
     53 C          -3.3005  -12.1573    0.1619 C.ar    1  LIG1        0.1547
     54 O          -3.6356  -10.9044   -0.1916 O.2     1  LIG1       -0.4517
     55 C          -7.0134  -12.3787    0.2260 C.3     1  LIG1       -0.0348
     56 H          -7.1421  -13.0237    1.0948 H       1  LIG1        0.0279
     57 H          -7.3537  -12.9088   -0.6638 H       1  LIG1        0.0279
     58 H          -7.6123  -11.4771    0.3459 H       1  LIG1        0.0279
     59 N          -4.6260  -15.4174    0.8256 N.1     1  LIG1       -0.1907
     60 C          -4.5237  -14.2932    0.6200 C.1     1  LIG1        0.1032
     61 C          -1.3097  -13.2427    1.2452 C.ar    1  LIG1        0.0632
     62 C           0.0546  -13.5447    1.2266 C.ar    1  LIG1       -0.0324
     63 C          -1.8656  -12.4821    0.2114 C.ar    1  LIG1        0.0394
     64 C           0.8820  -13.0895    0.2081 C.ar    1  LIG1        0.0266
     65 H           0.4814  -14.1263    2.0334 H       1  LIG1        0.0638
     66 C          -1.0431  -12.0090   -0.8089 C.ar    1  LIG1       -0.0076
     67 C           0.3151  -12.3112   -0.8156 C.ar    1  LIG1        0.1253
     68 H          -1.4788  -11.4192   -1.6070 H       1  LIG1        0.0662
     69 N          -2.6943  -13.9671    3.3152 N.1     1  LIG1       -0.1908
     70 C          -2.1002  -13.6551    2.3841 C.1     1  LIG1        0.0999
     71 O           1.1364  -11.8872   -1.8028 O.3     1  LIG1       -0.5061
     72 H           0.6447  -11.4248   -2.4902 H       1  LIG1        0.2922
     73 C           3.3261  -12.4637    0.3556 C.ar    1  LIG1        0.0469
     74 C           2.3319  -13.4418    0.1998 C.ar    1  LIG1        0.0084
     75 C           2.7086  -14.7711    0.0860 C.ar    1  LIG1       -0.0294
     76 C           4.0603  -15.1405    0.1010 C.ar    1  LIG1        0.0531
     77 C           4.9888  -14.0819    0.2048 C.ar    1  LIG1        0.1116
     78 N           4.6050  -12.8113    0.3516 N.ar    1  LIG1       -0.2478
     79 H           1.9479  -15.5377   -0.0129 H       1  LIG1        0.0643
     80 C           2.9998  -10.9970    0.5418 C.3     1  LIG1       -0.0217
     81 H           2.2335  -10.8651    1.3077 H       1  LIG1        0.0293
     82 H           2.6332  -10.5751   -0.3954 H       1  LIG1        0.0293
     83 H           3.9094  -10.4809    0.8417 H       1  LIG1        0.0293
     84 N           4.4338  -16.4554    0.0686 N.pl3   1  LIG1       -0.3563
     85 H           3.7284  -17.1454   -0.1261 H       1  LIG1        0.1424
     86 H           5.3994  -16.7065   -0.1156 H       1  LIG1        0.1424
     87 C           6.4539  -14.2718    0.2244 C.ar    1  LIG1        0.1108
     88 C           7.3483  -15.2424   -0.1992 C.ar    1  LIG1        0.1673
     89 C           8.6670  -14.8003    0.0908 C.ar    1  LIG1        0.0851
     90 C           8.5393  -13.5637    0.6826 C.ar    1  LIG1        0.0267
     91 N           7.2160  -13.2627    0.7377 N.ar    1  LIG1       -0.3548
     92 H           6.7804  -12.4125    1.0655 H       1  LIG1        0.1655
     93 H           9.2980  -12.9027    1.0621 H       1  LIG1        0.0827
     94 O           7.0759  -16.4414   -0.8193 O.3     1  LIG1       -0.4911
     95 C           6.9029  -16.3093   -2.2314 C.3     1  LIG1        0.0790
     96 H           7.7989  -15.8681   -2.6708 H       1  LIG1        0.0660
     97 H           6.7459  -17.3133   -2.6199 H       1  LIG1        0.0660
     98 H           6.0377  -15.6783   -2.4425 H       1  LIG1        0.0660
     99 N           9.8734  -15.5052   -0.1665 N.pl3   1  LIG1       -0.3540
    100 H           9.6924  -16.5041   -0.1750 H       1  LIG1        0.1425
    101 H          10.2729  -15.2466   -1.0633 H       1  LIG1        0.1425
@<TRIPOS>BOND
     1    49    48    1
     2    96    95    1
     3    48    47    3
     4    97    95    1
     5    72    71    1
     6    98    95    1
     7    46    45    1
     8    95    94    1
     9    47    41    1
    10    45    40    1
    11    12     9    1
    12    71    67    1
    13    68    66    1
    14    10     9    1
    15    40    41   ar
    16    40    39   ar
    17    41    42   ar
    18     9     8    1
    19     9    11    1
    20   101    99    1
    21     8     2    1
    22    32    29    1
    23    94    88    1
    24    67    66   ar
    25    67    64   ar
    26    66    63   ar
    27    37    36    1
    28    21    20    1
    29    57    55    1
    30    39    31    1
    31    39    43   ar
    32    42    50    1
    33    42    43   ar
    34    15    14    1
    35     2     1   ar
    36     2     3   ar
    37    29    31   ar
    38    29    28   ar
    39    36    28    1
    40    14    13    3
    41     7     1    1
    42    82    80    1
    43    13     3    1
    44    31    34   ar
    45     1     5   ar
    46     3     4   ar
    47    28    30   ar
    48    50    54   ar
    49    50    51   ar
    50    88    89   ar
    51    88    87   ar
    52    43    44    1
    53    54    53   ar
    54   100    99    1
    55    99    89    1
    56    85    84    1
    57    86    84    1
    58    79    75    1
    59     5     4   ar
    60     5     6    1
    61    20    16   ar
    62    20    19   ar
    63     4    16    1
    64    34    38    1
    65    34    33   ar
    66    84    76    1
    67    75    76   ar
    68    75    74   ar
    69    89    90   ar
    70    51    55    1
    71    51    52   ar
    72    76    77   ar
    73    53    63    1
    74    53    52   ar
    75    30    33   ar
    76    30    19    1
    77    74    64    1
    78    74    73   ar
    79    77    87    1
    80    77    78   ar
    81    64    62   ar
    82    63    61   ar
    83    87    91   ar
    84    55    58    1
    85    55    56    1
    86    52    60    1
    87    33    35    1
    88    78    73   ar
    89    73    80    1
    90    16    17   ar
    91    19    18   ar
    92    80    83    1
    93    80    81    1
    94    60    59    3
    95    90    91   ar
    96    90    93    1
    97    91    92    1
    98    17    18   ar
    99    17    22    1
   100    18    23    1
   101    62    61   ar
   102    62    65    1
   103    61    70    1
   104    27    24    1
   105    23    24    1
   106    70    69    3
   107    24    25    1
   108    24    26    1
