@<TRIPOS>MOLECULE
mol_data/opt/m06hf/geoms/mol2/13le13le13le-13le-.out
 58 61 0 0 0
SMALL
GASTEIGER

@<TRIPOS>ATOM
      1 C           0.5196    1.5447    0.6367 C.ar    1  LIG1        0.0457
      2 C           1.1849    0.3902    0.2958 C.ar    1  LIG1        0.1533
      3 C           0.2284   -0.6698    0.2452 C.ar    1  LIG1        0.0930
      4 C          -0.9969   -0.1024    0.5612 C.ar    1  LIG1        0.0858
      5 N          -0.8080    1.2171    0.7904 N.ar    1  LIG1       -0.3554
      6 H          -1.5606    1.8213    1.0917 H       1  LIG1        0.1655
      7 H           0.8719    2.5490    0.7828 H       1  LIG1        0.0845
      8 O           2.4975    0.1952    0.0396 O.3     1  LIG1       -0.4924
      9 C           3.3001    1.3558    0.1178 C.3     1  LIG1        0.0789
     10 H           4.3155    1.0433   -0.1089 H       1  LIG1        0.0660
     11 H           2.9659    2.0987   -0.6121 H       1  LIG1        0.0660
     12 H           3.2572    1.7812    1.1246 H       1  LIG1        0.0660
     13 C           0.4584   -2.0537   -0.0258 C.1     1  LIG1       -0.0638
     14 C           0.6079   -3.2325   -0.2234 C.1     1  LIG1       -0.1137
     15 H           0.7588   -4.2776   -0.3666 H       1  LIG1        0.1232
     16 C          -2.3139   -0.7049    0.6513 C.ar    1  LIG1        0.1081
     17 C          -3.5215   -0.1140    0.9486 C.ar    1  LIG1        0.1627
     18 C          -4.5260   -1.1252    0.9069 C.ar    1  LIG1        0.0937
     19 C          -3.8674   -2.3068    0.5799 C.ar    1  LIG1        0.0862
     20 N          -2.5497   -2.0342    0.4384 N.ar    1  LIG1       -0.3478
     21 H          -1.8432   -2.7328    0.2171 H       1  LIG1        0.1661
     22 O          -3.6831    1.2174    1.2139 O.3     1  LIG1       -0.4917
     23 C          -4.3748    1.9139    0.1718 C.3     1  LIG1        0.0789
     24 H          -4.4312    2.9539    0.4847 H       1  LIG1        0.0660
     25 H          -3.8162    1.8234   -0.7624 H       1  LIG1        0.0660
     26 H          -5.3775    1.5038    0.0500 H       1  LIG1        0.0660
     27 C          -5.9274   -0.9843    1.1513 C.1     1  LIG1       -0.0638
     28 C          -7.1110   -0.8757    1.3511 C.1     1  LIG1       -0.1137
     29 H          -8.1545   -0.7534    1.5293 H       1  LIG1        0.1232
     30 C          -4.3681   -3.6500    0.3641 C.ar    1  LIG1        0.1082
     31 C          -3.7009   -4.7342   -0.1580 C.ar    1  LIG1        0.1627
     32 C          -4.6095   -5.8311   -0.2065 C.ar    1  LIG1        0.0937
     33 C          -5.8148   -5.3607    0.2961 C.ar    1  LIG1        0.0862
     34 N          -5.6458   -4.0536    0.6396 N.ar    1  LIG1       -0.3478
     35 H          -6.3809   -3.4216    0.9308 H       1  LIG1        0.1661
     36 O          -2.3946   -4.7165   -0.5535 O.3     1  LIG1       -0.4917
     37 C          -2.2528   -4.6885   -1.9798 C.3     1  LIG1        0.0789
     38 H          -1.1850   -4.6533   -2.1811 H       1  LIG1        0.0660
     39 H          -2.6957   -5.5863   -2.4114 H       1  LIG1        0.0660
     40 H          -2.7397   -3.7961   -2.3776 H       1  LIG1        0.0660
     41 C          -4.3011   -7.1539   -0.6519 C.1     1  LIG1       -0.0638
     42 C          -3.9908   -8.2511   -1.0340 C.1     1  LIG1       -0.1137
     43 H          -3.7137   -9.2243   -1.3656 H       1  LIG1        0.1232
     44 C          -7.0901   -6.0391    0.4939 C.ar    1  LIG1        0.1077
     45 C          -7.8099   -6.8517   -0.3496 C.ar    1  LIG1        0.1620
     46 C          -9.0245   -7.2070    0.3234 C.ar    1  LIG1        0.0842
     47 C          -8.9875   -6.5856    1.5559 C.ar    1  LIG1        0.0213
     48 N          -7.8346   -5.8810    1.6427 N.ar    1  LIG1       -0.3554
     49 H          -7.5017   -5.4079    2.4681 H       1  LIG1        0.1655
     50 H          -9.7064   -6.6110    2.3558 H       1  LIG1        0.0820
     51 O          -7.4278   -7.1845   -1.6047 O.3     1  LIG1       -0.4917
     52 C          -7.3150   -8.5902   -1.8300 C.3     1  LIG1        0.0789
     53 H          -6.8651   -8.6982   -2.8141 H       1  LIG1        0.0660
     54 H          -6.6673   -9.0321   -1.0720 H       1  LIG1        0.0660
     55 H          -8.3004   -9.0557   -1.8095 H       1  LIG1        0.0660
     56 C         -10.1036   -7.9983   -0.1877 C.1     1  LIG1       -0.0645
     57 C         -11.0099   -8.6598   -0.6202 C.1     1  LIG1       -0.1137
     58 H         -11.8166   -9.2361   -1.0093 H       1  LIG1        0.1232
@<TRIPOS>BOND
     1    53    52    1
     2    39    37    1
     3    40    37    1
     4    38    37    1
     5    37    36    1
     6    52    55    1
     7    52    51    1
     8    52    54    1
     9    51    45    1
    10    43    42    1
    11    42    41    3
    12    58    57    1
    13    25    23    1
    14    41    32    1
    15    57    56    3
    16    11     9    1
    17    36    31    1
    18    15    14    1
    19    45    46   ar
    20    45    44   ar
    21    14    13    3
    22    32    31   ar
    23    32    33   ar
    24    56    46    1
    25    31    30   ar
    26    10     9    1
    27    13     3    1
    28     8     9    1
    29     8     2    1
    30    26    23    1
    31     9    12    1
    32    23    24    1
    33    23    22    1
    34    21    20    1
    35     3     2   ar
    36     3     4   ar
    37     2     1   ar
    38    33    44    1
    39    33    34   ar
    40    46    47   ar
    41    30    19    1
    42    30    34   ar
    43    20    19   ar
    44    20    16   ar
    45    44    48   ar
    46     4    16    1
    47     4     5   ar
    48    19    18   ar
    49     1     7    1
    50     1     5   ar
    51    34    35    1
    52    16    17   ar
    53     5     6    1
    54    18    17   ar
    55    18    27    1
    56    17    22    1
    57    27    28    3
    58    28    29    1
    59    47    48   ar
    60    47    50    1
    61    48    49    1
