@<TRIPOS>MOLECULE
mol_data/opt/m06hf/geoms/mol2/13le13le13le-13le.out
 58 61 0 0 0
SMALL
GASTEIGER

@<TRIPOS>ATOM
      1 C           0.6182    1.5739    0.9625 C.ar    1  LIG1        0.0457
      2 C           1.3162    0.4404    0.6177 C.ar    1  LIG1        0.1533
      3 C           0.3697   -0.6046    0.3849 C.ar    1  LIG1        0.0930
      4 C          -0.8829   -0.0486    0.5990 C.ar    1  LIG1        0.0858
      5 N          -0.7187    1.2492    0.9409 N.ar    1  LIG1       -0.3554
      6 H          -1.5005    1.8386    1.1929 H       1  LIG1        0.1655
      7 H           0.9530    2.5625    1.2177 H       1  LIG1        0.0845
      8 O           2.6494    0.2543    0.4938 O.3     1  LIG1       -0.4924
      9 C           3.4372    1.3960    0.7627 C.3     1  LIG1        0.0789
     10 H           4.4723    1.0950    0.6260 H       1  LIG1        0.0660
     11 H           3.1878    2.2021    0.0668 H       1  LIG1        0.0660
     12 H           3.2798    1.7329    1.7915 H       1  LIG1        0.0660
     13 C           0.6254   -1.9695    0.0456 C.1     1  LIG1       -0.0638
     14 C           0.7924   -3.1342   -0.2146 C.1     1  LIG1       -0.1137
     15 H           0.9552   -4.1692   -0.4095 H       1  LIG1        0.1232
     16 C          -2.2030   -0.6410    0.4951 C.ar    1  LIG1        0.1081
     17 C          -3.4354   -0.0566    0.6871 C.ar    1  LIG1        0.1627
     18 C          -4.4318   -1.0504    0.4604 C.ar    1  LIG1        0.0937
     19 C          -3.7431   -2.2150    0.1355 C.ar    1  LIG1        0.0862
     20 N          -2.4163   -1.9518    0.1692 N.ar    1  LIG1       -0.3478
     21 H          -1.6884   -2.6406   -0.0032 H       1  LIG1        0.1661
     22 O          -3.6189    1.2553    1.0247 O.3     1  LIG1       -0.4917
     23 C          -4.2248    2.0235   -0.0204 C.3     1  LIG1        0.0789
     24 H          -4.3271    3.0354    0.3645 H       1  LIG1        0.0660
     25 H          -3.5832    2.0111   -0.9041 H       1  LIG1        0.0660
     26 H          -5.2056    1.6146   -0.2638 H       1  LIG1        0.0660
     27 C          -5.8550   -0.9325    0.5330 C.1     1  LIG1       -0.0638
     28 C          -7.0583   -0.8813    0.5692 C.1     1  LIG1       -0.1137
     29 H          -8.1235   -0.8438    0.5819 H       1  LIG1        0.1232
     30 C          -4.2385   -3.5289   -0.2204 C.ar    1  LIG1        0.1082
     31 C          -3.5445   -4.6014   -0.7357 C.ar    1  LIG1        0.1627
     32 C          -4.4740   -5.6633   -0.9429 C.ar    1  LIG1        0.0937
     33 C          -5.7102   -5.1780   -0.5271 C.ar    1  LIG1        0.0862
     34 N          -5.5460   -3.9058   -0.0981 N.ar    1  LIG1       -0.3478
     35 H          -6.3122   -3.3158    0.2163 H       1  LIG1        0.1661
     36 O          -2.2054   -4.5976   -1.0023 O.3     1  LIG1       -0.4917
     37 C          -1.9177   -4.3952   -2.3910 C.3     1  LIG1        0.0789
     38 H          -0.8345   -4.3667   -2.4787 H       1  LIG1        0.0660
     39 H          -2.3286   -5.2176   -2.9777 H       1  LIG1        0.0660
     40 H          -2.3462   -3.4463   -2.7198 H       1  LIG1        0.0660
     41 C          -4.2136   -6.9676   -1.4664 C.1     1  LIG1       -0.0638
     42 C          -4.0080   -8.0660   -1.9170 C.1     1  LIG1       -0.1137
     43 H          -3.7949   -9.0349   -2.3053 H       1  LIG1        0.1232
     44 C          -7.0211   -5.7969   -0.4826 C.ar    1  LIG1        0.1077
     45 C          -8.1862   -5.2830    0.0387 C.ar    1  LIG1        0.1620
     46 C          -9.2112   -6.2590   -0.1355 C.ar    1  LIG1        0.0842
     47 C          -8.6157   -7.3333   -0.7717 C.ar    1  LIG1        0.0213
     48 N          -7.3086   -7.0407   -0.9760 N.ar    1  LIG1       -0.3554
     49 H          -6.6173   -7.6324   -1.4166 H       1  LIG1        0.1655
     50 H          -9.0498   -8.2661   -1.0847 H       1  LIG1        0.0820
     51 O          -8.2911   -4.0483    0.6160 O.3     1  LIG1       -0.4917
     52 C          -8.4170   -4.1060    2.0425 C.3     1  LIG1        0.0789
     53 H          -8.4556   -3.0756    2.3868 H       1  LIG1        0.0660
     54 H          -9.3324   -4.6336    2.3112 H       1  LIG1        0.0660
     55 H          -7.5482   -4.6136    2.4658 H       1  LIG1        0.0660
     56 C         -10.5803   -6.1397    0.2667 C.1     1  LIG1       -0.0645
     57 C         -11.7252   -6.0291    0.6179 C.1     1  LIG1       -0.1137
     58 H         -12.7427   -5.9300    0.9178 H       1  LIG1        0.1232
@<TRIPOS>BOND
     1    39    37    1
     2    40    37    1
     3    38    37    1
     4    37    36    1
     5    43    42    1
     6    42    41    3
     7    41    32    1
     8    49    48    1
     9    50    47    1
    10    36    31    1
    11    48    47   ar
    12    48    44   ar
    13    32    31   ar
    14    32    33   ar
    15    25    23    1
    16    47    46   ar
    17    31    30   ar
    18    33    44    1
    19    33    34   ar
    20    44    45   ar
    21    15    14    1
    22    26    23    1
    23    30    34   ar
    24    30    19    1
    25    14    13    3
    26    46    45   ar
    27    46    56    1
    28    34    35    1
    29    23    24    1
    30    23    22    1
    31    21    20    1
    32    45    51    1
    33    13     3    1
    34    11     9    1
    35    19    20   ar
    36    19    18   ar
    37    20    16   ar
    38    56    57    3
    39     3     4   ar
    40     3     2   ar
    41    18    27    1
    42    18    17   ar
    43     8     2    1
    44     8     9    1
    45    16     4    1
    46    16    17   ar
    47    27    28    3
    48    28    29    1
    49     4     5   ar
    50    51    52    1
    51     2     1   ar
    52    57    58    1
    53    10     9    1
    54    17    22    1
    55     9    12    1
    56     5     1   ar
    57     5     6    1
    58     1     7    1
    59    52    54    1
    60    52    53    1
    61    52    55    1
