@<TRIPOS>MOLECULE
mol_data/opt/m06hf/geoms/mol2/13le13le13le.out
 44 46 0 0 0
SMALL
GASTEIGER

@<TRIPOS>ATOM
      1 C           0.3158    1.4350   -1.4393 C.ar    1  LIG1        0.0457
      2 C           0.8615    0.2430   -1.0220 C.ar    1  LIG1        0.1533
      3 C          -0.1972   -0.5710   -0.5145 C.ar    1  LIG1        0.0930
      4 C          -1.3583    0.1754   -0.6473 C.ar    1  LIG1        0.0858
      5 N          -1.0371    1.3680   -1.1980 N.ar    1  LIG1       -0.3554
      6 H          -1.7377    2.0602   -1.4267 H       1  LIG1        0.1655
      7 H           0.7659    2.3061   -1.8785 H       1  LIG1        0.0845
      8 O           2.1499   -0.1662   -1.0424 O.3     1  LIG1       -0.4924
      9 C           3.0651    0.7822   -1.5516 C.3     1  LIG1        0.0789
     10 H           4.0482    0.3233   -1.4976 H       1  LIG1        0.0660
     11 H           2.8225    1.0249   -2.5903 H       1  LIG1        0.0660
     12 H           3.0440    1.6924   -0.9455 H       1  LIG1        0.0660
     13 C          -0.1209   -1.8837    0.0452 C.1     1  LIG1       -0.0638
     14 C          -0.1145   -2.9846    0.5343 C.1     1  LIG1       -0.1137
     15 H          -0.1028   -3.9462    0.9934 H       1  LIG1        0.1232
     16 C          -2.7285   -0.1527   -0.3013 C.ar    1  LIG1        0.1081
     17 C          -3.8490    0.6458   -0.3374 C.ar    1  LIG1        0.1627
     18 C          -4.9612   -0.1394    0.0881 C.ar    1  LIG1        0.0937
     19 C          -4.4540   -1.4065    0.3590 C.ar    1  LIG1        0.0862
     20 N          -3.1232   -1.3924    0.1166 N.ar    1  LIG1       -0.3478
     21 H          -2.5098   -2.1900    0.2729 H       1  LIG1        0.1661
     22 O          -3.8501    1.9582   -0.7202 O.3     1  LIG1       -0.4917
     23 C          -4.0215    2.8576    0.3797 C.3     1  LIG1        0.0789
     24 H          -4.0190    3.8601   -0.0418 H       1  LIG1        0.0660
     25 H          -4.9726    2.6615    0.8755 H       1  LIG1        0.0660
     26 H          -3.1974    2.7356    1.0855 H       1  LIG1        0.0660
     27 C          -6.3263    0.2679    0.2079 C.1     1  LIG1       -0.0638
     28 C          -7.4772    0.6077    0.3219 C.1     1  LIG1       -0.1137
     29 H          -8.4894    0.9323    0.3951 H       1  LIG1        0.1232
     30 C          -5.1026   -2.6261    0.8021 C.ar    1  LIG1        0.1077
     31 C          -4.5572   -3.8836    0.9182 C.ar    1  LIG1        0.1620
     32 C          -5.5824   -4.7651    1.3727 C.ar    1  LIG1        0.0842
     33 C          -6.7182   -3.9901    1.5222 C.ar    1  LIG1        0.0213
     34 N          -6.4151   -2.7142    1.1801 N.ar    1  LIG1       -0.3554
     35 H          -7.0449   -1.9234    1.1816 H       1  LIG1        0.1655
     36 H          -7.7019   -4.2748    1.8506 H       1  LIG1        0.0820
     37 O          -3.2578   -4.1879    0.6253 O.3     1  LIG1       -0.4917
     38 C          -3.1165   -4.8875   -0.6171 C.3     1  LIG1        0.0789
     39 H          -2.0486   -5.0234   -0.7710 H       1  LIG1        0.0660
     40 H          -3.6217   -5.8517   -0.5568 H       1  LIG1        0.0660
     41 H          -3.5399   -4.2870   -1.4249 H       1  LIG1        0.0660
     42 C          -5.4483   -6.1686    1.6238 C.1     1  LIG1       -0.0645
     43 C          -5.3187   -7.3479    1.8207 C.1     1  LIG1       -0.1137
     44 H          -5.2003   -8.3903    2.0060 H       1  LIG1        0.1232
@<TRIPOS>BOND
     1    11     9    1
     2     7     1    1
     3     9    10    1
     4     9     8    1
     5     9    12    1
     6     1     5   ar
     7     1     2   ar
     8     6     5    1
     9    41    38    1
    10     5     4   ar
    11     8     2    1
    12     2     3   ar
    13    39    38    1
    14    22    17    1
    15    22    23    1
    16     4     3   ar
    17     4    16    1
    18    38    40    1
    19    38    37    1
    20     3    13    1
    21    17    16   ar
    22    17    18   ar
    23    16    20   ar
    24    24    23    1
    25    13    14    3
    26    18    27    1
    27    18    19   ar
    28    20    21    1
    29    20    19   ar
    30    27    28    3
    31    28    29    1
    32    19    30    1
    33    23    25    1
    34    23    26    1
    35    14    15    1
    36    37    31    1
    37    30    31   ar
    38    30    34   ar
    39    31    32   ar
    40    34    35    1
    41    34    33   ar
    42    32    33   ar
    43    32    42    1
    44    33    36    1
    45    42    43    3
    46    43    44    1
