@<TRIPOS>MOLECULE
mol_data/opt/m06hf/geoms/mol2/13lf6lf6ea-13ah-.out
 50 53 0 0 0
SMALL
GASTEIGER

@<TRIPOS>ATOM
      1 C           1.3594   -0.2425    0.4049 C.ar    1  LIG1        0.0481
      2 C           0.9330    0.9833   -0.0616 C.ar    1  LIG1        0.1792
      3 C          -0.4614    0.8970   -0.2758 C.ar    1  LIG1        0.1845
      4 C          -0.8632   -0.3805    0.0658 C.ar    1  LIG1        0.0975
      5 N           0.2646   -1.0469    0.4743 N.ar    1  LIG1       -0.3545
      6 H           0.2333   -2.0079    0.7777 H       1  LIG1        0.1656
      7 H           2.3366   -0.5914    0.6861 H       1  LIG1        0.0845
      8 O           1.6042    2.1426   -0.3142 O.3     1  LIG1       -0.4900
      9 C           3.0026    2.0720   -0.1161 C.3     1  LIG1        0.0790
     10 H           3.4030    3.0509   -0.3657 H       1  LIG1        0.0660
     11 H           3.2247    1.8338    0.9277 H       1  LIG1        0.0660
     12 H           3.4376    1.3112   -0.7700 H       1  LIG1        0.0660
     13 O          -1.2437    1.9135   -0.7378 O.3     1  LIG1       -0.5019
     14 H          -0.6686    2.6669   -0.9221 H       1  LIG1        0.2924
     15 C          -2.4748   -2.3096    0.3997 C.ar    1  LIG1        0.2247
     16 C          -2.2023   -0.9692    0.0245 C.ar    1  LIG1        0.0670
     17 C          -3.2922   -0.2232   -0.4015 C.ar    1  LIG1       -0.0037
     18 C          -4.5649   -0.7965   -0.4344 C.ar    1  LIG1        0.1437
     19 C          -4.7180   -2.1140   -0.0205 C.ar    1  LIG1        0.1187
     20 N          -3.6674   -2.8404    0.3817 N.ar    1  LIG1       -0.2086
     21 H          -3.1672    0.8026   -0.7214 H       1  LIG1        0.0663
     22 O          -1.4360   -3.0879    0.8058 O.3     1  LIG1       -0.4792
     23 C          -1.7654   -4.4274    1.1761 C.3     1  LIG1        0.0804
     24 H          -0.8166   -4.9014    1.4138 H       1  LIG1        0.0660
     25 H          -2.4260   -4.4220    2.0417 H       1  LIG1        0.0660
     26 H          -2.2637   -4.9314    0.3491 H       1  LIG1        0.0660
     27 O          -5.6025   -0.0275   -0.8699 O.3     1  LIG1       -0.5046
     28 H          -6.3396   -0.5905   -1.1371 H       1  LIG1        0.2922
     29 C          -6.2953   -4.0014   -0.6197 C.ar    1  LIG1        0.1231
     30 C          -6.0583   -2.7626   -0.0045 C.ar    1  LIG1        0.0379
     31 C          -7.1391   -2.1600    0.6495 C.ar    1  LIG1       -0.0477
     32 C          -8.3733   -2.7859    0.6730 C.ar    1  LIG1       -0.0336
     33 C          -8.5014   -4.0256    0.0355 C.ar    1  LIG1        0.0886
     34 N          -7.4800   -4.6093   -0.5940 N.ar    1  LIG1       -0.2363
     35 H          -6.9923   -1.2081    1.1467 H       1  LIG1        0.0626
     36 C          -5.2480   -4.6817   -1.3599 C.1     1  LIG1       -0.0491
     37 C          -4.4089   -5.2503   -2.0032 C.1     1  LIG1       -0.1124
     38 H          -3.6654   -5.7528   -2.5775 H       1  LIG1        0.1232
     39 H          -9.2185   -2.3413    1.1784 H       1  LIG1        0.0640
     40 C          -9.7668   -4.7682    0.0097 C.ar    1  LIG1        0.0668
     41 C         -11.0207   -4.5107    0.5329 C.ar    1  LIG1       -0.0142
     42 C         -11.8482   -5.6080    0.1802 C.ar    1  LIG1        0.0427
     43 C         -11.0681   -6.4923   -0.5397 C.ar    1  LIG1        0.0230
     44 N          -9.8134   -5.9698   -0.6217 N.ar    1  LIG1       -0.3578
     45 H          -8.9991   -6.3642   -1.0707 H       1  LIG1        0.1654
     46 H         -11.3190   -7.4415   -0.9808 H       1  LIG1        0.0826
     47 H         -11.3220   -3.6543    1.1131 H       1  LIG1        0.0658
     48 N         -13.2034   -5.7600    0.5626 N.pl3   1  LIG1       -0.3568
     49 H         -13.7736   -4.9897    0.2313 H       1  LIG1        0.1424
     50 H         -13.5968   -6.6287    0.2211 H       1  LIG1        0.1424
@<TRIPOS>BOND
     1    38    37    1
     2    37    36    3
     3    36    29    1
     4    28    27    1
     5    45    44    1
     6    46    43    1
     7    14    13    1
     8    27    18    1
     9    12     9    1
    10    13     3    1
    11    21    17    1
    12    44    43   ar
    13    44    40   ar
    14    29    34   ar
    15    29    30   ar
    16    34    33   ar
    17    43    42   ar
    18    18    17   ar
    19    18    19   ar
    20    17    16   ar
    21    10     9    1
    22     8     9    1
    23     8     2    1
    24     3     2   ar
    25     3     4   ar
    26     9    11    1
    27     2     1   ar
    28    19    30    1
    29    19    20   ar
    30    30    31   ar
    31    40    33    1
    32    40    41   ar
    33    16     4    1
    34    16    15   ar
    35    33    32   ar
    36     4     5   ar
    37    42    41   ar
    38    42    48    1
    39    50    48    1
    40    49    48    1
    41    26    23    1
    42    20    15   ar
    43    15    22    1
    44     1     5   ar
    45     1     7    1
    46     5     6    1
    47    41    47    1
    48    31    32   ar
    49    31    35    1
    50    32    39    1
    51    22    23    1
    52    23    24    1
    53    23    25    1
