@<TRIPOS>MOLECULE
mol_data/opt/m06hf/geoms/mol2/13lf13lf-13lf13lf-.out
 54 57 0 0 0
SMALL
GASTEIGER

@<TRIPOS>ATOM
      1 C           1.2207   -0.7681   -0.4420 C.ar    1  LIG1        0.0482
      2 C           0.8687    0.5482   -0.2327 C.ar    1  LIG1        0.1793
      3 C          -0.5451    0.6059   -0.1440 C.ar    1  LIG1        0.1859
      4 C          -1.0188   -0.6723   -0.3012 C.ar    1  LIG1        0.1124
      5 N           0.0609   -1.4938   -0.4748 N.ar    1  LIG1       -0.3534
      6 H          -0.0408   -2.4808   -0.6588 H       1  LIG1        0.1656
      7 H           2.1828   -1.2295   -0.5703 H       1  LIG1        0.0845
      8 O           1.6238    1.6763   -0.1181 O.3     1  LIG1       -0.4900
      9 C           3.0147    1.4777   -0.2804 C.3     1  LIG1        0.0790
     10 H           3.4835    2.4518   -0.1683 H       1  LIG1        0.0660
     11 H           3.3895    0.7927    0.4854 H       1  LIG1        0.0660
     12 H           3.2242    1.0720   -1.2736 H       1  LIG1        0.0660
     13 O          -1.3162    1.7170    0.0613 O.3     1  LIG1       -0.5019
     14 H          -0.7354    2.4874    0.0691 H       1  LIG1        0.2924
     15 C          -2.3798   -1.1664   -0.2999 C.ar    1  LIG1        0.1131
     16 C          -2.8339   -2.4690   -0.3370 C.ar    1  LIG1        0.1889
     17 C          -4.2504   -2.4231   -0.3343 C.ar    1  LIG1        0.1866
     18 C          -4.6165   -1.0960   -0.2961 C.ar    1  LIG1        0.1129
     19 N          -3.4692   -0.3508   -0.2722 N.ar    1  LIG1       -0.3458
     20 H          -3.4409    0.6624   -0.2930 H       1  LIG1        0.1662
     21 O          -2.0453   -3.5940   -0.3620 O.3     1  LIG1       -0.4895
     22 C          -1.9768   -4.2274    0.9191 C.3     1  LIG1        0.0791
     23 H          -1.3661   -5.1189    0.7935 H       1  LIG1        0.0660
     24 H          -1.5196   -3.5485    1.6415 H       1  LIG1        0.0660
     25 H          -2.9798   -4.4997    1.2518 H       1  LIG1        0.0660
     26 O          -5.1262   -3.4834   -0.3239 O.3     1  LIG1       -0.5019
     27 H          -4.8191   -4.1396   -0.9611 H       1  LIG1        0.2924
     28 C          -5.9336   -0.4983   -0.2604 C.ar    1  LIG1        0.1131
     29 C          -6.2849    0.8304   -0.1297 C.ar    1  LIG1        0.1889
     30 C          -7.6995    0.8976   -0.1645 C.ar    1  LIG1        0.1866
     31 C          -8.1687   -0.3877   -0.3136 C.ar    1  LIG1        0.1129
     32 N          -7.0830   -1.2192   -0.3653 N.ar    1  LIG1       -0.3458
     33 H          -7.1355   -2.2203   -0.5123 H       1  LIG1        0.1662
     34 O          -5.4202    1.8877    0.0027 O.3     1  LIG1       -0.4895
     35 C          -5.2312    2.2739    1.3678 C.3     1  LIG1        0.0791
     36 H          -4.5603    3.1301    1.3562 H       1  LIG1        0.0660
     37 H          -6.1897    2.5448    1.8138 H       1  LIG1        0.0660
     38 H          -4.7827    1.4499    1.9255 H       1  LIG1        0.0660
     39 O          -8.4880    2.0163   -0.0483 O.3     1  LIG1       -0.5019
     40 H          -8.0204    2.7575   -0.4521 H       1  LIG1        0.2924
     41 C          -9.5247   -0.8904   -0.3927 C.ar    1  LIG1        0.1126
     42 C          -9.9608   -2.1938   -0.4741 C.ar    1  LIG1        0.1882
     43 C         -11.3788   -2.1667   -0.5372 C.ar    1  LIG1        0.1769
     44 C         -11.7658   -0.8499   -0.4933 C.ar    1  LIG1        0.0480
     45 N         -10.6259   -0.0912   -0.4010 N.ar    1  LIG1       -0.3534
     46 H         -10.5674    0.9145   -0.3388 H       1  LIG1        0.1656
     47 H         -12.7492   -0.4178   -0.5154 H       1  LIG1        0.0845
     48 O          -9.1656   -3.3150   -0.4900 O.3     1  LIG1       -0.4895
     49 C          -9.0668   -3.9283    0.7990 C.3     1  LIG1        0.0791
     50 H          -8.4212   -4.7957    0.6796 H       1  LIG1        0.0660
     51 H          -8.6276   -3.2253    1.5096 H       1  LIG1        0.0660
     52 H         -10.0568   -4.2322    1.1434 H       1  LIG1        0.0660
     53 O         -12.1943   -3.2639   -0.5976 O.3     1  LIG1       -0.5023
     54 H         -11.7223   -3.9552   -1.0769 H       1  LIG1        0.2923
@<TRIPOS>BOND
     1    12     9    1
     2    54    53    1
     3    27    26    1
     4     6     5    1
     5    53    43    1
     6     7     1    1
     7    43    44   ar
     8    43    42   ar
     9    47    44    1
    10    33    32    1
    11    44    45   ar
    12    48    42    1
    13    48    49    1
    14     5     1   ar
    15     5     4   ar
    16    42    41   ar
    17    40    39    1
    18     1     2   ar
    19    45    41   ar
    20    45    46    1
    21    41    31    1
    22    32    31   ar
    23    32    28   ar
    24    21    16    1
    25    21    22    1
    26    16    17   ar
    27    16    15   ar
    28    17    26    1
    29    17    18   ar
    30    31    30   ar
    31     4    15    1
    32     4     3   ar
    33    15    19   ar
    34    18    19   ar
    35    18    28    1
    36    20    19    1
    37     9    10    1
    38     9     8    1
    39     9    11    1
    40    28    29   ar
    41     2     3   ar
    42     2     8    1
    43    30    29   ar
    44    30    39    1
    45     3    13    1
    46    29    34    1
    47    34    35    1
    48    13    14    1
    49    50    49    1
    50    23    22    1
    51    49    52    1
    52    49    51    1
    53    22    25    1
    54    22    24    1
    55    36    35    1
    56    35    37    1
    57    35    38    1
