@<TRIPOS>MOLECULE
mol_data/opt/m06hf/geoms/mol2/13lf6hi6hh-4hh-.out
 53 56 0 0 0
SMALL
GASTEIGER

@<TRIPOS>ATOM
      1 C           1.1084   -0.1408    0.9300 C.ar    1  LIG1        0.0457
      2 C           0.8244    1.1416    0.5202 C.ar    1  LIG1        0.1533
      3 C          -0.5071    1.1557    0.0054 C.ar    1  LIG1        0.0945
      4 C          -0.9829   -0.1402    0.1235 C.ar    1  LIG1        0.1013
      5 N          -0.0077   -0.9005    0.6762 N.ar    1  LIG1       -0.3542
      6 H          -0.1154   -1.8816    0.8777 H       1  LIG1        0.1656
      7 H           1.9910   -0.5671    1.3709 H       1  LIG1        0.0845
      8 O           1.6002    2.2463    0.5551 O.3     1  LIG1       -0.4924
      9 C           2.8928    2.0523    1.0922 C.3     1  LIG1        0.0789
     10 H           3.3944    3.0148    1.0429 H       1  LIG1        0.0660
     11 H           2.8265    1.7185    2.1317 H       1  LIG1        0.0660
     12 H           3.4432    1.3147    0.5011 H       1  LIG1        0.0660
     13 C          -1.2078    2.2796   -0.5290 C.1     1  LIG1       -0.0638
     14 C          -1.8043    3.2220   -0.9785 C.1     1  LIG1       -0.1137
     15 H          -2.3216    4.0636   -1.3763 H       1  LIG1        0.1232
     16 C          -2.2678   -0.7076   -0.2458 C.ar    1  LIG1        0.1543
     17 C          -3.4204   -0.1804   -0.7254 C.ar    1  LIG1        0.0017
     18 C          -4.3188   -1.2947   -0.8893 C.ar    1  LIG1        0.0710
     19 C          -3.6361   -2.4154   -0.4919 C.ar    1  LIG1        0.1511
     20 O          -2.3924   -2.0513   -0.1023 O.2     1  LIG1       -0.4521
     21 H          -3.6177    0.8546   -0.9410 H       1  LIG1        0.0668
     22 C          -5.6564   -1.2084   -1.3950 C.1     1  LIG1       -0.0658
     23 C          -6.7733   -1.0978   -1.8255 C.1     1  LIG1       -0.1138
     24 H          -7.7608   -0.9980   -2.2123 H       1  LIG1        0.1232
     25 C          -5.2684   -4.2966   -0.6376 C.ar    1  LIG1       -0.0505
     26 C          -5.5337   -5.6564   -0.5925 C.ar    1  LIG1       -0.0530
     27 C          -3.9613   -3.8461   -0.4309 C.ar    1  LIG1        0.0188
     28 C          -4.5186   -6.5845   -0.3467 C.ar    1  LIG1       -0.0113
     29 H          -6.5421   -6.0172   -0.7489 H       1  LIG1        0.0624
     30 C          -2.9516   -4.7711   -0.1580 C.ar    1  LIG1       -0.0475
     31 C          -3.2112   -6.1395   -0.1090 C.ar    1  LIG1       -0.0420
     32 H          -1.9439   -4.4160    0.0185 H       1  LIG1        0.0627
     33 H          -6.0628   -3.5893   -0.8307 H       1  LIG1        0.0625
     34 C          -2.0828   -7.1051    0.2145 C.3     1  LIG1       -0.0391
     35 H          -1.3030   -6.5866    0.7720 H       1  LIG1        0.0278
     36 H          -1.6393   -7.5093   -0.6977 H       1  LIG1        0.0278
     37 H          -2.4535   -7.9396    0.8094 H       1  LIG1        0.0278
     38 C          -5.7322   -8.6007    0.5560 C.ar    1  LIG1        0.1280
     39 C          -6.0306   -9.9625    0.4964 C.ar    1  LIG1       -0.0159
     40 C          -4.8441   -8.0445   -0.3757 C.ar    1  LIG1        0.0275
     41 C          -5.4547  -10.7681   -0.4814 C.ar    1  LIG1       -0.0167
     42 H          -6.7111  -10.4096    1.2070 H       1  LIG1        0.0655
     43 C          -4.2779   -8.8619   -1.3502 C.ar    1  LIG1       -0.0090
     44 C          -4.5778  -10.2206   -1.4084 C.ar    1  LIG1        0.1177
     45 H          -3.6087   -8.4167   -2.0792 H       1  LIG1        0.0661
     46 H          -5.6796  -11.8243   -0.5384 H       1  LIG1        0.0655
     47 O          -6.2560   -7.7489    1.4791 O.3     1  LIG1       -0.4945
     48 C          -7.1572   -8.2754    2.4316 C.3     1  LIG1        0.0788
     49 H          -7.4486   -7.4369    3.0584 H       1  LIG1        0.0660
     50 H          -8.0403   -8.6956    1.9426 H       1  LIG1        0.0660
     51 H          -6.6720   -9.0410    3.0427 H       1  LIG1        0.0660
     52 O          -4.0455  -11.0538   -2.3509 O.3     1  LIG1       -0.5067
     53 H          -3.4508  -10.5682   -2.9314 H       1  LIG1        0.2921
@<TRIPOS>BOND
     1    53    52    1
     2    52    44    1
     3    24    23    1
     4    45    43    1
     5    23    22    3
     6    44    43   ar
     7    44    41   ar
     8    22    18    1
     9    15    14    1
    10    43    40   ar
    11    14    13    3
    12    21    17    1
    13    18    17   ar
    14    18    19   ar
    15    33    25    1
    16    29    26    1
    17    17    16   ar
    18    36    34    1
    19    25    26   ar
    20    25    27   ar
    21    26    28   ar
    22    46    41    1
    23    13     3    1
    24    19    27    1
    25    19    20   ar
    26    41    39   ar
    27    27    30   ar
    28    40    28    1
    29    40    38   ar
    30    28    31   ar
    31    16    20   ar
    32    16     4    1
    33    30    31   ar
    34    30    32    1
    35    31    34    1
    36     3     4   ar
    37     3     2   ar
    38     4     5   ar
    39    34    35    1
    40    34    37    1
    41    39    38   ar
    42    39    42    1
    43    12     9    1
    44     2     8    1
    45     2     1   ar
    46     8     9    1
    47    38    47    1
    48     5     6    1
    49     5     1   ar
    50     1     7    1
    51    10     9    1
    52     9    11    1
    53    47    48    1
    54    50    48    1
    55    48    51    1
    56    48    49    1
