@<TRIPOS>MOLECULE
mol_data/opt/m06hf/geoms/mol2/13lf13lf-.out
 28 29 0 0 0
SMALL
GASTEIGER

@<TRIPOS>ATOM
      1 C           0.9967   -0.5524   -0.3660 C.ar    1  LIG1        0.0482
      2 C           0.6633    0.7314    0.0096 C.ar    1  LIG1        0.1793
      3 C          -0.7481    0.7899    0.1309 C.ar    1  LIG1        0.1859
      4 C          -1.2389   -0.4549   -0.1705 C.ar    1  LIG1        0.1124
      5 N          -0.1726   -1.2577   -0.4664 N.ar    1  LIG1       -0.3534
      6 H          -0.2888   -2.2126   -0.7723 H       1  LIG1        0.1656
      7 H           1.9504   -1.0058   -0.5649 H       1  LIG1        0.0845
      8 O           1.4342    1.8265    0.2603 O.3     1  LIG1       -0.4900
      9 C           2.8277    1.5963    0.1916 C.3     1  LIG1        0.0790
     10 H           3.3129    2.5364    0.4391 H       1  LIG1        0.0660
     11 H           3.1164    0.8237    0.9093 H       1  LIG1        0.0660
     12 H           3.1097    1.2858   -0.8184 H       1  LIG1        0.0660
     13 O          -1.5049    1.8740    0.4865 O.3     1  LIG1       -0.5019
     14 H          -0.9096    2.6127    0.6617 H       1  LIG1        0.2924
     15 C          -2.6053   -0.9380   -0.1971 C.ar    1  LIG1        0.1126
     16 C          -3.0754   -2.2151   -0.4014 C.ar    1  LIG1        0.1882
     17 C          -4.4936   -2.1633   -0.3459 C.ar    1  LIG1        0.1769
     18 C          -4.8464   -0.8574   -0.1119 C.ar    1  LIG1        0.0480
     19 N          -3.6867   -0.1305   -0.0221 N.ar    1  LIG1       -0.3534
     20 H          -3.6056    0.8604    0.1543 H       1  LIG1        0.1656
     21 H          -5.8176   -0.4118   -0.0013 H       1  LIG1        0.0845
     22 O          -2.3095   -3.3395   -0.6041 O.3     1  LIG1       -0.4895
     23 C          -2.2148   -4.1368    0.5808 C.3     1  LIG1        0.0791
     24 H          -1.6425   -5.0236    0.3157 H       1  LIG1        0.0660
     25 H          -1.7065   -3.5722    1.3649 H       1  LIG1        0.0660
     26 H          -3.2138   -4.4169    0.9184 H       1  LIG1        0.0660
     27 O          -5.3355   -3.2366   -0.4663 O.3     1  LIG1       -0.5023
     28 H          -4.9513   -3.8445   -1.1094 H       1  LIG1        0.2923
@<TRIPOS>BOND
     1    28    27    1
     2    12     9    1
     3     6     5    1
     4    22    16    1
     5    22    23    1
     6     7     1    1
     7     5     1   ar
     8     5     4   ar
     9    27    17    1
    10    16    17   ar
    11    16    15   ar
    12     1     2   ar
    13    17    18   ar
    14    15     4    1
    15    15    19   ar
    16     4     3   ar
    17    18    19   ar
    18    18    21    1
    19    19    20    1
    20     2     3   ar
    21     2     8    1
    22     3    13    1
    23     9     8    1
    24     9    10    1
    25     9    11    1
    26    24    23    1
    27    13    14    1
    28    23    26    1
    29    23    25    1
