@<TRIPOS>MOLECULE
mol_data/opt/m06hf/geoms/mol2/13lf6dd-6ah-6il.out
 53 56 0 0 0
SMALL
GASTEIGER

@<TRIPOS>ATOM
      1 C           1.4806   -0.2866    0.1240 C.ar    1  LIG1        0.0481
      2 C           0.9994    1.0041    0.0870 C.ar    1  LIG1        0.1792
      3 C          -0.4089    0.9283    0.0711 C.ar    1  LIG1        0.1844
      4 C          -0.7692   -0.4099    0.0989 C.ar    1  LIG1        0.0950
      5 N           0.4088   -1.1230    0.1309 N.ar    1  LIG1       -0.3546
      6 H           0.4787   -2.1283    0.1621 H       1  LIG1        0.1656
      7 H           2.4865   -0.6663    0.1464 H       1  LIG1        0.0845
      8 O           1.6221    2.2118    0.0619 O.3     1  LIG1       -0.4900
      9 C           3.0381    2.1576    0.0718 C.3     1  LIG1        0.0790
     10 H           3.3879    3.1859    0.0514 H       1  LIG1        0.0660
     11 H           3.3883    1.6616    0.9809 H       1  LIG1        0.0660
     12 H           3.3995    1.6214   -0.8098 H       1  LIG1        0.0660
     13 O          -1.2346    2.0068    0.0343 O.3     1  LIG1       -0.5019
     14 H          -0.6858    2.8016   -0.0013 H       1  LIG1        0.2924
     15 C          -2.4484   -2.3342    0.1335 C.ar    1  LIG1        0.1500
     16 C          -2.1175   -0.9712    0.0803 C.ar    1  LIG1        0.0391
     17 C          -3.2245   -0.1080    0.0095 C.ar    1  LIG1       -0.0303
     18 C          -4.5098   -0.6232   -0.0277 C.ar    1  LIG1        0.0784
     19 C          -4.7230   -2.0190   -0.0085 C.ar    1  LIG1        0.0913
     20 N          -3.6803   -2.8303    0.0869 N.ar    1  LIG1       -0.2343
     21 H          -3.0713    0.9625   -0.0082 H       1  LIG1        0.0638
     22 N          -0.5661   -4.1257    0.3372 N.1     1  LIG1       -0.1893
     23 C          -1.4095   -3.3522    0.2462 C.1     1  LIG1        0.1198
     24 N          -6.4484    1.1012   -0.0943 N.1     1  LIG1       -0.1908
     25 C          -5.6077    0.3213   -0.0590 C.1     1  LIG1        0.1013
     26 C          -6.2418   -3.8779    0.6142 C.ar    1  LIG1        0.0376
     27 C          -6.0612   -2.6676   -0.0622 C.ar    1  LIG1        0.0215
     28 C          -7.1271   -2.1480   -0.7883 C.ar    1  LIG1       -0.0283
     29 C          -8.3459   -2.8287   -0.8014 C.ar    1  LIG1        0.0516
     30 C          -8.4331   -4.0263   -0.0615 C.ar    1  LIG1        0.0934
     31 N          -7.3977   -4.5254    0.6092 N.ar    1  LIG1       -0.2524
     32 H          -7.0259   -1.2332   -1.3595 H       1  LIG1        0.0644
     33 H          -5.4235   -4.3192    1.1674 H       1  LIG1        0.0836
     34 N          -9.4399   -2.3295   -1.4984 N.pl3   1  LIG1       -0.3563
     35 H          -9.2217   -1.6420   -2.2057 H       1  LIG1        0.1424
     36 H         -10.1040   -3.0268   -1.8090 H       1  LIG1        0.1424
     37 C          -9.7575   -6.1558   -0.3318 C.ar    1  LIG1        0.0477
     38 C          -9.7143   -4.7946   -0.0135 C.ar    1  LIG1        0.0266
     39 C         -10.8890   -4.1375    0.3726 C.ar    1  LIG1       -0.0075
     40 C         -12.0692   -4.8656    0.4322 C.ar    1  LIG1        0.1387
     41 C         -12.0193   -6.2234    0.0972 C.ar    1  LIG1        0.0695
     42 N         -10.9082   -6.8374   -0.2715 N.ar    1  LIG1       -0.2559
     43 H         -10.8490   -3.0834    0.6156 H       1  LIG1        0.0662
     44 H         -12.9334   -6.8039    0.1369 H       1  LIG1        0.0867
     45 C          -8.5319   -6.9385   -0.7568 C.3     1  LIG1       -0.0217
     46 H          -7.9078   -7.1496    0.1111 H       1  LIG1        0.0293
     47 H          -7.9332   -6.3701   -1.4696 H       1  LIG1        0.0293
     48 H          -8.8709   -7.8690   -1.2068 H       1  LIG1        0.0293
     49 O         -13.2806   -4.3702    0.7840 O.3     1  LIG1       -0.4936
     50 C         -13.3503   -2.9944    1.1096 C.3     1  LIG1        0.0789
     51 H         -14.3924   -2.7959    1.3436 H       1  LIG1        0.0660
     52 H         -12.7260   -2.7717    1.9786 H       1  LIG1        0.0660
     53 H         -13.0365   -2.3806    0.2609 H       1  LIG1        0.0660
@<TRIPOS>BOND
     1    35    34    1
     2    36    34    1
     3    34    29    1
     4    47    45    1
     5    32    28    1
     6    48    45    1
     7    12     9    1
     8    29    28   ar
     9    29    30   ar
    10    28    27   ar
    11    45    37    1
    12    45    46    1
    13    37    42   ar
    14    37    38   ar
    15    42    41   ar
    16    24    25    3
    17    27    19    1
    18    27    26   ar
    19    30    38    1
    20    30    31   ar
    21    25    18    1
    22    18    19   ar
    23    18    17   ar
    24    38    39   ar
    25    19    20   ar
    26    21    17    1
    27    14    13    1
    28    17    16   ar
    29    13     3    1
    30    10     9    1
    31     8     9    1
    32     8     2    1
    33     3     2   ar
    34     3     4   ar
    35     9    11    1
    36    16     4    1
    37    16    15   ar
    38    20    15   ar
    39     2     1   ar
    40    41    44    1
    41    41    40   ar
    42     4     5   ar
    43     1     5   ar
    44     1     7    1
    45     5     6    1
    46    15    23    1
    47    23    22    3
    48    53    50    1
    49    39    40   ar
    50    39    43    1
    51    40    49    1
    52    31    26   ar
    53    26    33    1
    54    49    50    1
    55    50    51    1
    56    50    52    1
