@<TRIPOS>MOLECULE
mol_data/opt/m06hf/geoms/mol2/13lf12ai-13hi-4aa6af-13fe-12lh6ii.out
 97 104 0 0 0
SMALL
GASTEIGER

@<TRIPOS>ATOM
      1 C           0.2479    0.5354   -2.6541 C.ar    1  LIG1        0.0482
      2 C          -0.0088    1.7558   -2.0683 C.ar    1  LIG1        0.1793
      3 C          -1.0381    1.5700   -1.1113 C.ar    1  LIG1        0.1874
      4 C          -1.3846    0.2404   -1.1354 C.ar    1  LIG1        0.1278
      5 N          -0.5959   -0.3707   -2.0739 N.ar    1  LIG1       -0.3522
      6 H          -0.6691   -1.3475   -2.3045 H       1  LIG1        0.1656
      7 H           0.9466    0.2503   -3.4193 H       1  LIG1        0.0845
      8 O           0.5371    2.9874   -2.2668 O.3     1  LIG1       -0.4900
      9 C           1.5401    3.0416   -3.2626 C.3     1  LIG1        0.0790
     10 H           1.8731    4.0746   -3.3138 H       1  LIG1        0.0660
     11 H           2.3768    2.3922   -2.9906 H       1  LIG1        0.0660
     12 H           1.1302    2.7322   -4.2279 H       1  LIG1        0.0660
     13 O          -1.5829    2.5328   -0.3184 O.3     1  LIG1       -0.5018
     14 H          -1.1407    3.3673   -0.5175 H       1  LIG1        0.2924
     15 C          -2.3890   -0.4749   -0.3730 C.ar    1  LIG1        0.1558
     16 C          -3.3146   -0.0793    0.5379 C.ar    1  LIG1       -0.0107
     17 C          -4.0152   -1.2725    0.9441 C.ar    1  LIG1       -0.0025
     18 C          -3.4656   -2.2890    0.2234 C.ar    1  LIG1        0.1565
     19 O          -2.4673   -1.8122   -0.5790 O.2     1  LIG1       -0.4514
     20 H          -3.4634    0.9294    0.8845 H       1  LIG1        0.0659
     21 C          -5.0836   -1.3841    2.0026 C.3     1  LIG1       -0.0360
     22 H          -5.3228   -2.4309    2.1891 H       1  LIG1        0.0279
     23 H          -5.9935   -0.8663    1.6926 H       1  LIG1        0.0279
     24 H          -4.7307   -0.9253    2.9269 H       1  LIG1        0.0279
     25 C          -3.7616   -3.7119    0.1574 C.ar    1  LIG1        0.1040
     26 C          -4.9815   -4.3547    0.0868 C.ar    1  LIG1        0.0568
     27 C          -4.7346   -5.7564    0.0384 C.ar    1  LIG1       -0.0038
     28 C          -3.3595   -5.9154    0.0624 C.ar    1  LIG1        0.0517
     29 N          -2.7888   -4.6812    0.1510 N.ar    1  LIG1       -0.3501
     30 H          -1.7999   -4.4932    0.1106 H       1  LIG1        0.1661
     31 N          -6.2563   -3.7558    0.1108 N.pl3   1  LIG1       -0.3560
     32 H          -6.2011   -2.7646   -0.1024 H       1  LIG1        0.1424
     33 H          -6.8925   -4.2064   -0.5377 H       1  LIG1        0.1424
     34 C          -5.8032   -6.8205    0.0475 C.3     1  LIG1       -0.0359
     35 H          -5.3963   -7.7652    0.4086 H       1  LIG1        0.0279
     36 H          -6.2240   -6.9834   -0.9486 H       1  LIG1        0.0279
     37 H          -6.6112   -6.5129    0.7141 H       1  LIG1        0.0279
     38 C          -2.8962   -8.2142   -0.7859 C.ar    1  LIG1       -0.0520
     39 C          -2.1270   -9.3705   -0.8103 C.ar    1  LIG1       -0.0534
     40 C          -2.5390   -7.1403    0.0360 C.ar    1  LIG1       -0.0013
     41 C          -0.9747   -9.4763   -0.0262 C.ar    1  LIG1       -0.0163
     42 H          -2.3999  -10.1861   -1.4686 H       1  LIG1        0.0624
     43 C          -1.3890   -7.2488    0.8255 C.ar    1  LIG1       -0.0520
     44 C          -0.6125   -8.4003    0.7891 C.ar    1  LIG1       -0.0534
     45 H          -1.1250   -6.4426    1.4994 H       1  LIG1        0.0624
     46 H          -3.7642   -8.1237   -1.4263 H       1  LIG1        0.0624
     47 H           0.2584   -8.4835    1.4275 H       1  LIG1        0.0624
     48 C           1.2475  -10.6498   -0.1087 C.ar    1  LIG1        0.0363
     49 C          -0.1500  -10.7147   -0.0613 C.ar    1  LIG1        0.0037
     50 C          -0.7318  -11.9767   -0.0556 C.ar    1  LIG1       -0.0088
     51 C           0.0619  -13.1218   -0.0959 C.ar    1  LIG1        0.1448
     52 C           1.4552  -12.9464   -0.1500 C.ar    1  LIG1        0.1319
     53 N           2.0099  -11.7299   -0.1501 N.ar    1  LIG1       -0.2491
     54 H          -1.8045  -12.1064    0.0109 H       1  LIG1        0.0661
     55 H           1.7547   -9.6933   -0.1344 H       1  LIG1        0.0836
     56 O          -0.5691  -14.3073   -0.0510 O.3     1  LIG1       -0.5045
     57 H           0.0205  -15.0772   -0.1578 H       1  LIG1        0.2922
     58 C           2.4382  -14.0455   -0.1889 C.ar    1  LIG1        0.1123
     59 C           2.3965  -15.4173   -0.3098 C.ar    1  LIG1        0.1598
     60 C           3.7236  -15.9211   -0.2696 C.ar    1  LIG1        0.0951
     61 C           4.5534  -14.8101   -0.1375 C.ar    1  LIG1        0.1055
     62 N           3.7651  -13.7165   -0.0968 N.ar    1  LIG1       -0.3464
     63 H           4.0626  -12.7507   -0.0190 H       1  LIG1        0.1662
     64 O           1.2737  -16.1831   -0.4599 O.3     1  LIG1       -0.5034
     65 H           1.4712  -17.1001   -0.2280 H       1  LIG1        0.2923
     66 C           4.0471  -17.3113   -0.2978 C.1     1  LIG1       -0.0637
     67 C           4.2542  -18.4969   -0.3215 C.1     1  LIG1       -0.1137
     68 H           4.4639  -19.5414   -0.3293 H       1  LIG1        0.1232
     69 C           5.9959  -14.6952   -0.0412 C.ar    1  LIG1        0.1963
     70 C           7.0418  -15.4816   -0.4240 C.ar    1  LIG1        0.1885
     71 C           8.2408  -14.7743   -0.0686 C.ar    1  LIG1        0.1141
     72 C           7.8342  -13.6020    0.5007 C.ar    1  LIG1        0.1617
     73 O           6.4722  -13.5529    0.5033 O.2     1  LIG1       -0.4475
     74 O           7.0559  -16.6832   -1.0534 O.3     1  LIG1       -0.4896
     75 C           6.5345  -16.6500   -2.3854 C.3     1  LIG1        0.0791
     76 H           6.6459  -17.6579   -2.7763 H       1  LIG1        0.0660
     77 H           5.4802  -16.3720   -2.3734 H       1  LIG1        0.0660
     78 H           7.1057  -15.9395   -2.9862 H       1  LIG1        0.0660
     79 N           9.5333  -15.2705   -0.2771 N.pl3   1  LIG1       -0.3522
     80 H           9.5007  -16.1369   -0.8032 H       1  LIG1        0.1425
     81 H          10.1530  -14.5977   -0.7145 H       1  LIG1        0.1425
     82 C           8.1355  -11.1770    1.1592 C.ar    1  LIG1        0.0489
     83 C           8.6009  -12.5059    1.1023 C.ar    1  LIG1        0.0405
     84 C           9.8524  -12.7989    1.6452 C.ar    1  LIG1       -0.0449
     85 C          10.6177  -11.7901    2.2226 C.ar    1  LIG1       -0.0317
     86 C          10.0643  -10.5128    2.2257 C.ar    1  LIG1        0.0308
     87 N           8.8696  -10.2179    1.7158 N.ar    1  LIG1       -0.2592
     88 H          10.2119  -13.8235    1.6216 H       1  LIG1        0.0628
     89 H          10.6127   -9.6834    2.6592 H       1  LIG1        0.0832
     90 C           6.7938  -10.7474    0.5988 C.3     1  LIG1       -0.0217
     91 H           5.9833  -11.1277    1.2230 H       1  LIG1        0.0293
     92 H           6.6555  -11.1304   -0.4134 H       1  LIG1        0.0293
     93 H           6.7736   -9.6604    0.5961 H       1  LIG1        0.0293
     94 C          11.9728  -12.0739    2.8395 C.3     1  LIG1       -0.0383
     95 H          12.4701  -11.1438    3.1123 H       1  LIG1        0.0278
     96 H          12.6064  -12.6152    2.1359 H       1  LIG1        0.0278
     97 H          11.8580  -12.6827    3.7375 H       1  LIG1        0.0278
@<TRIPOS>BOND
     1    12     9    1
     2     7     1    1
     3    10     9    1
     4     9    11    1
     5     9     8    1
     6    78    75    1
     7    76    75    1
     8     1     5   ar
     9     1     2   ar
    10    75    77    1
    11    75    74    1
    12     6     5    1
    13     8     2    1
    14     5     4   ar
    15     2     3   ar
    16    42    39    1
    17    46    38    1
    18     4     3   ar
    19     4    15    1
    20     3    13    1
    21    74    70    1
    22    36    34    1
    23    39    38   ar
    24    39    41   ar
    25    80    79    1
    26    38    40   ar
    27    81    79    1
    28    19    15   ar
    29    19    18   ar
    30    33    31    1
    31    14    13    1
    32    64    59    1
    33    64    65    1
    34    70    71   ar
    35    70    69   ar
    36    92    90    1
    37    15    16   ar
    38    68    67    1
    39    67    66    3
    40    59    60   ar
    41    59    58   ar
    42    66    60    1
    43    79    71    1
    44    60    61   ar
    45    58    52    1
    46    58    62   ar
    47    57    56    1
    48    53    52   ar
    49    53    48   ar
    50    52    51   ar
    51    61    62   ar
    52    61    69    1
    53    55    48    1
    54    48    49   ar
    55    32    31    1
    56    62    63    1
    57    51    50   ar
    58    51    56    1
    59    71    72   ar
    60    49    50   ar
    61    49    41    1
    62    50    54    1
    63    69    73   ar
    64    41    44   ar
    65    40    28    1
    66    40    43   ar
    67    27    34    1
    68    27    28   ar
    69    27    26   ar
    70    34    35    1
    71    34    37    1
    72    28    29   ar
    73    26    31    1
    74    26    25   ar
    75    30    29    1
    76    29    25   ar
    77    25    18    1
    78    18    17   ar
    79    72    73   ar
    80    72    83    1
    81    16    20    1
    82    16    17   ar
    83    93    90    1
    84    90    82    1
    85    90    91    1
    86    44    43   ar
    87    44    47    1
    88    43    45    1
    89    17    21    1
    90    83    82   ar
    91    83    84   ar
    92    82    87   ar
    93    88    84    1
    94    84    85   ar
    95    23    21    1
    96    87    86   ar
    97    21    22    1
    98    21    24    1
    99    96    94    1
   100    85    86   ar
   101    85    94    1
   102    86    89    1
   103    94    95    1
   104    94    97    1
