@<TRIPOS>MOLECULE
mol_data/opt/m06hf/geoms/mol2/13lf13lf-13lf.out
 41 43 0 0 0
SMALL
GASTEIGER

@<TRIPOS>ATOM
      1 C           1.2662   -0.7437   -0.3593 C.ar    1  LIG1        0.0482
      2 C           0.9125    0.5714   -0.1436 C.ar    1  LIG1        0.1793
      3 C          -0.5035    0.6325   -0.0919 C.ar    1  LIG1        0.1859
      4 C          -0.9761   -0.6423   -0.2767 C.ar    1  LIG1        0.1124
      5 N           0.1051   -1.4659   -0.4287 N.ar    1  LIG1       -0.3534
      6 H           0.0065   -2.4502   -0.6295 H       1  LIG1        0.1656
      7 H           2.2294   -1.2083   -0.4663 H       1  LIG1        0.0845
      8 O           1.6701    1.6939    0.0034 O.3     1  LIG1       -0.4900
      9 C           3.0619    1.4883   -0.1355 C.3     1  LIG1        0.0790
     10 H           3.5352    2.4592   -0.0171 H       1  LIG1        0.0660
     11 H           3.4207    0.8025    0.6371 H       1  LIG1        0.0660
     12 H           3.2858    1.0804   -1.1251 H       1  LIG1        0.0660
     13 O          -1.2785    1.7410    0.1125 O.3     1  LIG1       -0.5019
     14 H          -0.7131    2.5202    0.0529 H       1  LIG1        0.2924
     15 C          -2.3384   -1.1316   -0.3225 C.ar    1  LIG1        0.1131
     16 C          -2.7948   -2.4320   -0.3993 C.ar    1  LIG1        0.1889
     17 C          -4.2095   -2.3806   -0.4427 C.ar    1  LIG1        0.1866
     18 C          -4.5742   -1.0545   -0.3880 C.ar    1  LIG1        0.1129
     19 N          -3.4264   -0.3143   -0.3133 N.ar    1  LIG1       -0.3458
     20 H          -3.4034    0.7001   -0.2962 H       1  LIG1        0.1662
     21 O          -2.0149   -3.5641   -0.4113 O.3     1  LIG1       -0.4895
     22 C          -1.9892   -4.2056    0.8675 C.3     1  LIG1        0.0791
     23 H          -1.3998   -5.1127    0.7498 H       1  LIG1        0.0660
     24 H          -1.5297   -3.5425    1.6028 H       1  LIG1        0.0660
     25 H          -3.0056   -4.4522    1.1788 H       1  LIG1        0.0660
     26 O          -5.0857   -3.4404   -0.4896 O.3     1  LIG1       -0.5019
     27 H          -4.7149   -4.1133   -1.0731 H       1  LIG1        0.2924
     28 C          -5.8913   -0.4509   -0.3656 C.ar    1  LIG1        0.1126
     29 C          -6.2317    0.8760   -0.2310 C.ar    1  LIG1        0.1882
     30 C          -7.6510    0.9502   -0.2418 C.ar    1  LIG1        0.1769
     31 C          -8.1270   -0.3315   -0.3917 C.ar    1  LIG1        0.0480
     32 N          -7.0422   -1.1685   -0.4721 N.ar    1  LIG1       -0.3534
     33 H          -7.0518   -2.1726   -0.5733 H       1  LIG1        0.1656
     34 H          -9.1355   -0.7013   -0.4463 H       1  LIG1        0.0845
     35 O          -5.3326    1.9004   -0.1033 O.3     1  LIG1       -0.4895
     36 C          -5.3208    2.4628    1.2095 C.3     1  LIG1        0.0791
     37 H          -4.5621    3.2424    1.2034 H       1  LIG1        0.0660
     38 H          -6.2995    2.8859    1.4396 H       1  LIG1        0.0660
     39 H          -5.0632    1.6903    1.9380 H       1  LIG1        0.0660
     40 O          -8.3330    2.1268   -0.0988 O.3     1  LIG1       -0.5023
     41 H          -9.2755    1.9757   -0.2217 H       1  LIG1        0.2923
@<TRIPOS>BOND
     1    12     9    1
     2    27    26    1
     3     6     5    1
     4    33    32    1
     5    26    17    1
     6    32    31   ar
     7    32    28   ar
     8     7     1    1
     9    34    31    1
    10    17    16   ar
    11    17    18   ar
    12     5     1   ar
    13     5     4   ar
    14    21    16    1
    15    21    22    1
    16    16    15   ar
    17    31    30   ar
    18    18    28    1
    19    18    19   ar
    20    28    29   ar
    21     1     2   ar
    22    15    19   ar
    23    15     4    1
    24    19    20    1
    25     4     3   ar
    26    30    29   ar
    27    30    40    1
    28    29    35    1
    29    41    40    1
    30     2     3   ar
    31     2     8    1
    32     9    10    1
    33     9     8    1
    34     9    11    1
    35    35    36    1
    36     3    13    1
    37    14    13    1
    38    23    22    1
    39    22    25    1
    40    22    24    1
    41    37    36    1
    42    36    38    1
    43    36    39    1
