@<TRIPOS>MOLECULE
mol_data/opt/m06hf/geoms/mol2/13lf13lf-13lf-13lf-.out
 54 57 0 0 0
SMALL
GASTEIGER

@<TRIPOS>ATOM
      1 C           0.7979   -0.7241   -0.8149 C.ar    1  LIG1        0.0482
      2 C           0.4258    0.5923   -0.9864 C.ar    1  LIG1        0.1793
      3 C          -0.9653    0.6812   -0.7259 C.ar    1  LIG1        0.1859
      4 C          -1.4041   -0.5774   -0.4011 C.ar    1  LIG1        0.1124
      5 N          -0.3255   -1.4173   -0.4528 N.ar    1  LIG1       -0.3534
      6 H          -0.4089   -2.4135   -0.3151 H       1  LIG1        0.1656
      7 H           1.7515   -1.2084   -0.9212 H       1  LIG1        0.0845
      8 O           1.1455    1.6930   -1.3371 O.3     1  LIG1       -0.4900
      9 C           2.5141    1.4471   -1.5990 C.3     1  LIG1        0.0790
     10 H           2.9575    2.4020   -1.8670 H       1  LIG1        0.0660
     11 H           3.0011    1.0461   -0.7060 H       1  LIG1        0.0660
     12 H           2.6174    0.7405   -2.4270 H       1  LIG1        0.0660
     13 O          -1.7520    1.7988   -0.7839 O.3     1  LIG1       -0.5019
     14 H          -1.2182    2.5292   -1.1201 H       1  LIG1        0.2924
     15 C          -2.7346   -1.0391   -0.0654 C.ar    1  LIG1        0.1131
     16 C          -3.1496   -2.2919    0.3303 C.ar    1  LIG1        0.1889
     17 C          -4.5566   -2.2471    0.4946 C.ar    1  LIG1        0.1866
     18 C          -4.9695   -0.9682    0.1892 C.ar    1  LIG1        0.1129
     19 N          -3.8395   -0.2506   -0.1421 N.ar    1  LIG1       -0.3458
     20 H          -3.8185    0.6932   -0.5034 H       1  LIG1        0.1662
     21 O          -2.3472   -3.3846    0.5563 O.3     1  LIG1       -0.4895
     22 C          -2.0095   -3.5278    1.9410 C.3     1  LIG1        0.0791
     23 H          -1.4196   -4.4384    2.0248 H       1  LIG1        0.0660
     24 H          -1.4289   -2.6641    2.2700 H       1  LIG1        0.0660
     25 H          -2.9186   -3.6082    2.5392 H       1  LIG1        0.0660
     26 O          -5.3512   -3.2788    0.8967 O.3     1  LIG1       -0.5019
     27 H          -4.8735   -4.1013    0.7336 H       1  LIG1        0.2924
     28 C          -6.2927   -0.3585    0.2434 C.ar    1  LIG1        0.1131
     29 C          -7.5415   -0.8320   -0.1140 C.ar    1  LIG1        0.1889
     30 C          -8.4847    0.1877    0.1695 C.ar    1  LIG1        0.1866
     31 C          -7.8077    1.2657    0.6870 C.ar    1  LIG1        0.1129
     32 N          -6.4773    0.9115    0.7170 N.ar    1  LIG1       -0.3458
     33 H          -5.7501    1.5017    1.0880 H       1  LIG1        0.1662
     34 O          -7.9427   -2.0257   -0.6366 O.3     1  LIG1       -0.4895
     35 C          -7.2067   -2.4748   -1.7706 C.3     1  LIG1        0.0791
     36 H          -7.7663   -3.3113   -2.1829 H       1  LIG1        0.0660
     37 H          -7.1266   -1.6706   -2.5047 H       1  LIG1        0.0660
     38 H          -6.2135   -2.8039   -1.4664 H       1  LIG1        0.0660
     39 O          -9.8223    0.0818   -0.0562 O.3     1  LIG1       -0.5019
     40 H          -9.9777   -0.8122   -0.3896 H       1  LIG1        0.2924
     41 C          -8.2790    2.5697    1.1568 C.ar    1  LIG1        0.1126
     42 C          -8.7652    3.6569    0.4635 C.ar    1  LIG1        0.1882
     43 C          -9.0604    4.6773    1.4046 C.ar    1  LIG1        0.1769
     44 C          -8.7384    4.1986    2.6495 C.ar    1  LIG1        0.0480
     45 N          -8.2678    2.9229    2.4799 N.ar    1  LIG1       -0.3534
     46 H          -8.0302    2.2852    3.2213 H       1  LIG1        0.1656
     47 H          -8.8146    4.6631    3.6153 H       1  LIG1        0.0845
     48 O          -8.9421    3.8100   -0.8823 O.3     1  LIG1       -0.4895
     49 C         -10.1594    3.2246   -1.3560 C.3     1  LIG1        0.0791
     50 H         -10.1943    3.4196   -2.4260 H       1  LIG1        0.0660
     51 H         -10.1631    2.1521   -1.1575 H       1  LIG1        0.0660
     52 H         -11.0122    3.6939   -0.8593 H       1  LIG1        0.0660
     53 O          -9.5635    5.9042    1.0879 O.3     1  LIG1       -0.5023
     54 H          -9.5050    5.9910    0.1275 H       1  LIG1        0.2923
@<TRIPOS>BOND
     1    37    35    1
     2    12     9    1
     3    50    49    1
     4    36    35    1
     5    10     9    1
     6    35    38    1
     7    35    34    1
     8     9     8    1
     9     9    11    1
    10    49    51    1
    11    49    48    1
    12    49    52    1
    13     8     2    1
    14    14    13    1
    15     2     1   ar
    16     2     3   ar
    17     7     1    1
    18    48    42    1
    19     1     5   ar
    20    13     3    1
    21     3     4   ar
    22    34    29    1
    23    20    19    1
    24     5     4   ar
    25     5     6    1
    26     4    15    1
    27    40    39    1
    28    19    15   ar
    29    19    18   ar
    30    29    30   ar
    31    29    28   ar
    32    15    16   ar
    33    39    30    1
    34    54    53    1
    35    30    31   ar
    36    18    28    1
    37    18    17   ar
    38    28    32   ar
    39    16    17   ar
    40    16    21    1
    41    42    41   ar
    42    42    43   ar
    43    17    26    1
    44    21    22    1
    45    31    32   ar
    46    31    41    1
    47    32    33    1
    48    27    26    1
    49    53    43    1
    50    41    45   ar
    51    43    44   ar
    52    22    23    1
    53    22    24    1
    54    22    25    1
    55    45    44   ar
    56    45    46    1
    57    44    47    1
