@<TRIPOS>MOLECULE
mol_data/opt/m06hf/geoms/mol2/13lf13lf-13lf-13lf.out
 54 57 0 0 0
SMALL
GASTEIGER

@<TRIPOS>ATOM
      1 C           5.7181   -1.1446   -0.2849 C.ar    1  LIG1        0.0482
      2 C           4.9344   -2.1651    0.2128 C.ar    1  LIG1        0.1793
      3 C           3.6038   -1.6849    0.2844 C.ar    1  LIG1        0.1859
      4 C           3.6081   -0.3891   -0.1689 C.ar    1  LIG1        0.1124
      5 N           4.8935   -0.0766   -0.5087 N.ar    1  LIG1       -0.3534
      6 H           5.1403    0.8251   -0.8898 H       1  LIG1        0.1656
      7 H           6.7712   -1.1007   -0.4948 H       1  LIG1        0.0845
      8 O           5.2455   -3.4340    0.6013 O.3     1  LIG1       -0.4900
      9 C           6.6084   -3.7785    0.4470 C.3     1  LIG1        0.0790
     10 H           6.7120   -4.8065    0.7837 H       1  LIG1        0.0660
     11 H           6.9004   -3.6968   -0.6036 H       1  LIG1        0.0660
     12 H           7.2343   -3.1209    1.0563 H       1  LIG1        0.0660
     13 O           2.4976   -2.3655    0.7223 O.3     1  LIG1       -0.5019
     14 H           2.7767   -3.2480    0.9948 H       1  LIG1        0.2924
     15 C           2.5118    0.5477   -0.2942 C.ar    1  LIG1        0.1131
     16 C           2.5330    1.8790   -0.6491 C.ar    1  LIG1        0.1889
     17 C           1.1938    2.3535   -0.6112 C.ar    1  LIG1        0.1866
     18 C           0.3990    1.2850   -0.2315 C.ar    1  LIG1        0.1129
     19 N           1.2194    0.1963   -0.0526 N.ar    1  LIG1       -0.3458
     20 H           0.9593   -0.7084    0.3144 H       1  LIG1        0.1662
     21 O           3.6688    2.5625   -0.9943 O.3     1  LIG1       -0.4895
     22 C           3.8836    3.7252   -0.1928 C.3     1  LIG1        0.0791
     23 H           4.7887    4.1960   -0.5699 H       1  LIG1        0.0660
     24 H           3.0340    4.4008   -0.2914 H       1  LIG1        0.0660
     25 H           4.0150    3.4331    0.8517 H       1  LIG1        0.0660
     26 O           0.8199    3.6250   -0.9140 O.3     1  LIG1       -0.5019
     27 H          -0.0890    3.7817   -0.6012 H       1  LIG1        0.2924
     28 C          -1.0431    1.2460   -0.0635 C.ar    1  LIG1        0.1131
     29 C          -1.8972    2.2868    0.2481 C.ar    1  LIG1        0.1889
     30 C          -3.2158    1.7746    0.2861 C.ar    1  LIG1        0.1866
     31 C          -3.1374    0.4324    0.0043 C.ar    1  LIG1        0.1129
     32 N          -1.8147    0.1298   -0.1984 N.ar    1  LIG1       -0.3458
     33 H          -1.5254   -0.7792   -0.5366 H       1  LIG1        0.1662
     34 O          -1.5439    3.5974    0.4812 O.3     1  LIG1       -0.4895
     35 C          -1.0721    3.8201    1.8180 C.3     1  LIG1        0.0791
     36 H          -0.8474    4.8816    1.8917 H       1  LIG1        0.0660
     37 H          -1.8526    3.5410    2.5268 H       1  LIG1        0.0660
     38 H          -0.1739    3.2261    1.9917 H       1  LIG1        0.0660
     39 O          -4.3712    2.4525    0.5748 O.3     1  LIG1       -0.5019
     40 H          -4.2312    3.3881    0.3842 H       1  LIG1        0.2924
     41 C          -4.1783   -0.5689   -0.0965 C.ar    1  LIG1        0.1126
     42 C          -4.0565   -1.9143   -0.3629 C.ar    1  LIG1        0.1882
     43 C          -5.3667   -2.4645   -0.3623 C.ar    1  LIG1        0.1769
     44 C          -6.2417   -1.4357   -0.1016 C.ar    1  LIG1        0.0480
     45 N          -5.5024   -0.2902    0.0444 N.ar    1  LIG1       -0.3534
     46 H          -5.8496    0.6370    0.2389 H       1  LIG1        0.1656
     47 H          -7.3135   -1.4375   -0.0090 H       1  LIG1        0.0845
     48 O          -2.8656   -2.5559   -0.5833 O.3     1  LIG1       -0.4895
     49 C          -2.5570   -3.5106    0.4339 C.3     1  LIG1        0.0791
     50 H          -1.6024   -3.9552    0.1603 H       1  LIG1        0.0660
     51 H          -2.4812   -3.0070    1.4003 H       1  LIG1        0.0660
     52 H          -3.3334   -4.2757    0.4698 H       1  LIG1        0.0660
     53 O          -5.6175   -3.7957   -0.5588 O.3     1  LIG1       -0.5023
     54 H          -6.5248   -3.9197   -0.8541 H       1  LIG1        0.2923
@<TRIPOS>BOND
     1    21    16    1
     2    21    22    1
     3    26    17    1
     4    26    27    1
     5     6     5    1
     6    54    53    1
     7    16    17   ar
     8    16    15   ar
     9    17    18   ar
    10    11     9    1
    11    48    42    1
    12    48    49    1
    13    23    22    1
    14    53    43    1
    15    33    32    1
    16     5     1   ar
    17     5     4   ar
    18     7     1    1
    19    42    43   ar
    20    42    41   ar
    21    43    44   ar
    22    15     4    1
    23    15    19   ar
    24    24    22    1
    25     1     2   ar
    26    18    28    1
    27    18    19   ar
    28    32    28   ar
    29    32    31   ar
    30    22    25    1
    31     4     3   ar
    32    44    47    1
    33    44    45   ar
    34    41    31    1
    35    41    45   ar
    36    28    29   ar
    37    19    20    1
    38    31    30   ar
    39    45    46    1
    40    50    49    1
    41     2     3   ar
    42     2     8    1
    43    29    30   ar
    44    29    34    1
    45     3    13    1
    46    30    39    1
    47    40    39    1
    48    49    52    1
    49    49    51    1
    50     9     8    1
    51     9    10    1
    52     9    12    1
    53    34    35    1
    54    13    14    1
    55    35    36    1
    56    35    38    1
    57    35    37    1
