@<TRIPOS>MOLECULE
mol_data/opt/m06hf/geoms/mol2/13lg.out
 15 15 0 0 0
SMALL
GASTEIGER

@<TRIPOS>ATOM
      1 C           1.1161   -0.5266   -0.0001 C.ar    1  LIG1        0.0450
      2 C           0.7439    0.7972    0.0002 C.ar    1  LIG1        0.1504
      3 C          -0.6784    0.8559    0.0004 C.ar    1  LIG1        0.0638
      4 C          -1.1273   -0.4404    0.0003 C.ar    1  LIG1        0.0186
      5 N          -0.0404   -1.2641    0.0001 N.ar    1  LIG1       -0.3630
      6 H          -0.0786   -2.2690   -0.0002 H       1  LIG1        0.1649
      7 H          -2.1313   -0.8273    0.0004 H       1  LIG1        0.0819
      8 H           2.0845   -0.9931   -0.0004 H       1  LIG1        0.0844
      9 O           1.5045    1.9197    0.0002 O.3     1  LIG1       -0.4925
     10 C           2.8991    1.6970   -0.0002 C.3     1  LIG1        0.0789
     11 H           3.3699    2.6765   -0.0001 H       1  LIG1        0.0660
     12 H           3.1950    1.1409    0.8943 H       1  LIG1        0.0660
     13 H           3.1945    1.1412   -0.8950 H       1  LIG1        0.0660
     14 S          -1.5544    2.3918    0.0008 S.3     1  LIG1       -0.1377
     15 H          -2.7764    1.8468    0.0002 H       1  LIG1        0.1073
@<TRIPOS>BOND
     1    13    10    1
     2     8     1    1
     3     6     5    1
     4    10    11    1
     5    10     9    1
     6    10    12    1
     7     1     5   ar
     8     1     2   ar
     9     5     4   ar
    10    15    14    1
    11     2     9    1
    12     2     3   ar
    13     4     3   ar
    14     4     7    1
    15     3    14    1
