@<TRIPOS>MOLECULE
mol_data/opt/m06hf/geoms/mol2/13lh13lh-13lh-13lh-.out
 58 61 0 0 0
SMALL
GASTEIGER

@<TRIPOS>ATOM
      1 C           1.0816   -0.6726   -0.2081 C.ar    1  LIG1        0.0463
      2 C           0.7383    0.5626    0.2964 C.ar    1  LIG1        0.1585
      3 C          -0.6824    0.6589    0.2963 C.ar    1  LIG1        0.0940
      4 C          -1.1547   -0.5313   -0.2107 C.ar    1  LIG1        0.0912
      5 N          -0.0920   -1.3221   -0.5076 N.ar    1  LIG1       -0.3549
      6 H          -0.2014   -2.2380   -0.9190 H       1  LIG1        0.1655
      7 H           2.0379   -1.1324   -0.3778 H       1  LIG1        0.0845
      8 O           1.5263    1.5790    0.7376 O.3     1  LIG1       -0.4918
      9 C           2.9145    1.3247    0.6652 C.3     1  LIG1        0.0789
     10 H           3.4153    2.2126    1.0422 H       1  LIG1        0.0660
     11 H           3.1738    0.4597    1.2825 H       1  LIG1        0.0660
     12 H           3.2124    1.1386   -0.3708 H       1  LIG1        0.0660
     13 N          -1.5057    1.7471    0.7279 N.pl3   1  LIG1       -0.3535
     14 H          -1.3422    1.9325    1.7149 H       1  LIG1        0.1425
     15 H          -1.2448    2.5931    0.2267 H       1  LIG1        0.1425
     16 C          -2.5224   -0.9653   -0.4180 C.ar    1  LIG1        0.1094
     17 C          -3.0100   -2.1875   -0.8224 C.ar    1  LIG1        0.1679
     18 C          -4.4297   -2.1144   -0.8441 C.ar    1  LIG1        0.0947
     19 C          -4.7555   -0.8274   -0.4415 C.ar    1  LIG1        0.0917
     20 N          -3.5869   -0.1504   -0.1898 N.ar    1  LIG1       -0.3473
     21 H          -3.4619    0.7661    0.2271 H       1  LIG1        0.1662
     22 O          -2.2344   -3.2732   -1.1443 O.3     1  LIG1       -0.4911
     23 C          -2.3848   -4.3330   -0.1933 C.3     1  LIG1        0.0790
     24 H          -1.7993   -5.1702   -0.5677 H       1  LIG1        0.0660
     25 H          -2.0057   -4.0078    0.7782 H       1  LIG1        0.0660
     26 H          -3.4389   -4.6038   -0.1154 H       1  LIG1        0.0660
     27 N          -5.2772   -3.1899   -1.1758 N.pl3   1  LIG1       -0.3534
     28 H          -6.2583   -2.9619   -1.0396 H       1  LIG1        0.1425
     29 H          -5.1031   -3.5298   -2.1151 H       1  LIG1        0.1425
     30 C          -6.0579   -0.1931   -0.3078 C.ar    1  LIG1        0.1094
     31 C          -7.2967   -0.7340   -0.0491 C.ar    1  LIG1        0.1679
     32 C          -8.2628    0.3137   -0.0331 C.ar    1  LIG1        0.0947
     33 C          -7.5786    1.4798   -0.2872 C.ar    1  LIG1        0.0916
     34 N          -6.2376    1.1609   -0.4388 N.ar    1  LIG1       -0.3473
     35 H          -5.5908    1.7412   -0.9514 H       1  LIG1        0.1662
     36 O          -7.5966   -2.0515    0.1893 O.3     1  LIG1       -0.4911
     37 C          -7.2578   -2.4761    1.5128 C.3     1  LIG1        0.0790
     38 H          -7.5530   -3.5205    1.5860 H       1  LIG1        0.0660
     39 H          -6.1825   -2.3780    1.6676 H       1  LIG1        0.0660
     40 H          -7.8016   -1.8710    2.2402 H       1  LIG1        0.0660
     41 N          -9.6255    0.1427    0.2480 N.pl3   1  LIG1       -0.3534
     42 H         -10.1947    0.6866   -0.3938 H       1  LIG1        0.1425
     43 H          -9.8671   -0.8416    0.2079 H       1  LIG1        0.1425
     44 C          -8.0395    2.8585   -0.3511 C.ar    1  LIG1        0.1089
     45 C          -9.2738    3.3995   -0.6376 C.ar    1  LIG1        0.1673
     46 C          -9.1593    4.8223   -0.5917 C.ar    1  LIG1        0.0851
     47 C          -7.8567    5.1049   -0.2699 C.ar    1  LIG1        0.0267
     48 N          -7.1885    3.9106   -0.1352 N.ar    1  LIG1       -0.3549
     49 H          -6.2738    3.8069    0.2708 H       1  LIG1        0.1655
     50 H          -7.3605    6.0485   -0.1250 H       1  LIG1        0.0827
     51 O         -10.4241    2.7213   -0.9487 O.3     1  LIG1       -0.4911
     52 C         -11.4214    2.8585    0.0763 C.3     1  LIG1        0.0790
     53 H         -12.3229    2.3876   -0.3126 H       1  LIG1        0.0660
     54 H         -11.0825    2.3466    0.9782 H       1  LIG1        0.0660
     55 H         -11.5988    3.9160    0.2762 H       1  LIG1        0.0660
     56 N         -10.2472    5.6940   -0.8255 N.pl3   1  LIG1       -0.3540
     57 H          -9.9563    6.6625   -0.8886 H       1  LIG1        0.1425
     58 H         -10.7364    5.4328   -1.6760 H       1  LIG1        0.1425
@<TRIPOS>BOND
     1    29    27    1
     2    58    56    1
     3    27    28    1
     4    27    18    1
     5    22    17    1
     6    22    23    1
     7    35    34    1
     8    51    45    1
     9    51    52    1
    10     6     5    1
    11    57    56    1
    12    18    17   ar
    13    18    19   ar
    14    56    46    1
    15    17    16   ar
    16    45    46   ar
    17    45    44   ar
    18    46    47   ar
    19    24    23    1
    20     5     4   ar
    21     5     1   ar
    22    19    30    1
    23    19    20   ar
    24    34    30   ar
    25    34    33   ar
    26    16     4    1
    27    16    20   ar
    28    42    41    1
    29     7     1    1
    30    12     9    1
    31    44    33    1
    32    44    48   ar
    33    53    52    1
    34    30    31   ar
    35    33    32   ar
    36    47    48   ar
    37    47    50    1
    38     4     3   ar
    39     1     2   ar
    40    23    26    1
    41    23    25    1
    42    20    21    1
    43    48    49    1
    44    31    32   ar
    45    31    36    1
    46    32    41    1
    47    52    55    1
    48    52    54    1
    49    36    37    1
    50    43    41    1
    51    15    13    1
    52     3     2   ar
    53     3    13    1
    54     2     8    1
    55     9     8    1
    56     9    10    1
    57     9    11    1
    58    13    14    1
    59    37    38    1
    60    37    39    1
    61    37    40    1
