@<TRIPOS>MOLECULE
mol_data/opt/m06hf/geoms/mol2/13lh6ee12ll12fe-.out
 54 57 0 0 0
SMALL
GASTEIGER

@<TRIPOS>ATOM
      1 C           1.0061    0.5185   -1.3789 C.ar    1  LIG1        0.0463
      2 C           0.9852    0.9876   -0.0868 C.ar    1  LIG1        0.1585
      3 C          -0.2473    0.5985    0.5174 C.ar    1  LIG1        0.0925
      4 C          -0.9532   -0.0953   -0.4482 C.ar    1  LIG1        0.0729
      5 N          -0.1688   -0.1516   -1.5803 N.ar    1  LIG1       -0.3561
      6 H          -0.5017   -0.4837   -2.4692 H       1  LIG1        0.1655
      7 H           1.7445    0.6133   -2.1546 H       1  LIG1        0.0845
      8 O           1.9160    1.6970    0.6092 O.3     1  LIG1       -0.4918
      9 C           3.0734    2.0316   -0.1262 C.3     1  LIG1        0.0789
     10 H           3.7170    2.5977    0.5422 H       1  LIG1        0.0660
     11 H           3.5876    1.1243   -0.4575 H       1  LIG1        0.0660
     12 H           2.8082    2.6421   -0.9949 H       1  LIG1        0.0660
     13 N          -0.5617    0.7982    1.8650 N.pl3   1  LIG1       -0.3535
     14 H           0.0272    1.5106    2.2779 H       1  LIG1        0.1425
     15 H          -1.5525    0.9760    2.0125 H       1  LIG1        0.1425
     16 C          -3.3729   -0.1242    0.1756 C.ar    1  LIG1        0.0346
     17 C          -4.5815   -0.8085    0.2299 C.ar    1  LIG1       -0.0279
     18 C          -2.2569   -0.7764   -0.3791 C.ar    1  LIG1        0.0226
     19 C          -4.7237   -2.1009   -0.2862 C.ar    1  LIG1        0.0415
     20 H          -5.4442   -0.3392    0.6922 H       1  LIG1        0.0644
     21 C          -2.3964   -2.0723   -0.8739 C.ar    1  LIG1       -0.0294
     22 C          -3.6131   -2.7577   -0.8487 C.ar    1  LIG1        0.0361
     23 H          -1.5162   -2.5804   -1.2509 H       1  LIG1        0.0643
     24 N          -3.2438    1.1816    0.6973 N.pl3   1  LIG1       -0.3574
     25 H          -2.5838    1.7368    0.1581 H       1  LIG1        0.1423
     26 H          -4.1306    1.6596    0.7943 H       1  LIG1        0.1423
     27 N          -3.6824   -4.0683   -1.3181 N.pl3   1  LIG1       -0.3574
     28 H          -4.6111   -4.4519   -1.4173 H       1  LIG1        0.1423
     29 H          -3.0702   -4.2777   -2.0920 H       1  LIG1        0.1423
     30 C          -6.0607   -2.7086   -0.2602 C.ar    1  LIG1        0.1583
     31 C          -7.2973   -2.1640   -0.4422 C.ar    1  LIG1        0.0746
     32 C          -8.2600   -3.2201   -0.2468 C.ar    1  LIG1        0.0166
     33 C          -7.5179   -4.3347    0.0026 C.ar    1  LIG1        0.1417
     34 O          -6.1967   -4.0389    0.0125 O.2     1  LIG1       -0.4526
     35 N          -7.6276   -0.8274   -0.7087 N.pl3   1  LIG1       -0.3548
     36 H          -6.8501   -0.3202   -1.1178 H       1  LIG1        0.1424
     37 H          -8.4436   -0.7509   -1.3050 H       1  LIG1        0.1424
     38 C          -9.7527   -3.0225   -0.2335 C.3     1  LIG1       -0.0343
     39 H         -10.2414   -3.8384    0.2979 H       1  LIG1        0.0279
     40 H         -10.1549   -2.9907   -1.2477 H       1  LIG1        0.0279
     41 H          -9.9759   -2.0853    0.2795 H       1  LIG1        0.0279
     42 C          -8.8821   -6.4252   -0.3283 C.ar    1  LIG1        0.0626
     43 C          -9.1849   -7.7431    0.0364 C.ar    1  LIG1       -0.0402
     44 C          -7.8576   -5.7292    0.3260 C.ar    1  LIG1        0.0384
     45 C          -8.4607   -8.3790    1.0264 C.ar    1  LIG1       -0.0189
     46 H          -9.9814   -8.2612   -0.4794 H       1  LIG1        0.0632
     47 C          -7.1153   -6.3835    1.3107 C.ar    1  LIG1       -0.0083
     48 C          -7.4114   -7.6983    1.6535 C.ar    1  LIG1        0.1176
     49 H          -6.3121   -5.8478    1.8026 H       1  LIG1        0.0661
     50 H          -8.6703   -9.3973    1.3220 H       1  LIG1        0.0654
     51 N         -10.1681   -5.4067   -2.3378 N.1     1  LIG1       -0.1908
     52 C          -9.5931   -5.8360   -1.4412 C.1     1  LIG1        0.0999
     53 O          -6.7236   -8.3728    2.6030 O.3     1  LIG1       -0.5067
     54 H          -5.9985   -7.8415    2.9497 H       1  LIG1        0.2921
@<TRIPOS>BOND
     1     6     5    1
     2    51    52    3
     3     7     1    1
     4    29    27    1
     5     5     1   ar
     6     5     4   ar
     7    52    42    1
     8    28    27    1
     9     1     2   ar
    10    27    22    1
    11    37    35    1
    12    23    21    1
    13    40    38    1
    14    36    35    1
    15    12     9    1
    16    21    22   ar
    17    21    18   ar
    18    22    19   ar
    19    35    31    1
    20    46    43    1
    21    11     9    1
    22     4    18    1
    23     4     3   ar
    24    31    30   ar
    25    31    32   ar
    26    18    16   ar
    27    42    43   ar
    28    42    44   ar
    29    19    30    1
    30    19    17   ar
    31    30    34   ar
    32    32    38    1
    33    32    33   ar
    34    38    41    1
    35    38    39    1
    36     9    10    1
    37     9     8    1
    38     2     3   ar
    39     2     8    1
    40    33    34   ar
    41    33    44    1
    42    43    45   ar
    43    25    24    1
    44    16    17   ar
    45    16    24    1
    46    17    20    1
    47    44    47   ar
    48     3    13    1
    49    24    26    1
    50    45    50    1
    51    45    48   ar
    52    47    48   ar
    53    47    49    1
    54    48    53    1
    55    13    15    1
    56    13    14    1
    57    53    54    1
