@<TRIPOS>MOLECULE
mol_data/opt/m06hf/geoms/mol2/13lh13ia-6la6ll.out
 57 60 0 0 0
SMALL
GASTEIGER

@<TRIPOS>ATOM
      1 C           0.8299    0.2989    1.4899 C.ar    1  LIG1        0.0463
      2 C           0.8733    1.0974    0.3708 C.ar    1  LIG1        0.1585
      3 C          -0.3035    0.8584   -0.3965 C.ar    1  LIG1        0.0939
      4 C          -1.0369   -0.0819    0.2900 C.ar    1  LIG1        0.0877
      5 N          -0.3300   -0.4259    1.4207 N.ar    1  LIG1       -0.3550
      6 H          -0.7171   -0.9727    2.1717 H       1  LIG1        0.1655
      7 H           1.5169    0.1913    2.3100 H       1  LIG1        0.0845
      8 O           1.8316    1.9665   -0.0537 O.3     1  LIG1       -0.4918
      9 C           2.9446    2.0792    0.8076 C.3     1  LIG1        0.0789
     10 H           3.6164    2.8055    0.3579 H       1  LIG1        0.0660
     11 H           2.6266    2.4278    1.7943 H       1  LIG1        0.0660
     12 H           3.4497    1.1135    0.9045 H       1  LIG1        0.0660
     13 N          -0.6200    1.4984   -1.6078 N.pl3   1  LIG1       -0.3535
     14 H           0.2176    1.8392   -2.0657 H       1  LIG1        0.1425
     15 H          -1.1485    0.8918   -2.2259 H       1  LIG1        0.1425
     16 C          -2.3135   -0.7029   -0.0548 C.ar    1  LIG1        0.0682
     17 C          -3.4953   -0.1338   -0.5007 C.ar    1  LIG1       -0.0231
     18 C          -4.4138   -1.2008   -0.6714 C.ar    1  LIG1       -0.0327
     19 C          -3.7758   -2.3791   -0.3187 C.ar    1  LIG1        0.0523
     20 N          -2.5026   -2.0505    0.0492 N.ar    1  LIG1       -0.3526
     21 H          -1.8020   -2.7391    0.2827 H       1  LIG1        0.1660
     22 C          -3.7473    1.3396   -0.7091 C.3     1  LIG1       -0.0376
     23 H          -4.6800    1.6323   -0.2250 H       1  LIG1        0.0278
     24 H          -3.8222    1.5804   -1.7715 H       1  LIG1        0.0278
     25 H          -2.9250    1.9195   -0.2905 H       1  LIG1        0.0278
     26 H          -5.4346   -1.1007   -1.0033 H       1  LIG1        0.0642
     27 C          -3.5040   -4.8855    0.0372 C.ar    1  LIG1        0.2244
     28 C          -4.2904   -3.7556   -0.2953 C.ar    1  LIG1        0.0598
     29 C          -5.6154   -4.0325   -0.6079 C.ar    1  LIG1       -0.0455
     30 C          -6.1010   -5.3391   -0.5880 C.ar    1  LIG1       -0.0347
     31 C          -5.2314   -6.3607   -0.2308 C.ar    1  LIG1        0.0800
     32 N          -3.9539   -6.1156    0.0790 N.ar    1  LIG1       -0.2122
     33 H          -6.2745   -3.2192   -0.8798 H       1  LIG1        0.0626
     34 O          -2.1967   -4.6902    0.3346 O.3     1  LIG1       -0.4792
     35 C          -1.4221   -5.8647    0.5885 C.3     1  LIG1        0.0804
     36 H          -0.4028   -5.5103    0.7183 H       1  LIG1        0.0660
     37 H          -1.7826   -6.3605    1.4885 H       1  LIG1        0.0660
     38 H          -1.5004   -6.5507   -0.2535 H       1  LIG1        0.0660
     39 H          -7.1230   -5.5595   -0.8625 H       1  LIG1        0.0639
     40 C          -4.9748   -8.8281   -0.7458 C.ar    1  LIG1        0.2241
     41 C          -5.6944   -7.7745   -0.1506 C.ar    1  LIG1        0.0654
     42 C          -6.8713   -8.0935    0.5155 C.ar    1  LIG1       -0.0042
     43 C          -7.2911   -9.4238    0.5784 C.ar    1  LIG1        0.1390
     44 C          -6.4974  -10.3828   -0.0389 C.ar    1  LIG1        0.0730
     45 N          -5.3726  -10.0853   -0.6848 N.ar    1  LIG1       -0.2171
     46 H          -7.4295   -7.2991    0.9938 H       1  LIG1        0.0663
     47 H          -6.7980  -11.4223    0.0004 H       1  LIG1        0.0868
     48 O          -3.8522   -8.5340   -1.4239 O.3     1  LIG1       -0.4792
     49 C          -3.1938   -9.6196   -2.0674 C.3     1  LIG1        0.0804
     50 H          -2.3322   -9.1767   -2.5593 H       1  LIG1        0.0660
     51 H          -2.8836  -10.3644   -1.3348 H       1  LIG1        0.0660
     52 H          -3.8569  -10.0891   -2.7942 H       1  LIG1        0.0660
     53 O          -8.4156   -9.8646    1.2026 O.3     1  LIG1       -0.4936
     54 C          -9.2362   -8.8976    1.8269 C.3     1  LIG1        0.0789
     55 H         -10.0741   -9.4447    2.2497 H       1  LIG1        0.0660
     56 H          -8.6929   -8.3831    2.6240 H       1  LIG1        0.0660
     57 H          -9.6021   -8.1702    1.0971 H       1  LIG1        0.0660
@<TRIPOS>BOND
     1    52    49    1
     2    50    49    1
     3    15    13    1
     4    49    48    1
     5    49    51    1
     6    14    13    1
     7    24    22    1
     8    13     3    1
     9    48    40    1
    10    26    18    1
    11    33    29    1
    12    39    30    1
    13    40    45   ar
    14    40    41   ar
    15    22    17    1
    16    22    25    1
    17    22    23    1
    18    45    44   ar
    19    18    17   ar
    20    18    19   ar
    21    29    30   ar
    22    29    28   ar
    23    30    31   ar
    24    17    16   ar
    25     3     4   ar
    26     3     2   ar
    27    19    28    1
    28    19    20   ar
    29    28    27   ar
    30    38    35    1
    31    31    41    1
    32    31    32   ar
    33    41    42   ar
    34    16    20   ar
    35    16     4    1
    36     8     2    1
    37     8     9    1
    38    44    47    1
    39    44    43   ar
    40    27    32   ar
    41    27    34    1
    42    20    21    1
    43     4     5   ar
    44    34    35    1
    45    10     9    1
    46     2     1   ar
    47    42    43   ar
    48    42    46    1
    49    43    53    1
    50    35    36    1
    51    35    37    1
    52     9    12    1
    53     9    11    1
    54    57    54    1
    55    53    54    1
    56     5     1   ar
    57     5     6    1
    58     1     7    1
    59    54    55    1
    60    54    56    1
