@<TRIPOS>MOLECULE
mol_data/opt/m06hf/geoms/mol2/13lh13lh-13lh.out
 44 46 0 0 0
SMALL
GASTEIGER

@<TRIPOS>ATOM
      1 C           1.2156   -0.6966   -0.3130 C.ar    1  LIG1        0.0463
      2 C           0.8594    0.5812    0.0558 C.ar    1  LIG1        0.1585
      3 C          -0.5605    0.6292    0.1702 C.ar    1  LIG1        0.0940
      4 C          -1.0189   -0.6330   -0.1317 C.ar    1  LIG1        0.0912
      5 N           0.0515   -1.4227   -0.4132 N.ar    1  LIG1       -0.3549
      6 H          -0.0501   -2.3715   -0.7430 H       1  LIG1        0.1655
      7 H           2.1744   -1.1417   -0.5070 H       1  LIG1        0.0845
      8 O           1.6377    1.6704    0.2934 O.3     1  LIG1       -0.4918
      9 C           3.0239    1.4479    0.1359 C.3     1  LIG1        0.0789
     10 H           3.5193    2.3901    0.3544 H       1  LIG1        0.0660
     11 H           3.3649    0.6765    0.8323 H       1  LIG1        0.0660
     12 H           3.2442    1.1387   -0.8901 H       1  LIG1        0.0660
     13 N          -1.3965    1.7362    0.5126 N.pl3   1  LIG1       -0.3535
     14 H          -1.2373    2.0172    1.4769 H       1  LIG1        0.1425
     15 H          -1.1663    2.5362   -0.0713 H       1  LIG1        0.1425
     16 C          -2.3808   -1.1302   -0.1833 C.ar    1  LIG1        0.1094
     17 C          -2.8503   -2.4038   -0.4224 C.ar    1  LIG1        0.1679
     18 C          -4.2715   -2.3548   -0.4015 C.ar    1  LIG1        0.0947
     19 C          -4.6096   -1.0368   -0.1524 C.ar    1  LIG1        0.0916
     20 N          -3.4635   -0.3174   -0.0205 N.ar    1  LIG1       -0.3473
     21 H          -3.3877    0.6661    0.2291 H       1  LIG1        0.1662
     22 O          -2.0583   -3.5086   -0.6378 O.3     1  LIG1       -0.4911
     23 C          -1.8303   -4.2535    0.5584 C.3     1  LIG1        0.0790
     24 H          -1.2152   -5.1080    0.2829 H       1  LIG1        0.0660
     25 H          -1.3143   -3.6309    1.2926 H       1  LIG1        0.0660
     26 H          -2.7779   -4.5977    0.9770 H       1  LIG1        0.0660
     27 N          -5.2227   -3.4040   -0.6111 N.pl3   1  LIG1       -0.3534
     28 H          -5.0103   -3.9059   -1.4692 H       1  LIG1        0.1425
     29 H          -5.1999   -4.0755    0.1520 H       1  LIG1        0.1425
     30 C          -5.9222   -0.4250   -0.0580 C.ar    1  LIG1        0.1089
     31 C          -6.2769    0.8854    0.1726 C.ar    1  LIG1        0.1673
     32 C          -7.6987    0.9618    0.1741 C.ar    1  LIG1        0.0851
     33 C          -8.1545   -0.3180   -0.0572 C.ar    1  LIG1        0.0267
     34 N          -7.0753   -1.1380   -0.2024 N.ar    1  LIG1       -0.3549
     35 H          -7.0486   -2.1306   -0.4066 H       1  LIG1        0.1655
     36 H          -9.1650   -0.6811   -0.1161 H       1  LIG1        0.0827
     37 O          -5.3945    1.9178    0.3821 O.3     1  LIG1       -0.4911
     38 C          -5.1855    2.7102   -0.7843 C.3     1  LIG1        0.0790
     39 H          -4.4637    3.4776   -0.5120 H       1  LIG1        0.0660
     40 H          -4.7917    2.0905   -1.5927 H       1  LIG1        0.0660
     41 H          -6.1228    3.1726   -1.1003 H       1  LIG1        0.0660
     42 N          -8.5024    2.1155    0.3993 N.pl3   1  LIG1       -0.3540
     43 H          -8.0264    2.7507    1.0324 H       1  LIG1        0.1425
     44 H          -8.6947    2.6116   -0.4655 H       1  LIG1        0.1425
@<TRIPOS>BOND
     1    40    38    1
     2    28    27    1
     3    41    38    1
     4    12     9    1
     5    38    39    1
     6    38    37    1
     7     6     5    1
     8    22    17    1
     9    22    23    1
    10    27    18    1
    11    27    29    1
    12     7     1    1
    13    44    42    1
    14    17    18   ar
    15    17    16   ar
    16     5     1   ar
    17     5     4   ar
    18    35    34    1
    19    18    19   ar
    20     1     2   ar
    21    34    30   ar
    22    34    33   ar
    23    16     4    1
    24    16    20   ar
    25    19    30    1
    26    19    20   ar
    27     4     3   ar
    28    36    33    1
    29    15    13    1
    30    30    31   ar
    31    33    32   ar
    32    20    21    1
    33     2     3   ar
    34     2     8    1
    35     9     8    1
    36     9    10    1
    37     9    11    1
    38     3    13    1
    39    31    32   ar
    40    31    37    1
    41    32    42    1
    42    24    23    1
    43    42    43    1
    44    13    14    1
    45    23    26    1
    46    23    25    1
