@<TRIPOS>MOLECULE
mol_data/opt/m06hf/geoms/mol2/13lh4hh-12hi4df-.out
 56 59 0 0 0
SMALL
GASTEIGER

@<TRIPOS>ATOM
      1 C           1.4203   -0.2659   -0.4844 C.ar    1  LIG1        0.0481
      2 C           1.0416    0.9549    0.0284 C.ar    1  LIG1        0.1792
      3 C          -0.3657    0.9364    0.1911 C.ar    1  LIG1        0.1844
      4 C          -0.8214   -0.2931   -0.2301 C.ar    1  LIG1        0.0956
      5 N           0.2825   -1.0047   -0.6392 N.ar    1  LIG1       -0.3546
      6 H           0.2265   -1.9706   -0.9294 H       1  LIG1        0.1656
      7 H           2.3869   -0.6532   -0.7515 H       1  LIG1        0.0845
      8 O           1.7616    2.0679    0.3413 O.3     1  LIG1       -0.4900
      9 C           3.1512    1.9636    0.0997 C.3     1  LIG1        0.0790
     10 H           3.5896    2.9173    0.3812 H       1  LIG1        0.0660
     11 H           3.5797    1.1618    0.7075 H       1  LIG1        0.0660
     12 H           3.3360    1.7644   -0.9593 H       1  LIG1        0.0660
     13 O          -1.1165    1.9622    0.6839 O.3     1  LIG1       -0.5019
     14 H          -0.5328    2.7215    0.8066 H       1  LIG1        0.2924
     15 C          -2.5888   -1.8937   -1.0517 C.ar    1  LIG1        0.1261
     16 C          -2.1829   -0.8400   -0.2084 C.ar    1  LIG1        0.0418
     17 C          -3.1314   -0.3596    0.6848 C.ar    1  LIG1       -0.0443
     18 C          -4.4176   -0.9023    0.7511 C.ar    1  LIG1       -0.0236
     19 C          -4.7017   -1.9570   -0.1218 C.ar    1  LIG1        0.0793
     20 N          -3.7925   -2.4316   -0.9878 N.ar    1  LIG1       -0.2314
     21 H          -2.8486    0.4448    1.3543 H       1  LIG1        0.0628
     22 N          -1.6978   -2.4446   -1.9930 N.pl3   1  LIG1       -0.3426
     23 H          -2.1930   -3.1058   -2.5815 H       1  LIG1        0.1437
     24 H          -1.2417   -1.7282   -2.5515 H       1  LIG1        0.1437
     25 C          -5.3978   -0.3762    1.7846 C.3     1  LIG1       -0.0377
     26 H          -6.0969   -1.1543    2.0868 H       1  LIG1        0.0278
     27 H          -5.9662    0.4701    1.3933 H       1  LIG1        0.0278
     28 H          -4.8460   -0.0344    2.6603 H       1  LIG1        0.0278
     29 C          -6.1732   -4.0258   -0.1419 C.ar    1  LIG1        0.1262
     30 C          -6.0399   -2.6180   -0.1679 C.ar    1  LIG1        0.0419
     31 C          -7.2010   -1.8713   -0.2597 C.ar    1  LIG1       -0.0265
     32 C          -8.4673   -2.4723   -0.2798 C.ar    1  LIG1        0.0517
     33 C          -8.4847   -3.8745   -0.2286 C.ar    1  LIG1        0.0955
     34 N          -7.3637   -4.6041   -0.1682 N.ar    1  LIG1       -0.2299
     35 H          -7.1302   -0.7900   -0.3111 H       1  LIG1        0.0644
     36 N          -5.0693   -4.8546   -0.0337 N.pl3   1  LIG1       -0.3426
     37 H          -5.2991   -5.8205   -0.2209 H       1  LIG1        0.1437
     38 H          -4.2438   -4.5073   -0.5038 H       1  LIG1        0.1437
     39 N          -9.6357   -1.7028   -0.2670 N.pl3   1  LIG1       -0.3563
     40 H          -9.4615   -0.7225   -0.4441 H       1  LIG1        0.1424
     41 H         -10.3623   -2.0700   -0.8815 H       1  LIG1        0.1424
     42 C         -10.7888   -4.5172   -1.0974 C.ar    1  LIG1        0.0340
     43 C         -11.9463   -5.2809   -0.9434 C.ar    1  LIG1       -0.0387
     44 C          -9.7593   -4.6579   -0.1592 C.ar    1  LIG1        0.0246
     45 C         -12.0774   -6.1809    0.1035 C.ar    1  LIG1       -0.0393
     46 H         -12.7530   -5.1734   -1.6592 H       1  LIG1        0.0637
     47 C          -9.8842   -5.5947    0.8660 C.ar    1  LIG1       -0.0300
     48 C         -11.0366   -6.3619    1.0194 C.ar    1  LIG1        0.0253
     49 H          -9.0548   -5.7073    1.5539 H       1  LIG1        0.0643
     50 H         -12.9911   -6.7535    0.2106 H       1  LIG1        0.0636
     51 N         -10.6690   -3.5902   -2.1647 N.pl3   1  LIG1       -0.3575
     52 H          -9.7311   -3.5780   -2.5551 H       1  LIG1        0.1423
     53 H         -11.3485   -3.7527   -2.8978 H       1  LIG1        0.1423
     54 N         -11.1776   -7.2508    2.0993 N.pl3   1  LIG1       -0.3579
     55 H         -11.7708   -8.0447    1.8986 H       1  LIG1        0.1423
     56 H         -10.2960   -7.5490    2.4946 H       1  LIG1        0.1423
@<TRIPOS>BOND
     1    53    51    1
     2    23    22    1
     3    52    51    1
     4    24    22    1
     5    51    42    1
     6    22    15    1
     7    46    43    1
     8    42    43   ar
     9    42    44   ar
    10    15    20   ar
    11    15    16   ar
    12    20    19   ar
    13    12     9    1
    14    43    45   ar
    15     6     5    1
    16    41    39    1
    17     7     1    1
    18     5     1   ar
    19     5     4   ar
    20    38    36    1
    21     1     2   ar
    22    40    39    1
    23    35    31    1
    24    32    39    1
    25    32    31   ar
    26    32    33   ar
    27    31    30   ar
    28     4    16    1
    29     4     3   ar
    30    33    34   ar
    31    33    44    1
    32    37    36    1
    33    16    17   ar
    34    34    29   ar
    35    30    29   ar
    36    30    19    1
    37    44    47   ar
    38    29    36    1
    39    19    18   ar
    40     2     3   ar
    41     2     8    1
    42     9     8    1
    43     9    10    1
    44     9    11    1
    45    45    50    1
    46    45    48   ar
    47     3    13    1
    48    13    14    1
    49    17    18   ar
    50    17    21    1
    51    18    25    1
    52    47    48   ar
    53    47    49    1
    54    48    54    1
    55    27    25    1
    56    25    26    1
    57    25    28    1
    58    55    54    1
    59    54    56    1
