@<TRIPOS>MOLECULE
mol_data/opt/m06hf/geoms/mol2/13lh12al-4ff-13fe-.out
 50 53 0 0 0
SMALL
GASTEIGER

@<TRIPOS>ATOM
      1 C           1.2708   -0.1500    0.5353 C.ar    1  LIG1        0.0463
      2 C           0.8567    1.1313    0.2454 C.ar    1  LIG1        0.1586
      3 C          -0.5409    1.0974   -0.0247 C.ar    1  LIG1        0.0955
      4 C          -0.9300   -0.2178    0.1086 C.ar    1  LIG1        0.1068
      5 N           0.1635   -0.9557    0.4394 N.ar    1  LIG1       -0.3537
      6 H           0.1296   -1.9451    0.6239 H       1  LIG1        0.1656
      7 H           2.2351   -0.5465    0.7959 H       1  LIG1        0.0845
      8 O           1.5647    2.2895    0.1984 O.3     1  LIG1       -0.4918
      9 C           2.9354    2.1607    0.5162 C.3     1  LIG1        0.0789
     10 H           3.3665    3.1560    0.4430 H       1  LIG1        0.0660
     11 H           3.0549    1.7755    1.5329 H       1  LIG1        0.0660
     12 H           3.4284    1.4887   -0.1921 H       1  LIG1        0.0660
     13 N          -1.3951    2.1842   -0.3665 N.pl3   1  LIG1       -0.3534
     14 H          -1.2962    2.9277    0.3199 H       1  LIG1        0.1425
     15 H          -1.1232    2.5719   -1.2664 H       1  LIG1        0.1425
     16 C          -2.2412   -0.8235   -0.0493 C.ar    1  LIG1        0.1573
     17 C          -3.4759   -0.2967   -0.2617 C.ar    1  LIG1        0.0282
     18 C          -4.3644   -1.4285   -0.3097 C.ar    1  LIG1        0.1664
     19 C          -3.6062   -2.5467   -0.1092 C.ar    1  LIG1        0.1807
     20 O          -2.3004   -2.1674    0.0366 O.2     1  LIG1       -0.4494
     21 H          -3.6814    0.7540   -0.3713 H       1  LIG1        0.0693
     22 O          -5.6886   -1.4356   -0.5631 O.3     1  LIG1       -0.4913
     23 C          -6.2966   -0.1627   -0.6762 C.3     1  LIG1        0.0790
     24 H          -7.3539   -0.3489   -0.8453 H       1  LIG1        0.0660
     25 H          -6.1631    0.4100    0.2447 H       1  LIG1        0.0660
     26 H          -5.8791    0.3908   -1.5212 H       1  LIG1        0.0660
     27 C          -5.0210   -4.5268    0.4894 C.ar    1  LIG1        0.1285
     28 C          -5.2459   -5.8979    0.4488 C.ar    1  LIG1       -0.0067
     29 C          -3.8819   -3.9843   -0.1142 C.ar    1  LIG1        0.0658
     30 C          -4.3447   -6.7752   -0.1625 C.ar    1  LIG1        0.0468
     31 H          -6.1325   -6.3102    0.9148 H       1  LIG1        0.0662
     32 C          -2.9712   -4.8576   -0.7114 C.ar    1  LIG1       -0.0052
     33 C          -3.1895   -6.2245   -0.7359 C.ar    1  LIG1        0.1270
     34 H          -2.0820   -4.4421   -1.1730 H       1  LIG1        0.0662
     35 O          -5.8678   -3.6810    1.1314 O.3     1  LIG1       -0.5060
     36 H          -6.6320   -4.1644    1.4613 H       1  LIG1        0.2922
     37 O          -2.2791   -7.0733   -1.3320 O.3     1  LIG1       -0.5061
     38 H          -1.5675   -6.5660   -1.7350 H       1  LIG1        0.2922
     39 C          -4.6333   -8.2149   -0.1751 C.ar    1  LIG1        0.0934
     40 C          -5.7118   -8.9116    0.3333 C.ar    1  LIG1        0.1575
     41 C          -5.5203  -10.2946    0.0620 C.ar    1  LIG1        0.0839
     42 C          -4.3155  -10.4004   -0.6115 C.ar    1  LIG1        0.0213
     43 N          -3.8056   -9.1629   -0.7426 N.ar    1  LIG1       -0.3565
     44 H          -2.9376   -8.9070   -1.1916 H       1  LIG1        0.1655
     45 H          -3.8138  -11.2726   -0.9911 H       1  LIG1        0.0820
     46 O          -6.7844   -8.3848    0.9836 O.3     1  LIG1       -0.5035
     47 H          -7.3695   -9.1112    1.2361 H       1  LIG1        0.2923
     48 C          -6.4475  -11.3117    0.4487 C.1     1  LIG1       -0.0645
     49 C          -7.2741  -12.1106    0.8062 C.1     1  LIG1       -0.1137
     50 H          -7.9933  -12.8335    1.1137 H       1  LIG1        0.1232
@<TRIPOS>BOND
     1    38    37    1
     2    26    23    1
     3    37    33    1
     4    15    13    1
     5    44    43    1
     6    34    32    1
     7    45    42    1
     8    24    23    1
     9    43    42   ar
    10    43    39   ar
    11    33    32   ar
    12    33    30   ar
    13    32    29   ar
    14    23    22    1
    15    23    25    1
    16    42    41   ar
    17    22    18    1
    18    21    17    1
    19    13     3    1
    20    13    14    1
    21    18    17   ar
    22    18    19   ar
    23    17    16   ar
    24    12     9    1
    25    39    30    1
    26    39    40   ar
    27    30    28   ar
    28    29    19    1
    29    29    27   ar
    30    19    20   ar
    31    16    20   ar
    32    16     4    1
    33     3     4   ar
    34     3     2   ar
    35    41    40   ar
    36    41    48    1
    37     4     5   ar
    38     8     2    1
    39     8     9    1
    40     2     1   ar
    41    40    46    1
    42     5     1   ar
    43     5     6    1
    44    10     9    1
    45    48    49    3
    46    28    27   ar
    47    28    31    1
    48    27    35    1
    49     9    11    1
    50     1     7    1
    51    49    50    1
    52    46    47    1
    53    35    36    1
