@<TRIPOS>MOLECULE
mol_data/opt/m06hf/geoms/mol2/13lh13lh-13lh13lh-.out
 58 61 0 0 0
SMALL
GASTEIGER

@<TRIPOS>ATOM
      1 C           1.2280   -0.7117   -0.3706 C.ar    1  LIG1        0.0463
      2 C           0.8689    0.5511    0.0448 C.ar    1  LIG1        0.1585
      3 C          -0.5488    0.5850    0.1825 C.ar    1  LIG1        0.0940
      4 C          -1.0040   -0.6698   -0.1550 C.ar    1  LIG1        0.0912
      5 N           0.0673   -1.4422   -0.4769 N.ar    1  LIG1       -0.3549
      6 H          -0.0339   -2.3801   -0.8365 H       1  LIG1        0.1655
      7 H           2.1872   -1.1413   -0.5946 H       1  LIG1        0.0845
      8 O           1.6399    1.6420    0.2973 O.3     1  LIG1       -0.4918
      9 C           3.0219    1.4533    0.0728 C.3     1  LIG1        0.0789
     10 H           3.5066    2.3995    0.3006 H       1  LIG1        0.0660
     11 H           3.4096    0.6685    0.7292 H       1  LIG1        0.0660
     12 H           3.2035    1.1817   -0.9708 H       1  LIG1        0.0660
     13 N          -1.3842    1.6782    0.5697 N.pl3   1  LIG1       -0.3535
     14 H          -1.2187    1.9243    1.5425 H       1  LIG1        0.1425
     15 H          -1.1543    2.4987    0.0144 H       1  LIG1        0.1425
     16 C          -2.3648   -1.1679   -0.2127 C.ar    1  LIG1        0.1094
     17 C          -2.8415   -2.4263   -0.5120 C.ar    1  LIG1        0.1679
     18 C          -4.2630   -2.3738   -0.4782 C.ar    1  LIG1        0.0947
     19 C          -4.5923   -1.0682   -0.1608 C.ar    1  LIG1        0.0917
     20 N          -3.4424   -0.3606    0.0006 N.ar    1  LIG1       -0.3473
     21 H          -3.3583    0.6080    0.2994 H       1  LIG1        0.1662
     22 O          -2.0502   -3.5172   -0.7899 O.3     1  LIG1       -0.4911
     23 C          -1.8387   -4.3423    0.3549 C.3     1  LIG1        0.0790
     24 H          -1.2218   -5.1776    0.0293 H       1  LIG1        0.0660
     25 H          -1.3309   -3.7731    1.1366 H       1  LIG1        0.0660
     26 H          -2.7920   -4.7124    0.7366 H       1  LIG1        0.0660
     27 N          -5.2245   -3.4015   -0.7292 N.pl3   1  LIG1       -0.3534
     28 H          -5.0258   -3.8741   -1.6059 H       1  LIG1        0.1425
     29 H          -5.2269   -4.0974    0.0114 H       1  LIG1        0.1425
     30 C          -5.8993   -0.4569   -0.0233 C.ar    1  LIG1        0.1094
     31 C          -6.2345    0.8421    0.2982 C.ar    1  LIG1        0.1679
     32 C          -7.6536    0.9328    0.3129 C.ar    1  LIG1        0.0947
     33 C          -8.1257   -0.3286   -0.0003 C.ar    1  LIG1        0.0916
     34 N          -7.0609   -1.1486   -0.2030 N.ar    1  LIG1       -0.3473
     35 H          -7.0982   -2.1180   -0.5082 H       1  LIG1        0.1662
     36 O          -5.3322    1.8447    0.5585 O.3     1  LIG1       -0.4911
     37 C          -5.0407    2.6413   -0.5879 C.3     1  LIG1        0.0790
     38 H          -4.2717    3.3485   -0.2840 H       1  LIG1        0.0660
     39 H          -4.6720    2.0102   -1.3996 H       1  LIG1        0.0660
     40 H          -5.9353    3.1746   -0.9177 H       1  LIG1        0.0660
     41 N          -8.4921    2.0546    0.6100 N.pl3   1  LIG1       -0.3534
     42 H          -8.1914    2.4965    1.4744 H       1  LIG1        0.1425
     43 H          -8.4376    2.7530   -0.1269 H       1  LIG1        0.1425
     44 C          -9.4922   -0.8069   -0.0922 C.ar    1  LIG1        0.1089
     45 C          -9.9651   -2.0616   -0.4053 C.ar    1  LIG1        0.1673
     46 C         -11.3849   -2.0220   -0.3452 C.ar    1  LIG1        0.0851
     47 C         -11.7241   -0.7326    0.0035 C.ar    1  LIG1        0.0267
     48 N         -10.5686   -0.0135    0.1553 N.ar    1  LIG1       -0.3549
     49 H         -10.4492    0.9527    0.4351 H       1  LIG1        0.1655
     50 H         -12.6924   -0.2895    0.1575 H       1  LIG1        0.0827
     51 O          -9.1862   -3.1477   -0.7182 O.3     1  LIG1       -0.4911
     52 C          -9.1556   -4.1105    0.3370 C.3     1  LIG1        0.0790
     53 H          -8.5437   -4.9373   -0.0191 H       1  LIG1        0.0660
     54 H          -8.7084   -3.6651    1.2286 H       1  LIG1        0.0660
     55 H         -10.1688   -4.4496    0.5581 H       1  LIG1        0.0660
     56 N         -12.2098   -3.1530   -0.5635 N.pl3   1  LIG1       -0.3540
     57 H         -13.1934   -2.9106   -0.5527 H       1  LIG1        0.1425
     58 H         -11.9843   -3.5909   -1.4513 H       1  LIG1        0.1425
@<TRIPOS>BOND
     1    28    27    1
     2    58    56    1
     3    39    37    1
     4    12     9    1
     5    40    37    1
     6     6     5    1
     7    22    17    1
     8    22    23    1
     9    27    18    1
    10    27    29    1
    11    51    45    1
    12    51    52    1
    13     7     1    1
    14    37    38    1
    15    37    36    1
    16    56    57    1
    17    56    46    1
    18    17    18   ar
    19    17    16   ar
    20    35    34    1
    21    18    19   ar
    22     5     1   ar
    23     5     4   ar
    24    45    46   ar
    25    45    44   ar
    26     1     2   ar
    27    46    47   ar
    28    16     4    1
    29    16    20   ar
    30    34    30   ar
    31    34    33   ar
    32    19    30    1
    33    19    20   ar
    34     4     3   ar
    35    43    41    1
    36    44    33    1
    37    44    48   ar
    38    30    31   ar
    39    53    52    1
    40    33    32   ar
    41    20    21    1
    42    47    48   ar
    43    47    50    1
    44    15    13    1
    45    24    23    1
    46     2     3   ar
    47     2     8    1
    48     9     8    1
    49     9    10    1
    50     9    11    1
    51    48    49    1
    52     3    13    1
    53    31    32   ar
    54    31    36    1
    55    32    41    1
    56    52    55    1
    57    52    54    1
    58    23    26    1
    59    23    25    1
    60    13    14    1
    61    41    42    1
