@<TRIPOS>MOLECULE
mol_data/opt/m06hf/geoms/mol2/13lh12fe4ha6ld-.out
 52 55 0 0 0
SMALL
GASTEIGER

@<TRIPOS>ATOM
      1 C           1.1987   -0.0705   -0.6330 C.ar    1  LIG1        0.0463
      2 C           0.8243    1.0946   -0.0018 C.ar    1  LIG1        0.1586
      3 C          -0.5642    1.0183    0.3045 C.ar    1  LIG1        0.0956
      4 C          -0.9910   -0.2053   -0.1683 C.ar    1  LIG1        0.1104
      5 N           0.0828   -0.8511   -0.7326 N.ar    1  LIG1       -0.3536
      6 H           0.0315   -1.7629   -1.1534 H       1  LIG1        0.1656
      7 H           2.1510   -0.3947   -1.0118 H       1  LIG1        0.0845
      8 O           1.5578    2.1928    0.3303 O.3     1  LIG1       -0.4918
      9 C           2.9258    2.1118   -0.0095 C.3     1  LIG1        0.0789
     10 H           3.3839    3.0434    0.3123 H       1  LIG1        0.0660
     11 H           3.3945    1.2685    0.5061 H       1  LIG1        0.0660
     12 H           3.0430    1.9925   -1.0908 H       1  LIG1        0.0660
     13 N          -1.2793    1.9812    1.0223 N.pl3   1  LIG1       -0.3534
     14 H          -0.7857    2.8651    1.0403 H       1  LIG1        0.1425
     15 H          -2.2382    2.0823    0.7093 H       1  LIG1        0.1425
     16 C          -2.3054   -0.8091   -0.1277 C.ar    1  LIG1        0.1961
     17 C          -3.5630   -0.3064   -0.0537 C.ar    1  LIG1        0.1806
     18 C          -4.4653   -1.4299   -0.0259 C.ar    1  LIG1        0.1125
     19 C          -3.6792   -2.5505   -0.1161 C.ar    1  LIG1        0.1565
     20 O          -2.3860   -2.1709   -0.1733 O.2     1  LIG1       -0.4482
     21 O          -3.9229    1.0028   -0.0362 O.3     1  LIG1       -0.5023
     22 H          -4.8603    1.0653    0.1887 H       1  LIG1        0.2923
     23 C          -5.8762   -1.2857    0.1529 C.1     1  LIG1       -0.0622
     24 C          -7.0512   -1.0807    0.3053 C.1     1  LIG1       -0.1137
     25 H          -8.0963   -0.9323    0.4499 H       1  LIG1        0.1232
     26 C          -5.0126   -4.5688   -0.8069 C.ar    1  LIG1        0.0359
     27 C          -5.1874   -5.9598   -0.7294 C.ar    1  LIG1       -0.0325
     28 C          -3.9413   -3.9953   -0.0966 C.ar    1  LIG1        0.0393
     29 C          -4.3212   -6.7614    0.0025 C.ar    1  LIG1       -0.0110
     30 H          -6.0046   -6.4139   -1.2782 H       1  LIG1        0.0642
     31 C          -3.0604   -4.8182    0.6167 C.ar    1  LIG1       -0.0487
     32 C          -3.2327   -6.1888    0.6732 C.ar    1  LIG1       -0.0531
     33 H          -2.2368   -4.3495    1.1400 H       1  LIG1        0.0625
     34 N          -5.8880   -3.8108   -1.5536 N.pl3   1  LIG1       -0.3574
     35 H          -5.6014   -2.8734   -1.7949 H       1  LIG1        0.1423
     36 H          -6.4042   -4.2936   -2.2722 H       1  LIG1        0.1423
     37 H          -2.5496   -6.8120    1.2313 H       1  LIG1        0.0624
     38 C          -3.5995   -9.2095   -0.0547 C.ar    1  LIG1        0.2224
     39 C          -4.6066   -8.2213    0.0998 C.ar    1  LIG1        0.0449
     40 C          -5.8849   -8.6833    0.3412 C.ar    1  LIG1       -0.0301
     41 C          -6.1301  -10.0635    0.4114 C.ar    1  LIG1        0.0706
     42 C          -5.0664  -10.9365    0.2414 C.ar    1  LIG1        0.0488
     43 N          -3.8256  -10.5082    0.0132 N.ar    1  LIG1       -0.2195
     44 H          -6.6940   -7.9806    0.4942 H       1  LIG1        0.0639
     45 H          -5.2153  -12.0076    0.2919 H       1  LIG1        0.0844
     46 O          -2.3560   -8.7904   -0.2903 O.3     1  LIG1       -0.4792
     47 C          -1.3495   -9.7866   -0.4787 C.3     1  LIG1        0.0804
     48 H          -0.4365   -9.2292   -0.6653 H       1  LIG1        0.0660
     49 H          -1.2585  -10.4017    0.4153 H       1  LIG1        0.0660
     50 H          -1.6032  -10.4183   -1.3286 H       1  LIG1        0.0660
     51 N          -8.5182  -10.9723    0.8463 N.1     1  LIG1       -0.1908
     52 C          -7.4594  -10.5717    0.6570 C.1     1  LIG1        0.1007
@<TRIPOS>BOND
     1    36    34    1
     2    35    34    1
     3    34    26    1
     4    50    47    1
     5    30    27    1
     6     6     5    1
     7    12     9    1
     8     7     1    1
     9    26    27   ar
    10    26    28   ar
    11     5     1   ar
    12     5     4   ar
    13    27    29   ar
    14    48    47    1
    15     1     2   ar
    16    47    46    1
    17    47    49    1
    18    46    38    1
    19    20    16   ar
    20    20    19   ar
    21     4    16    1
    22     4     3   ar
    23    16    17   ar
    24    19    28    1
    25    19    18   ar
    26    28    31   ar
    27    38    43   ar
    28    38    39   ar
    29    17    21    1
    30    17    18   ar
    31    21    22    1
    32    18    23    1
    33     9    10    1
    34     9     8    1
    35     9    11    1
    36     2     3   ar
    37     2     8    1
    38    29    39    1
    39    29    32   ar
    40    43    42   ar
    41    39    40   ar
    42    23    24    3
    43    42    45    1
    44    42    41   ar
    45     3    13    1
    46    24    25    1
    47    40    41   ar
    48    40    44    1
    49    41    52    1
    50    31    32   ar
    51    31    33    1
    52    52    51    3
    53    32    37    1
    54    15    13    1
    55    13    14    1
