@<TRIPOS>MOLECULE
mol_data/opt/m06hf/geoms/mol2/13lh13lh-.out
 30 31 0 0 0
SMALL
GASTEIGER

@<TRIPOS>ATOM
      1 C           1.0745   -0.5337   -0.3219 C.ar    1  LIG1        0.0463
      2 C           0.7272    0.7786   -0.0892 C.ar    1  LIG1        0.1585
      3 C          -0.6937    0.8533   -0.0211 C.ar    1  LIG1        0.0940
      4 C          -1.1613   -0.4269   -0.2140 C.ar    1  LIG1        0.0912
      5 N          -0.0968   -1.2504   -0.3902 N.ar    1  LIG1       -0.3549
      6 H          -0.2061   -2.2343   -0.5925 H       1  LIG1        0.1655
      7 H           2.0318   -1.0067   -0.4434 H       1  LIG1        0.0845
      8 O           1.5142    1.8775    0.0625 O.3     1  LIG1       -0.4918
      9 C           2.9019    1.6192    0.0089 C.3     1  LIG1        0.0789
     10 H           3.4039    2.5711    0.1607 H       1  LIG1        0.0660
     11 H           3.1868    0.9161    0.7967 H       1  LIG1        0.0660
     12 H           3.1740    1.2061   -0.9669 H       1  LIG1        0.0660
     13 N          -1.5228    1.9988    0.1965 N.pl3   1  LIG1       -0.3535
     14 H          -1.3127    2.4155    1.1002 H       1  LIG1        0.1425
     15 H          -1.3247    2.7061   -0.5070 H       1  LIG1        0.1425
     16 C          -2.5277   -0.9162   -0.2384 C.ar    1  LIG1        0.1089
     17 C          -3.0024   -2.1995   -0.3860 C.ar    1  LIG1        0.1673
     18 C          -4.4232   -2.1462   -0.3496 C.ar    1  LIG1        0.0851
     19 C          -4.7579   -0.8196   -0.1803 C.ar    1  LIG1        0.0267
     20 N          -3.6012   -0.0925   -0.1114 N.ar    1  LIG1       -0.3549
     21 H          -3.4768    0.9053    0.0207 H       1  LIG1        0.1655
     22 H          -5.7250   -0.3551   -0.0984 H       1  LIG1        0.0827
     23 O          -2.2203   -3.3198   -0.5336 O.3     1  LIG1       -0.4911
     24 C          -2.2843   -4.1684    0.6172 C.3     1  LIG1        0.0790
     25 H          -1.7030   -5.0575    0.3802 H       1  LIG1        0.0660
     26 H          -1.8547   -3.6505    1.4780 H       1  LIG1        0.0660
     27 H          -3.3234   -4.4320    0.8199 H       1  LIG1        0.0660
     28 N          -5.2564   -3.2912   -0.4219 N.pl3   1  LIG1       -0.3540
     29 H          -6.2383   -3.0452   -0.3716 H       1  LIG1        0.1425
     30 H          -5.0869   -3.8056   -1.2808 H       1  LIG1        0.1425
@<TRIPOS>BOND
     1    30    28    1
     2    12     9    1
     3     6     5    1
     4    23    17    1
     5    23    24    1
     6    15    13    1
     7     7     1    1
     8    28    29    1
     9    28    18    1
    10     5     1   ar
    11     5     4   ar
    12    17    18   ar
    13    17    16   ar
    14    18    19   ar
    15     1     2   ar
    16    16     4    1
    17    16    20   ar
    18     4     3   ar
    19    19    20   ar
    20    19    22    1
    21    20    21    1
    22     2     3   ar
    23     2     8    1
    24     3    13    1
    25     9     8    1
    26     9    10    1
    27     9    11    1
    28    13    14    1
    29    25    24    1
    30    24    27    1
    31    24    26    1
