@<TRIPOS>MOLECULE
mol_data/opt/m06hf/geoms/mol2/13lh13lh-13lh-13lh.out
 58 61 0 0 0
SMALL
GASTEIGER

@<TRIPOS>ATOM
      1 C           1.0183   -0.9794    0.5398 C.ar    1  LIG1        0.0463
      2 C           0.6856    0.3240    0.8349 C.ar    1  LIG1        0.1585
      3 C          -0.7261    0.4601    0.7004 C.ar    1  LIG1        0.0940
      4 C          -1.2033   -0.7739    0.3201 C.ar    1  LIG1        0.0912
      5 N          -0.1515   -1.6288    0.2219 N.ar    1  LIG1       -0.3549
      6 H          -0.2720   -2.6139    0.0344 H       1  LIG1        0.1655
      7 H           1.9650   -1.4886    0.5282 H       1  LIG1        0.0845
      8 O           1.4761    1.3687    1.1965 O.3     1  LIG1       -0.4918
      9 C           2.8492    1.0569    1.3145 C.3     1  LIG1        0.0789
     10 H           3.3537    1.9725    1.6115 H       1  LIG1        0.0660
     11 H           2.9987    0.2845    2.0746 H       1  LIG1        0.0660
     12 H           3.2430    0.7085    0.3555 H       1  LIG1        0.0660
     13 N          -1.5425    1.6121    0.9261 N.pl3   1  LIG1       -0.3535
     14 H          -1.3737    1.9762    1.8608 H       1  LIG1        0.1425
     15 H          -1.2966    2.3531    0.2742 H       1  LIG1        0.1425
     16 C          -2.5697   -1.1912    0.0693 C.ar    1  LIG1        0.1094
     17 C          -3.0611   -2.4137   -0.3379 C.ar    1  LIG1        0.1679
     18 C          -4.4808   -2.3303   -0.3744 C.ar    1  LIG1        0.0947
     19 C          -4.8001   -1.0384    0.0185 C.ar    1  LIG1        0.0917
     20 N          -3.6280   -0.3715    0.2895 N.ar    1  LIG1       -0.3473
     21 H          -3.4965    0.5621    0.6645 H       1  LIG1        0.1662
     22 O          -2.2831   -3.4933   -0.6890 O.3     1  LIG1       -0.4911
     23 C          -1.9967   -3.5243   -2.0868 C.3     1  LIG1        0.0790
     24 H          -1.4193   -4.4287   -2.2686 H       1  LIG1        0.0660
     25 H          -2.9228   -3.5504   -2.6649 H       1  LIG1        0.0660
     26 H          -1.4213   -2.6403   -2.3707 H       1  LIG1        0.0660
     27 N          -5.3591   -3.3833   -0.6603 N.pl3   1  LIG1       -0.3534
     28 H          -6.3289   -3.0939   -0.7305 H       1  LIG1        0.1425
     29 H          -5.0642   -3.9642   -1.4328 H       1  LIG1        0.1425
     30 C          -6.1017   -0.3917    0.1057 C.ar    1  LIG1        0.1094
     31 C          -7.3537   -0.9102    0.3811 C.ar    1  LIG1        0.1679
     32 C          -8.2965    0.1538    0.3338 C.ar    1  LIG1        0.0947
     33 C          -7.5869    1.2938    0.0273 C.ar    1  LIG1        0.0916
     34 N          -6.2749    0.9538   -0.1077 N.ar    1  LIG1       -0.3473
     35 H          -5.5611    1.6286   -0.3462 H       1  LIG1        0.1662
     36 O          -7.6753   -2.2146    0.6511 O.3     1  LIG1       -0.4911
     37 C          -7.1293   -2.6985    1.8818 C.3     1  LIG1        0.0790
     38 H          -7.4847   -3.7205    1.9918 H       1  LIG1        0.0660
     39 H          -6.0397   -2.6876    1.8409 H       1  LIG1        0.0660
     40 H          -7.4842   -2.0778    2.7075 H       1  LIG1        0.0660
     41 N          -9.7090    0.1180    0.5579 N.pl3   1  LIG1       -0.3534
     42 H         -10.1635   -0.4351   -0.1649 H       1  LIG1        0.1425
     43 H          -9.9071   -0.3379    1.4450 H       1  LIG1        0.1425
     44 C          -8.0481    2.6575   -0.1484 C.ar    1  LIG1        0.1089
     45 C          -7.3570    3.7808   -0.5432 C.ar    1  LIG1        0.1673
     46 C          -8.2594    4.8823   -0.5224 C.ar    1  LIG1        0.0851
     47 C          -9.4742    4.3760   -0.1139 C.ar    1  LIG1        0.0267
     48 N          -9.3329    3.0366    0.0978 N.ar    1  LIG1       -0.3549
     49 H         -10.0271    2.3594    0.3925 H       1  LIG1        0.1655
     50 H         -10.4063    4.8895    0.0418 H       1  LIG1        0.0827
     51 O          -6.0231    3.8050   -0.8846 O.3     1  LIG1       -0.4911
     52 C          -5.8268    3.8297   -2.2979 C.3     1  LIG1        0.0790
     53 H          -4.7520    3.8577   -2.4651 H       1  LIG1        0.0660
     54 H          -6.2596    2.9350   -2.7504 H       1  LIG1        0.0660
     55 H          -6.2945    4.7181   -2.7265 H       1  LIG1        0.0660
     56 N          -7.9726    6.2423   -0.8282 N.pl3   1  LIG1       -0.3540
     57 H          -7.0064    6.4542   -0.5993 H       1  LIG1        0.1425
     58 H          -8.1233    6.4489   -1.8107 H       1  LIG1        0.1425
@<TRIPOS>BOND
     1    54    52    1
     2    55    52    1
     3    25    23    1
     4    53    52    1
     5    26    23    1
     6    52    51    1
     7    24    23    1
     8    23    22    1
     9    58    56    1
    10    29    27    1
    11    51    45    1
    12    56    57    1
    13    56    46    1
    14    28    27    1
    15    22    17    1
    16    27    18    1
    17    45    46   ar
    18    45    44   ar
    19    46    47   ar
    20    18    17   ar
    21    18    19   ar
    22    35    34    1
    23    17    16   ar
    24    42    41    1
    25    44    33    1
    26    44    48   ar
    27    47    50    1
    28    47    48   ar
    29    34    33   ar
    30    34    30   ar
    31    19    30    1
    32    19    20   ar
    33    33    32   ar
    34     6     5    1
    35    16    20   ar
    36    16     4    1
    37    48    49    1
    38    30    31   ar
    39     5     4   ar
    40     5     1   ar
    41    15    13    1
    42    20    21    1
    43     4     3   ar
    44    32    31   ar
    45    32    41    1
    46    12     9    1
    47    31    36    1
    48     7     1    1
    49     1     2   ar
    50    41    43    1
    51    36    37    1
    52     3     2   ar
    53     3    13    1
    54     2     8    1
    55    13    14    1
    56     8     9    1
    57     9    10    1
    58     9    11    1
    59    39    37    1
    60    37    38    1
    61    37    40    1
