@<TRIPOS>MOLECULE
mol_data/opt/m06hf/geoms/mol2/13lh6dl-13if-12ia.out
 52 55 0 0 0
SMALL
GASTEIGER

@<TRIPOS>ATOM
      1 C           1.3936   -0.4026    0.1814 C.ar    1  LIG1        0.0463
      2 C           0.9594    0.8963    0.0301 C.ar    1  LIG1        0.1585
      3 C          -0.4509    0.8743   -0.0995 C.ar    1  LIG1        0.0925
      4 C          -0.8453   -0.4544   -0.0228 C.ar    1  LIG1        0.0739
      5 N           0.2906   -1.2022    0.1352 N.ar    1  LIG1       -0.3560
      6 H           0.3186   -2.2087    0.1942 H       1  LIG1        0.1655
      7 H           2.3779   -0.8163    0.3070 H       1  LIG1        0.0845
      8 O           1.6537    2.0645    0.0041 O.3     1  LIG1       -0.4918
      9 C           3.0500    1.9315    0.1883 C.3     1  LIG1        0.0789
     10 H           3.4667    2.9342    0.1479 H       1  LIG1        0.0660
     11 H           3.2621    1.4766    1.1597 H       1  LIG1        0.0660
     12 H           3.4796    1.3177   -0.6087 H       1  LIG1        0.0660
     13 N          -1.2693    2.0258   -0.2678 N.pl3   1  LIG1       -0.3535
     14 H          -0.7384    2.8456    0.0132 H       1  LIG1        0.1425
     15 H          -1.5270    2.1431   -1.2453 H       1  LIG1        0.1425
     16 C          -2.5515   -2.3305   -0.3090 C.ar    1  LIG1        0.1501
     17 C          -2.2094   -0.9980   -0.0713 C.ar    1  LIG1        0.0395
     18 C          -3.2865   -0.1249    0.1620 C.ar    1  LIG1       -0.0059
     19 C          -4.5859   -0.5923    0.1182 C.ar    1  LIG1        0.1481
     20 C          -4.8239   -1.9573   -0.1891 C.ar    1  LIG1        0.1304
     21 N          -3.8054   -2.7817   -0.3653 N.ar    1  LIG1       -0.2305
     22 H          -3.0541    0.9086    0.3848 H       1  LIG1        0.0662
     23 N          -0.7008   -4.1300   -0.6491 N.1     1  LIG1       -0.1893
     24 C          -1.5320   -3.3488   -0.5152 C.1     1  LIG1        0.1198
     25 O          -5.6608    0.1661    0.3817 O.3     1  LIG1       -0.4929
     26 C          -5.4574    1.5337    0.6992 C.3     1  LIG1        0.0789
     27 H          -6.4508    1.9524    0.8345 H       1  LIG1        0.0660
     28 H          -4.8798    1.6286    1.6209 H       1  LIG1        0.0660
     29 H          -4.9424    2.0453   -0.1173 H       1  LIG1        0.0660
     30 C          -6.1617   -2.5702   -0.2630 C.ar    1  LIG1        0.0756
     31 C          -7.4586   -2.1104   -0.4851 C.ar    1  LIG1        0.0186
     32 C          -8.2719   -3.2677   -0.4689 C.ar    1  LIG1        0.1486
     33 C          -7.4793   -4.3779   -0.2407 C.ar    1  LIG1        0.1250
     34 N          -6.2016   -3.9258   -0.1327 N.ar    1  LIG1       -0.3473
     35 H          -5.3690   -4.4894   -0.0305 H       1  LIG1        0.1662
     36 C          -8.0145   -0.7413   -0.7937 C.3     1  LIG1       -0.0342
     37 H          -8.9770   -0.8771   -1.2864 H       1  LIG1        0.0279
     38 H          -7.3453   -0.1857   -1.4482 H       1  LIG1        0.0279
     39 H          -8.1636   -0.1654    0.1201 H       1  LIG1        0.0279
     40 O          -9.6236   -3.2478   -0.6750 O.3     1  LIG1       -0.5043
     41 H          -9.8935   -4.0902   -1.0614 H       1  LIG1        0.2922
     42 C          -7.8437   -5.7850   -0.1591 C.ar    1  LIG1        0.1573
     43 C          -8.9197   -6.4251    0.3794 C.ar    1  LIG1       -0.0032
     44 C          -8.6986   -7.8263    0.1108 C.ar    1  LIG1       -0.0203
     45 C          -7.5152   -7.9086   -0.5404 C.ar    1  LIG1        0.0929
     46 O          -6.9883   -6.6790   -0.7156 O.2     1  LIG1       -0.4611
     47 H          -6.9414   -8.7321   -0.9274 H       1  LIG1        0.1029
     48 C         -10.0575   -5.8145    1.1592 C.3     1  LIG1       -0.0361
     49 H         -10.1581   -6.3243    2.1179 H       1  LIG1        0.0279
     50 H         -11.0014   -5.9195    0.6199 H       1  LIG1        0.0279
     51 H          -9.8707   -4.7561    1.3364 H       1  LIG1        0.0279
     52 H          -9.3392   -8.6457    0.3908 H       1  LIG1        0.0652
@<TRIPOS>BOND
     1    38    36    1
     2    37    36    1
     3    15    13    1
     4    41    40    1
     5    47    45    1
     6    36    31    1
     7    36    39    1
     8    46    45   ar
     9    46    42   ar
    10    40    32    1
    11    23    24    3
    12    12     9    1
    13    45    44   ar
    14    24    16    1
    15    31    32   ar
    16    31    30   ar
    17    32    33   ar
    18    21    16   ar
    19    21    20   ar
    20    16    17   ar
    21    13     3    1
    22    13    14    1
    23    30    20    1
    24    30    34   ar
    25    33    42    1
    26    33    34   ar
    27    20    19   ar
    28    42    43   ar
    29    34    35    1
    30    29    26    1
    31     3     4   ar
    32     3     2   ar
    33    17     4    1
    34    17    18   ar
    35     4     5   ar
    36     8     2    1
    37     8     9    1
    38     2     1   ar
    39    44    43   ar
    40    44    52    1
    41    19    18   ar
    42    19    25    1
    43     5     1   ar
    44     5     6    1
    45    10     9    1
    46    18    22    1
    47     1     7    1
    48     9    11    1
    49    43    48    1
    50    25    26    1
    51    50    48    1
    52    26    27    1
    53    26    28    1
    54    48    51    1
    55    48    49    1
