@<TRIPOS>MOLECULE
mol_data/opt/m06hf/geoms/mol2/13li13li-13li-13li.out
 62 65 0 0 0
SMALL
GASTEIGER

@<TRIPOS>ATOM
      1 C           1.1316   -0.6996   -0.0424 C.ar    1  LIG1        0.0447
      2 C           0.8240    0.3520   -0.8783 C.ar    1  LIG1        0.1408
      3 C          -0.5906    0.4645   -0.9752 C.ar    1  LIG1        0.0180
      4 C          -1.0996   -0.5397   -0.1745 C.ar    1  LIG1        0.0730
      5 N          -0.0605   -1.2290    0.3749 N.ar    1  LIG1       -0.3561
      6 H          -0.2055   -1.9997    1.0122 H       1  LIG1        0.1655
      7 H           2.0734   -1.1026    0.2822 H       1  LIG1        0.0844
      8 O           1.6588    1.1919   -1.5489 O.3     1  LIG1       -0.4933
      9 C           3.0341    0.9512   -1.3442 C.3     1  LIG1        0.0789
     10 H           3.5715    1.6968   -1.9242 H       1  LIG1        0.0660
     11 H           3.2852    1.0529   -0.2842 H       1  LIG1        0.0660
     12 H           3.3012   -0.0525   -1.6886 H       1  LIG1        0.0660
     13 C          -1.3249    1.4850   -1.8080 C.3     1  LIG1       -0.0342
     14 H          -1.8179    2.2361   -1.1845 H       1  LIG1        0.0279
     15 H          -2.0696    1.0084   -2.4505 H       1  LIG1        0.0279
     16 H          -0.6051    1.9999   -2.4431 H       1  LIG1        0.0279
     17 C          -2.4656   -0.9356    0.1389 C.ar    1  LIG1        0.1062
     18 C          -2.9097   -2.0686    0.7888 C.ar    1  LIG1        0.1502
     19 C          -4.3248   -2.0209    0.9030 C.ar    1  LIG1        0.0187
     20 C          -4.7037   -0.8355    0.3018 C.ar    1  LIG1        0.0735
     21 N          -3.5761   -0.1936   -0.1470 N.ar    1  LIG1       -0.3486
     22 H          -3.5731    0.6710   -0.6643 H       1  LIG1        0.1661
     23 O          -2.0834   -3.0624    1.2612 O.3     1  LIG1       -0.4927
     24 C          -2.0253   -4.1871    0.3841 C.3     1  LIG1        0.0789
     25 H          -1.3672   -4.9156    0.8533 H       1  LIG1        0.0660
     26 H          -3.0218   -4.6130    0.2536 H       1  LIG1        0.0660
     27 H          -1.6261   -3.8814   -0.5854 H       1  LIG1        0.0660
     28 C          -5.2054   -3.0302    1.5926 C.3     1  LIG1       -0.0341
     29 H          -4.6220   -3.5514    2.3526 H       1  LIG1        0.0279
     30 H          -5.6063   -3.7606    0.8867 H       1  LIG1        0.0279
     31 H          -6.0505   -2.5264    2.0613 H       1  LIG1        0.0279
     32 C          -6.0338   -0.2683    0.1158 C.ar    1  LIG1        0.1062
     33 C          -7.2252   -0.8843   -0.2173 C.ar    1  LIG1        0.1502
     34 C          -8.2446    0.1009   -0.3116 C.ar    1  LIG1        0.0187
     35 C          -7.6274    1.3058   -0.0277 C.ar    1  LIG1        0.0735
     36 N          -6.3054    1.0696    0.2197 N.ar    1  LIG1       -0.3486
     37 H          -5.6755    1.8028    0.5204 H       1  LIG1        0.1661
     38 O          -7.4157   -2.2201   -0.4414 O.3     1  LIG1       -0.4927
     39 C          -6.8540   -2.6692   -1.6710 C.3     1  LIG1        0.0789
     40 H          -7.1233   -3.7192   -1.7685 H       1  LIG1        0.0660
     41 H          -7.2689   -2.0959   -2.5036 H       1  LIG1        0.0660
     42 H          -5.7674   -2.5608   -1.6503 H       1  LIG1        0.0660
     43 C          -9.6879   -0.1778   -0.6461 C.3     1  LIG1       -0.0341
     44 H          -9.8494   -1.2546   -0.5965 H       1  LIG1        0.0279
     45 H          -9.9409    0.1558   -1.6566 H       1  LIG1        0.0279
     46 H         -10.3588    0.3061    0.0677 H       1  LIG1        0.0279
     47 C          -8.1310    2.6694    0.0626 C.ar    1  LIG1        0.1057
     48 C          -7.5116    3.7806    0.5933 C.ar    1  LIG1        0.1495
     49 C          -8.3624    4.9087    0.4312 C.ar    1  LIG1        0.0092
     50 C          -9.4854    4.4333   -0.2053 C.ar    1  LIG1        0.0087
     51 N          -9.3372    3.0918   -0.4212 N.ar    1  LIG1       -0.3563
     52 H          -9.9935    2.5005   -0.9033 H       1  LIG1        0.1655
     53 H         -10.3703    4.9556   -0.5264 H       1  LIG1        0.0811
     54 O          -6.2609    3.7692    1.1683 O.3     1  LIG1       -0.4927
     55 C          -6.3095    3.6774    2.5934 C.3     1  LIG1        0.0789
     56 H          -5.2792    3.6900    2.9419 H       1  LIG1        0.0660
     57 H          -6.8550    4.5282    3.0051 H       1  LIG1        0.0660
     58 H          -6.8007    2.7480    2.8892 H       1  LIG1        0.0660
     59 C          -8.0567    6.3201    0.8673 C.3     1  LIG1       -0.0348
     60 H          -8.5748    7.0369    0.2305 H       1  LIG1        0.0279
     61 H          -6.9834    6.4969    0.7933 H       1  LIG1        0.0279
     62 H          -8.3645    6.4929    1.9005 H       1  LIG1        0.0279
@<TRIPOS>BOND
     1    41    39    1
     2    15    13    1
     3    16    13    1
     4    10     9    1
     5    13    14    1
     6    13     3    1
     7    40    39    1
     8    12     9    1
     9    39    42    1
    10    39    38    1
    11    45    43    1
    12     8     9    1
    13     8     2    1
    14     9    11    1
    15     3     2   ar
    16     3     4   ar
    17    52    51    1
    18     2     1   ar
    19    22    21    1
    20    43    44    1
    21    43    34    1
    22    43    46    1
    23    27    24    1
    24    53    50    1
    25    38    33    1
    26    51    50   ar
    27    51    47   ar
    28    34    33   ar
    29    34    35   ar
    30    33    32   ar
    31    50    49   ar
    32     4    17    1
    33     4     5   ar
    34    21    17   ar
    35    21    20   ar
    36     1     7    1
    37     1     5   ar
    38    35    47    1
    39    35    36   ar
    40    47    48   ar
    41    32    36   ar
    42    32    20    1
    43    17    18   ar
    44    36    37    1
    45    60    59    1
    46    26    24    1
    47    20    19   ar
    48     5     6    1
    49    24    25    1
    50    24    23    1
    51    49    48   ar
    52    49    59    1
    53    48    54    1
    54    18    19   ar
    55    18    23    1
    56    61    59    1
    57    59    62    1
    58    30    28    1
    59    19    28    1
    60    54    55    1
    61    28    31    1
    62    28    29    1
    63    55    58    1
    64    55    56    1
    65    55    57    1
