@<TRIPOS>MOLECULE
mol_data/opt/m06hf/geoms/mol2/13li13li-.out
 32 33 0 0 0
SMALL
GASTEIGER

@<TRIPOS>ATOM
      1 C           0.9747   -0.5456   -0.5614 C.ar    1  LIG1        0.0447
      2 C           0.7169    0.7180   -0.0762 C.ar    1  LIG1        0.1408
      3 C          -0.6843    0.8546    0.1311 C.ar    1  LIG1        0.0180
      4 C          -1.2368   -0.3518   -0.2523 C.ar    1  LIG1        0.0730
      5 N          -0.2352   -1.1802   -0.6617 N.ar    1  LIG1       -0.3561
      6 H          -0.4145   -2.1180   -0.9929 H       1  LIG1        0.1655
      7 H           1.8921   -1.0324   -0.8366 H       1  LIG1        0.0844
      8 O           1.5870    1.7252    0.2087 O.3     1  LIG1       -0.4933
      9 C           2.9498    1.3890    0.0587 C.3     1  LIG1        0.0789
     10 H           3.5218    2.2677    0.3455 H       1  LIG1        0.0660
     11 H           3.2066    0.5462    0.7075 H       1  LIG1        0.0660
     12 H           3.1665    1.1290   -0.9818 H       1  LIG1        0.0660
     13 C          -1.3629    2.0781    0.6930 C.3     1  LIG1       -0.0342
     14 H          -2.1369    1.7977    1.4112 H       1  LIG1        0.0279
     15 H          -1.8095    2.6923   -0.0938 H       1  LIG1        0.0279
     16 H          -0.6199    2.6864    1.2076 H       1  LIG1        0.0279
     17 C          -2.6108   -0.8385   -0.2663 C.ar    1  LIG1        0.1057
     18 C          -3.0603   -2.1370   -0.3728 C.ar    1  LIG1        0.1495
     19 C          -4.4834   -2.1372   -0.3725 C.ar    1  LIG1        0.0092
     20 C          -4.8510   -0.8158   -0.2730 C.ar    1  LIG1        0.0087
     21 N          -3.7223   -0.0467   -0.2075 N.ar    1  LIG1       -0.3563
     22 H          -3.7000    0.9598   -0.1920 H       1  LIG1        0.1655
     23 H          -5.8306   -0.3698   -0.2519 H       1  LIG1        0.0811
     24 O          -2.2403   -3.2379   -0.4746 O.3     1  LIG1       -0.4927
     25 C          -1.9471   -3.8228    0.7940 C.3     1  LIG1        0.0789
     26 H          -1.3188   -4.6899    0.5997 H       1  LIG1        0.0660
     27 H          -1.4189   -3.1025    1.4219 H       1  LIG1        0.0660
     28 H          -2.8711   -4.1328    1.2848 H       1  LIG1        0.0660
     29 C          -5.3700   -3.3528   -0.4739 C.3     1  LIG1       -0.0348
     30 H          -5.4715   -3.8518    0.4918 H       1  LIG1        0.0279
     31 H          -4.9398   -4.0617   -1.1821 H       1  LIG1        0.0279
     32 H          -6.3640   -3.0696   -0.8192 H       1  LIG1        0.0279
@<TRIPOS>BOND
     1    31    29    1
     2     6     5    1
     3    12     9    1
     4     7     1    1
     5    32    29    1
     6     5     1   ar
     7     5     4   ar
     8     1     2   ar
     9    24    18    1
    10    24    25    1
    11    29    19    1
    12    29    30    1
    13    18    19   ar
    14    18    17   ar
    15    19    20   ar
    16    20    23    1
    17    20    21   ar
    18    17     4    1
    19    17    21   ar
    20     4     3   ar
    21    21    22    1
    22    15    13    1
    23     2     3   ar
    24     2     8    1
    25     9     8    1
    26     9    10    1
    27     9    11    1
    28     3    13    1
    29    26    25    1
    30    13    16    1
    31    13    14    1
    32    25    28    1
    33    25    27    1
