@<TRIPOS>MOLECULE
mol_data/opt/m06hf/geoms/mol2/13li13li13li13li-.out
 62 65 0 0 0
SMALL
GASTEIGER

@<TRIPOS>ATOM
      1 C           0.5272    1.5607   -1.2351 C.ar    1  LIG1        0.0447
      2 C           1.0763    0.7701   -0.2486 C.ar    1  LIG1        0.1408
      3 C           0.1490   -0.2542    0.0892 C.ar    1  LIG1        0.0180
      4 C          -0.9482   -0.0469   -0.7246 C.ar    1  LIG1        0.0730
      5 N          -0.7107    1.0416   -1.5086 N.ar    1  LIG1       -0.3561
      6 H          -1.3764    1.3629   -2.1978 H       1  LIG1        0.1655
      7 H           0.9050    2.4236   -1.7523 H       1  LIG1        0.0844
      8 O           2.2849    0.8761    0.3677 O.3     1  LIG1       -0.4933
      9 C           3.0803    1.9586   -0.0654 C.3     1  LIG1        0.0789
     10 H           4.0017    1.9188    0.5097 H       1  LIG1        0.0660
     11 H           3.3040    1.8647   -1.1323 H       1  LIG1        0.0660
     12 H           2.5661    2.9066    0.1188 H       1  LIG1        0.0660
     13 C           0.3681   -1.3100    1.1432 C.3     1  LIG1       -0.0342
     14 H          -0.4927   -1.3827    1.8128 H       1  LIG1        0.0279
     15 H           1.2409   -1.0373    1.7352 H       1  LIG1        0.0279
     16 H           0.5596   -2.2911    0.6983 H       1  LIG1        0.0279
     17 C          -2.2134   -0.7567   -0.8480 C.ar    1  LIG1        0.1062
     18 C          -3.3644   -0.3685   -1.5025 C.ar    1  LIG1        0.1502
     19 C          -4.3419   -1.3920   -1.3819 C.ar    1  LIG1        0.0187
     20 C          -3.7395   -2.3914   -0.6413 C.ar    1  LIG1        0.0735
     21 N          -2.4620   -1.9967   -0.3319 N.ar    1  LIG1       -0.3486
     22 H          -1.8194   -2.5231    0.2376 H       1  LIG1        0.1661
     23 O          -3.5044    0.8200   -2.1804 O.3     1  LIG1       -0.4927
     24 C          -4.1424    1.8261   -1.3942 C.3     1  LIG1        0.0789
     25 H          -4.2331    2.7065   -2.0270 H       1  LIG1        0.0660
     26 H          -5.1319    1.4851   -1.0834 H       1  LIG1        0.0660
     27 H          -3.5358    2.0501   -0.5143 H       1  LIG1        0.0660
     28 C          -5.7214   -1.3963   -1.9877 C.3     1  LIG1       -0.0341
     29 H          -6.4698   -1.0303   -1.2812 H       1  LIG1        0.0279
     30 H          -6.0008   -2.4115   -2.2690 H       1  LIG1        0.0279
     31 H          -5.7237   -0.7573   -2.8715 H       1  LIG1        0.0279
     32 C          -4.2653   -3.6789   -0.2054 C.ar    1  LIG1        0.1062
     33 C          -5.5149   -4.0199    0.2751 C.ar    1  LIG1        0.1502
     34 C          -5.5199   -5.4022    0.6056 C.ar    1  LIG1        0.0187
     35 C          -4.2521   -5.8652    0.3030 C.ar    1  LIG1        0.0735
     36 N          -3.5109   -4.8215   -0.1733 N.ar    1  LIG1       -0.3486
     37 H          -2.5847   -4.9513   -0.5610 H       1  LIG1        0.1661
     38 O          -6.5830   -3.1840    0.4474 O.3     1  LIG1       -0.4927
     39 C          -6.3967   -2.2232    1.4832 C.3     1  LIG1        0.0789
     40 H          -7.3331   -1.6750    1.5652 H       1  LIG1        0.0660
     41 H          -6.1726   -2.7284    2.4254 H       1  LIG1        0.0660
     42 H          -5.5843   -1.5407    1.2242 H       1  LIG1        0.0660
     43 C          -6.6934   -6.1476    1.1878 C.3     1  LIG1       -0.0341
     44 H          -6.4018   -6.7101    2.0779 H       1  LIG1        0.0279
     45 H          -7.1373   -6.8322    0.4596 H       1  LIG1        0.0279
     46 H          -7.4577   -5.4230    1.4686 H       1  LIG1        0.0279
     47 C          -3.6383   -7.1812    0.4006 C.ar    1  LIG1        0.1057
     48 C          -2.3141   -7.5249    0.2301 C.ar    1  LIG1        0.1495
     49 C          -2.1753   -8.9322    0.3851 C.ar    1  LIG1        0.0092
     50 C          -3.4426   -9.3994    0.6439 C.ar    1  LIG1        0.0087
     51 N          -4.3111   -8.3435    0.6518 N.ar    1  LIG1       -0.3563
     52 H          -5.3078   -8.4057    0.7763 H       1  LIG1        0.1655
     53 H          -3.7862  -10.4056    0.8130 H       1  LIG1        0.0811
     54 O          -1.3121   -6.6277   -0.0633 O.3     1  LIG1       -0.4927
     55 C          -0.5947   -6.2009    1.0939 C.3     1  LIG1        0.0789
     56 H           0.1878   -5.5290    0.7456 H       1  LIG1        0.0660
     57 H          -1.2685   -5.6825    1.7799 H       1  LIG1        0.0660
     58 H          -0.1491   -7.0596    1.5989 H       1  LIG1        0.0660
     59 C          -0.8921   -9.7159    0.2669 C.3     1  LIG1       -0.0348
     60 H          -0.3305   -9.7029    1.2033 H       1  LIG1        0.0279
     61 H          -0.2689   -9.2792   -0.5141 H       1  LIG1        0.0279
     62 H          -1.1029  -10.7532    0.0082 H       1  LIG1        0.0279
@<TRIPOS>BOND
     1    31    28    1
     2    30    28    1
     3     6     5    1
     4    23    18    1
     5    23    24    1
     6    25    24    1
     7    28    19    1
     8    28    29    1
     9     7     1    1
    10     5     1   ar
    11     5     4   ar
    12    18    19   ar
    13    18    17   ar
    14    24    26    1
    15    24    27    1
    16    19    20   ar
    17     1     2   ar
    18    11     9    1
    19    17     4    1
    20    17    21   ar
    21     4     3   ar
    22    20    21   ar
    23    20    32    1
    24    37    36    1
    25    61    59    1
    26    21    22    1
    27     2     3   ar
    28     2     8    1
    29    32    36   ar
    30    32    33   ar
    31    36    35   ar
    32     9    12    1
    33     9     8    1
    34     9    10    1
    35    54    48    1
    36    54    55    1
    37    62    59    1
    38     3    13    1
    39    48    49   ar
    40    48    47   ar
    41    59    49    1
    42    59    60    1
    43    33    38    1
    44    33    34   ar
    45    35    47    1
    46    35    34   ar
    47    49    50   ar
    48    47    51   ar
    49    38    39    1
    50    45    43    1
    51    34    43    1
    52    50    51   ar
    53    50    53    1
    54    51    52    1
    55    16    13    1
    56    56    55    1
    57    55    58    1
    58    55    57    1
    59    13    15    1
    60    13    14    1
    61    43    46    1
    62    43    44    1
    63    42    39    1
    64    39    40    1
    65    39    41    1
