@<TRIPOS>MOLECULE
mol_data/opt/m06hf/geoms/mol2/13li13li13li-13li.out
 62 65 0 0 0
SMALL
GASTEIGER

@<TRIPOS>ATOM
      1 C           0.6576    1.3953   -1.1911 C.ar    1  LIG1        0.0447
      2 C           1.3045    0.4220   -0.4603 C.ar    1  LIG1        0.1408
      3 C           0.3606   -0.5732   -0.0817 C.ar    1  LIG1        0.0180
      4 C          -0.8460   -0.1625   -0.6136 C.ar    1  LIG1        0.0730
      5 N          -0.6569    1.0169   -1.2701 N.ar    1  LIG1       -0.3561
      6 H          -1.4038    1.4857   -1.7629 H       1  LIG1        0.1655
      7 H           1.0143    2.2995   -1.6498 H       1  LIG1        0.0844
      8 O           2.6157    0.3435   -0.1040 O.3     1  LIG1       -0.4933
      9 C           3.4199    1.4055   -0.5693 C.3     1  LIG1        0.0789
     10 H           4.4322    1.2041   -0.2279 H       1  LIG1        0.0660
     11 H           3.3971    1.4499   -1.6622 H       1  LIG1        0.0660
     12 H           3.0706    2.3575   -0.1574 H       1  LIG1        0.0660
     13 C           0.6601   -1.7953    0.7491 C.3     1  LIG1       -0.0342
     14 H          -0.0913   -1.9222    1.5324 H       1  LIG1        0.0279
     15 H           1.6346   -1.6708    1.2201 H       1  LIG1        0.0279
     16 H           0.6924   -2.7024    0.1397 H       1  LIG1        0.0279
     17 C          -2.1736   -0.7582   -0.5744 C.ar    1  LIG1        0.1062
     18 C          -3.3873   -0.1855   -0.9005 C.ar    1  LIG1        0.1502
     19 C          -4.4160   -1.1505   -0.7456 C.ar    1  LIG1        0.0187
     20 C          -3.7767   -2.3031   -0.3230 C.ar    1  LIG1        0.0735
     21 N          -2.4361   -2.0503   -0.2271 N.ar    1  LIG1       -0.3486
     22 H          -1.7592   -2.7691   -0.0035 H       1  LIG1        0.1661
     23 O          -3.5524    1.1222   -1.2956 O.3     1  LIG1       -0.4927
     24 C          -3.7885    1.9999   -0.1938 C.3     1  LIG1        0.0789
     25 H          -3.9382    2.9931   -0.6127 H       1  LIG1        0.0660
     26 H          -4.6805    1.6837    0.3504 H       1  LIG1        0.0660
     27 H          -2.9272    1.9952    0.4775 H       1  LIG1        0.0660
     28 C          -5.8851   -0.9275   -1.0035 C.3     1  LIG1       -0.0341
     29 H          -6.4781   -1.1330   -0.1084 H       1  LIG1        0.0279
     30 H          -6.2487   -1.5562   -1.8204 H       1  LIG1        0.0279
     31 H          -6.0381    0.1117   -1.2951 H       1  LIG1        0.0279
     32 C          -4.2785   -3.6256    0.0103 C.ar    1  LIG1        0.1062
     33 C          -3.6130   -4.6734    0.6168 C.ar    1  LIG1        0.1502
     34 C          -4.4915   -5.7827    0.7261 C.ar    1  LIG1        0.0187
     35 C          -5.6869   -5.3608    0.1700 C.ar    1  LIG1        0.0735
     36 N          -5.5406   -4.0691   -0.2519 N.ar    1  LIG1       -0.3486
     37 H          -6.2762   -3.5784   -0.7444 H       1  LIG1        0.1661
     38 O          -2.3092   -4.6238    1.0533 O.3     1  LIG1       -0.4927
     39 C          -2.2009   -4.1851    2.4090 C.3     1  LIG1        0.0789
     40 H          -1.1444   -4.2315    2.6666 H       1  LIG1        0.0660
     41 H          -2.5713   -3.1615    2.5006 H       1  LIG1        0.0660
     42 H          -2.7778   -4.8433    3.0614 H       1  LIG1        0.0660
     43 C          -4.1388   -7.1263    1.3135 C.3     1  LIG1       -0.0341
     44 H          -3.1223   -7.0834    1.7049 H       1  LIG1        0.0279
     45 H          -4.1619   -7.9102    0.5517 H       1  LIG1        0.0279
     46 H          -4.8153   -7.3968    2.1279 H       1  LIG1        0.0279
     47 C          -6.9721   -6.0183   -0.0184 C.ar    1  LIG1        0.1057
     48 C          -8.1622   -5.4653   -0.4418 C.ar    1  LIG1        0.1495
     49 C          -9.1512   -6.4861   -0.5075 C.ar    1  LIG1        0.0092
     50 C          -8.5139   -7.6410   -0.1195 C.ar    1  LIG1        0.0087
     51 N          -7.2100   -7.3504    0.1732 N.ar    1  LIG1       -0.3563
     52 H          -6.5083   -8.0189    0.4440 H       1  LIG1        0.1655
     53 H          -8.8933   -8.6452   -0.0412 H       1  LIG1        0.0811
     54 O          -8.3301   -4.1376   -0.7653 O.3     1  LIG1       -0.4927
     55 C          -8.8930   -3.3726    0.3005 C.3     1  LIG1        0.0789
     56 H          -9.0240   -2.3610   -0.0790 H       1  LIG1        0.0660
     57 H          -9.8582   -3.7889    0.5938 H       1  LIG1        0.0660
     58 H          -8.2153   -3.3747    1.1576 H       1  LIG1        0.0660
     59 C         -10.5863   -6.3090   -0.9366 C.3     1  LIG1       -0.0348
     60 H         -10.9936   -7.2543   -1.2943 H       1  LIG1        0.0279
     61 H         -10.6395   -5.5761   -1.7423 H       1  LIG1        0.0279
     62 H         -11.2085   -5.9584   -0.1108 H       1  LIG1        0.0279
@<TRIPOS>BOND
     1    30    28    1
     2     6     5    1
     3    61    59    1
     4    11     9    1
     5     7     1    1
     6    23    18    1
     7    23    24    1
     8    31    28    1
     9    60    59    1
    10     5     1   ar
    11     5     4   ar
    12     1     2   ar
    13    28    19    1
    14    28    29    1
    15    59    49    1
    16    59    62    1
    17    18    19   ar
    18    18    17   ar
    19    54    48    1
    20    54    55    1
    21    19    20   ar
    22    37    36    1
    23     4    17    1
    24     4     3   ar
    25    25    24    1
    26    17    21   ar
    27     9    10    1
    28     9    12    1
    29     9     8    1
    30    49    48   ar
    31    49    50   ar
    32     2     8    1
    33     2     3   ar
    34    48    47   ar
    35    20    21   ar
    36    20    32    1
    37    36    32   ar
    38    36    35   ar
    39    21    22    1
    40    24    26    1
    41    24    27    1
    42    50    53    1
    43    50    51   ar
    44     3    13    1
    45    56    55    1
    46    47    35    1
    47    47    51   ar
    48    32    33   ar
    49    16    13    1
    50    35    34   ar
    51    51    52    1
    52    55    57    1
    53    55    58    1
    54    45    43    1
    55    33    34   ar
    56    33    38    1
    57    34    43    1
    58    13    15    1
    59    13    14    1
    60    38    39    1
    61    43    44    1
    62    43    46    1
    63    39    41    1
    64    39    40    1
    65    39    42    1
