@<TRIPOS>MOLECULE
mol_data/opt/m06hf/geoms/mol2/13li13li-13li-13li-.out
 62 65 0 0 0
SMALL
GASTEIGER

@<TRIPOS>ATOM
      1 C           0.9066   -0.8849   -0.9889 C.ar    1  LIG1        0.0447
      2 C           0.6600    0.4710   -0.9942 C.ar    1  LIG1        0.1408
      3 C          -0.7044    0.6916   -0.6562 C.ar    1  LIG1        0.0180
      4 C          -1.2473   -0.5638   -0.4616 C.ar    1  LIG1        0.0730
      5 N          -0.2741   -1.4966   -0.6611 N.ar    1  LIG1       -0.3561
      6 H          -0.4515   -2.4878   -0.5754 H       1  LIG1        0.1655
      7 H           1.7991   -1.4494   -1.1879 H       1  LIG1        0.0844
      8 O           1.5123    1.4997   -1.2532 O.3     1  LIG1       -0.4933
      9 C           2.8437    1.1117   -1.5157 C.3     1  LIG1        0.0789
     10 H           3.4069    2.0248   -1.6904 H       1  LIG1        0.0660
     11 H           3.2593    0.5747   -0.6579 H       1  LIG1        0.0660
     12 H           2.8872    0.4740   -2.4036 H       1  LIG1        0.0660
     13 C          -1.3598    2.0429   -0.5255 C.3     1  LIG1       -0.0342
     14 H          -2.0239    2.0691    0.3415 H       1  LIG1        0.0279
     15 H          -1.9300    2.3053   -1.4209 H       1  LIG1        0.0279
     16 H          -0.5862    2.7980   -0.3905 H       1  LIG1        0.0279
     17 C          -2.5882   -1.0008   -0.0980 C.ar    1  LIG1        0.1062
     18 C          -3.0024   -2.2451    0.3294 C.ar    1  LIG1        0.1502
     19 C          -4.4083   -2.2277    0.5359 C.ar    1  LIG1        0.0187
     20 C          -4.8140   -0.9487    0.2098 C.ar    1  LIG1        0.0735
     21 N          -3.7082   -0.2216   -0.1651 N.ar    1  LIG1       -0.3486
     22 H          -3.7446    0.6849   -0.6041 H       1  LIG1        0.1661
     23 O          -2.1621   -3.3165    0.5233 O.3     1  LIG1       -0.4927
     24 C          -1.7296   -3.4364    1.8787 C.3     1  LIG1        0.0789
     25 H          -1.1012   -4.3237    1.9287 H       1  LIG1        0.0660
     26 H          -1.1601   -2.5501    2.1663 H       1  LIG1        0.0660
     27 H          -2.5926   -3.5509    2.5372 H       1  LIG1        0.0660
     28 C          -5.2513   -3.3753    1.0330 C.3     1  LIG1       -0.0341
     29 H          -5.4380   -3.2837    2.1054 H       1  LIG1        0.0279
     30 H          -4.7185   -4.3092    0.8493 H       1  LIG1        0.0279
     31 H          -6.2088   -3.3901    0.5126 H       1  LIG1        0.0279
     32 C          -6.1474   -0.3509    0.2060 C.ar    1  LIG1        0.1062
     33 C          -7.3482   -0.8313   -0.2764 C.ar    1  LIG1        0.1502
     34 C          -8.3547    0.1517   -0.0771 C.ar    1  LIG1        0.0187
     35 C          -7.7283    1.2188    0.5328 C.ar    1  LIG1        0.0735
     36 N          -6.4032    0.9045    0.6933 N.ar    1  LIG1       -0.3486
     37 H          -5.7133    1.5167    1.0988 H       1  LIG1        0.1661
     38 O          -7.5577   -2.0584   -0.8432 O.3     1  LIG1       -0.4927
     39 C          -7.0661   -2.1592   -2.1782 C.3     1  LIG1        0.0789
     40 H          -7.3285   -3.1548   -2.5289 H       1  LIG1        0.0660
     41 H          -7.5395   -1.4006   -2.8060 H       1  LIG1        0.0660
     42 H          -5.9820   -2.0316   -2.1903 H       1  LIG1        0.0660
     43 C          -9.8024    0.0253   -0.4665 C.3     1  LIG1       -0.0341
     44 H         -10.0388   -1.0271   -0.6213 H       1  LIG1        0.0279
     45 H          -9.9982    0.5767   -1.3873 H       1  LIG1        0.0279
     46 H         -10.4418    0.4272    0.3213 H       1  LIG1        0.0279
     47 C          -8.2623    2.4979    0.9968 C.ar    1  LIG1        0.1057
     48 C          -9.0775    3.4167    0.3735 C.ar    1  LIG1        0.1495
     49 C          -9.2435    4.5408    1.2412 C.ar    1  LIG1        0.0092
     50 C          -8.5160    4.2524    2.3712 C.ar    1  LIG1        0.0087
     51 N          -7.9214    3.0350    2.2148 N.ar    1  LIG1       -0.3563
     52 H          -7.4284    2.5283    2.9320 H       1  LIG1        0.1655
     53 H          -8.3791    4.8323    3.2683 H       1  LIG1        0.0811
     54 O          -9.5618    3.2692   -0.8950 O.3     1  LIG1       -0.4927
     55 C         -10.9788    3.3241   -0.9997 C.3     1  LIG1        0.0789
     56 H         -11.2271    2.9672   -1.9972 H       1  LIG1        0.0660
     57 H         -11.4406    2.6814   -0.2471 H       1  LIG1        0.0660
     58 H         -11.3403    4.3467   -0.8800 H       1  LIG1        0.0660
     59 C          -9.9989    5.8156    0.9541 C.3     1  LIG1       -0.0348
     60 H         -11.0761    5.6809    1.0708 H       1  LIG1        0.0279
     61 H          -9.7988    6.1463   -0.0663 H       1  LIG1        0.0279
     62 H          -9.6769    6.5991    1.6402 H       1  LIG1        0.0279
@<TRIPOS>BOND
     1    41    39    1
     2    40    39    1
     3    12     9    1
     4    42    39    1
     5    39    38    1
     6    56    55    1
     7    10     9    1
     8     9     8    1
     9     9    11    1
    10    15    13    1
    11    45    43    1
    12     8     2    1
    13     7     1    1
    14    55    54    1
    15    55    58    1
    16    55    57    1
    17     2     1   ar
    18     2     3   ar
    19     1     5   ar
    20    54    48    1
    21    38    33    1
    22     5     6    1
    23     5     4   ar
    24     3    13    1
    25     3     4   ar
    26    44    43    1
    27    22    21    1
    28    13    16    1
    29    13    14    1
    30    43    34    1
    31    43    46    1
    32     4    17    1
    33    33    34   ar
    34    33    32   ar
    35    21    17   ar
    36    21    20   ar
    37    17    18   ar
    38    34    35   ar
    39    61    59    1
    40    32    20    1
    41    32    36   ar
    42    20    19   ar
    43    18    23    1
    44    18    19   ar
    45    48    47   ar
    46    48    49   ar
    47    31    28    1
    48    23    24    1
    49    35    36   ar
    50    35    47    1
    51    19    28    1
    52    36    37    1
    53    30    28    1
    54    59    60    1
    55    59    49    1
    56    59    62    1
    57    47    51   ar
    58    28    29    1
    59    49    50   ar
    60    24    25    1
    61    24    26    1
    62    24    27    1
    63    51    50   ar
    64    51    52    1
    65    50    53    1
