@<TRIPOS>MOLECULE
mol_data/opt/m06hf/geoms/mol2/13li4fl-6if-12ll-.out
 54 57 0 0 0
SMALL
GASTEIGER

@<TRIPOS>ATOM
      1 C           1.4637    0.1654    0.7972 C.ar    1  LIG1        0.0463
      2 C           1.1454    1.0903   -0.1735 C.ar    1  LIG1        0.1585
      3 C          -0.1929    0.8601   -0.5791 C.ar    1  LIG1        0.0925
      4 C          -0.6599   -0.2139    0.1640 C.ar    1  LIG1        0.0738
      5 N           0.3632   -0.6180    0.9774 N.ar    1  LIG1       -0.3560
      6 H           0.3066   -1.4155    1.5915 H       1  LIG1        0.1655
      7 H           2.3686    0.0009    1.3538 H       1  LIG1        0.0845
      8 O           1.8893    2.0917   -0.7164 O.3     1  LIG1       -0.4918
      9 C           3.1870    2.2262   -0.1728 C.3     1  LIG1        0.0789
     10 H           3.6570    3.0595   -0.6881 H       1  LIG1        0.0660
     11 H           3.1291    2.4347    0.8993 H       1  LIG1        0.0660
     12 H           3.7638    1.3120   -0.3408 H       1  LIG1        0.0660
     13 N          -0.8905    1.6217   -1.5514 N.pl3   1  LIG1       -0.3535
     14 H          -0.3654    2.4676   -1.7514 H       1  LIG1        0.1425
     15 H          -1.0007    1.1014   -2.4181 H       1  LIG1        0.1425
     16 C          -2.3052   -2.1043    0.6530 C.ar    1  LIG1        0.1231
     17 C          -1.9995   -0.8183    0.1648 C.ar    1  LIG1        0.0352
     18 C          -3.0743   -0.0808   -0.3419 C.ar    1  LIG1       -0.0323
     19 C          -4.3565   -0.6193   -0.3540 C.ar    1  LIG1        0.0545
     20 C          -4.5504   -1.9023    0.1986 C.ar    1  LIG1        0.1265
     21 N          -3.5359   -2.6107    0.6761 N.ar    1  LIG1       -0.2333
     22 H          -2.8929    0.9085   -0.7444 H       1  LIG1        0.0638
     23 C          -1.2851   -2.9979    1.1779 C.1     1  LIG1       -0.0491
     24 C          -0.4667   -3.7606    1.6190 C.1     1  LIG1       -0.1124
     25 H           0.2400   -4.4628    1.9977 H       1  LIG1        0.1232
     26 C          -5.4400    0.1256   -0.9401 C.1     1  LIG1       -0.0674
     27 C          -6.3364    0.7594   -1.4283 C.1     1  LIG1       -0.1138
     28 H          -7.1453    1.3066   -1.8542 H       1  LIG1        0.1232
     29 C          -5.8707   -2.5567    0.2436 C.ar    1  LIG1        0.2004
     30 C          -7.1534   -2.1379    0.4754 C.ar    1  LIG1        0.2102
     31 C          -7.9778   -3.3152    0.4045 C.ar    1  LIG1        0.2118
     32 C          -7.1363   -4.3454    0.1228 C.ar    1  LIG1        0.2195
     33 O          -5.8677   -3.8984    0.0455 O.2     1  LIG1       -0.4424
     34 O          -7.6624   -0.9191    0.7700 O.3     1  LIG1       -0.4884
     35 C          -7.0701   -0.2683    1.8924 C.3     1  LIG1        0.0791
     36 H          -7.6578    0.6303    2.0620 H       1  LIG1        0.0660
     37 H          -7.1149   -0.9235    2.7637 H       1  LIG1        0.0660
     38 H          -6.0361    0.0050    1.6786 H       1  LIG1        0.0660
     39 O          -9.3087   -3.3836    0.6272 O.3     1  LIG1       -0.4883
     40 C         -10.0841   -2.7370   -0.3856 C.3     1  LIG1        0.0791
     41 H         -11.1224   -2.8465   -0.0828 H       1  LIG1        0.0660
     42 H          -9.8137   -1.6813   -0.4403 H       1  LIG1        0.0660
     43 H          -9.9161   -3.2332   -1.3415 H       1  LIG1        0.0660
     44 C          -7.4153   -5.7473   -0.1111 C.ar    1  LIG1        0.2158
     45 C          -8.4863   -6.3650   -0.6729 C.ar    1  LIG1        0.1816
     46 C          -8.2185   -7.7809   -0.6113 C.ar    1  LIG1        0.1045
     47 C          -6.9965   -7.8925   -0.0205 C.ar    1  LIG1        0.1118
     48 O          -6.5138   -6.6875    0.2852 O.2     1  LIG1       -0.4546
     49 H          -6.3906   -8.7462    0.2259 H       1  LIG1        0.1043
     50 O          -9.5787   -5.7797   -1.2070 O.3     1  LIG1       -0.5023
     51 H         -10.1666   -6.4671   -1.5446 H       1  LIG1        0.2923
     52 C          -9.0990   -8.7928   -1.1070 C.1     1  LIG1       -0.0628
     53 C          -9.8840   -9.5918   -1.5439 C.1     1  LIG1       -0.1137
     54 H         -10.5663  -10.3157   -1.9255 H       1  LIG1        0.1232
@<TRIPOS>BOND
     1    15    13    1
     2    54    53    1
     3    28    27    1
     4    14    13    1
     5    13     3    1
     6    51    50    1
     7    53    52    3
     8    27    26    3
     9    43    40    1
    10    50    45    1
    11    52    46    1
    12    26    19    1
    13    22    18    1
    14     8     2    1
    15     8     9    1
    16    10     9    1
    17    45    46   ar
    18    45    44   ar
    19    46    47   ar
    20     3     2   ar
    21     3     4   ar
    22    42    40    1
    23    40    41    1
    24    40    39    1
    25    19    18   ar
    26    19    20   ar
    27    18    17   ar
    28    12     9    1
    29     2     1   ar
    30     9    11    1
    31    44    32    1
    32    44    48   ar
    33    47    49    1
    34    47    48   ar
    35    33    32   ar
    36    33    29   ar
    37    32    31   ar
    38     4    17    1
    39     4     5   ar
    40    17    16   ar
    41    20    29    1
    42    20    21   ar
    43    29    30   ar
    44    31    30   ar
    45    31    39    1
    46    30    34    1
    47    16    21   ar
    48    16    23    1
    49    34    35    1
    50     1     5   ar
    51     1     7    1
    52     5     6    1
    53    23    24    3
    54    24    25    1
    55    38    35    1
    56    35    36    1
    57    35    37    1
