@<TRIPOS>MOLECULE
mol_data/opt/m06hf/geoms/mol2/13li13li13li13li.out
 62 65 0 0 0
SMALL
GASTEIGER

@<TRIPOS>ATOM
      1 C          -0.8166    1.2226   -3.3775 C.ar    1  LIG1        0.0447
      2 C           0.1135    1.7107   -2.4884 C.ar    1  LIG1        0.1408
      3 C          -0.1387    1.1521   -1.2025 C.ar    1  LIG1        0.0180
      4 C          -1.2362    0.3347   -1.3552 C.ar    1  LIG1        0.0730
      5 N          -1.6297    0.3755   -2.6666 N.ar    1  LIG1       -0.3561
      6 H          -2.4826   -0.0347   -3.0094 H       1  LIG1        0.1655
      7 H          -0.9638    1.3980   -4.4277 H       1  LIG1        0.0844
      8 O           1.1482    2.5638   -2.7148 O.3     1  LIG1       -0.4933
      9 C           1.2834    2.9871   -4.0536 C.3     1  LIG1        0.0789
     10 H           2.1450    3.6487   -4.0869 H       1  LIG1        0.0660
     11 H           1.4474    2.1279   -4.7108 H       1  LIG1        0.0660
     12 H           0.3883    3.5281   -4.3752 H       1  LIG1        0.0660
     13 C           0.6733    1.4057    0.0390 C.3     1  LIG1       -0.0342
     14 H           0.8791    0.4641    0.5517 H       1  LIG1        0.0279
     15 H           0.1372    2.0672    0.7211 H       1  LIG1        0.0279
     16 H           1.6177    1.8714   -0.2410 H       1  LIG1        0.0279
     17 C          -1.9505   -0.5061   -0.3975 C.ar    1  LIG1        0.1062
     18 C          -2.3673   -0.2754    0.8984 C.ar    1  LIG1        0.1502
     19 C          -3.1339   -1.3934    1.3409 C.ar    1  LIG1        0.0187
     20 C          -3.1429   -2.2843    0.2840 C.ar    1  LIG1        0.0735
     21 N          -2.4421   -1.7363   -0.7510 N.ar    1  LIG1       -0.3486
     22 H          -2.2476   -2.2373   -1.6078 H       1  LIG1        0.1661
     23 O          -2.1483    0.8759    1.6010 O.3     1  LIG1       -0.4927
     24 C          -1.3678    0.6967    2.7773 C.3     1  LIG1        0.0789
     25 H          -1.1944    1.6908    3.1843 H       1  LIG1        0.0660
     26 H          -1.9009    0.0886    3.5105 H       1  LIG1        0.0660
     27 H          -0.4174    0.2202    2.5324 H       1  LIG1        0.0660
     28 C          -3.8897   -1.4994    2.6424 C.3     1  LIG1       -0.0341
     29 H          -3.2946   -1.9660    3.4328 H       1  LIG1        0.0279
     30 H          -4.8020   -2.0814    2.4983 H       1  LIG1        0.0279
     31 H          -4.1738   -0.4995    2.9738 H       1  LIG1        0.0279
     32 C          -3.7521   -3.5951    0.1150 C.ar    1  LIG1        0.1062
     33 C          -4.0496   -4.2620   -1.0546 C.ar    1  LIG1        0.1502
     34 C          -4.6098   -5.5300   -0.7420 C.ar    1  LIG1        0.0187
     35 C          -4.6240   -5.6015    0.6360 C.ar    1  LIG1        0.0735
     36 N          -4.1134   -4.4271    1.1374 N.ar    1  LIG1       -0.3486
     37 H          -3.8275   -4.3017    2.0962 H       1  LIG1        0.1661
     38 O          -3.8440   -3.7542   -2.3155 O.3     1  LIG1       -0.4927
     39 C          -4.9258   -2.9370   -2.7613 C.3     1  LIG1        0.0789
     40 H          -5.8572   -3.5058   -2.7372 H       1  LIG1        0.0660
     41 H          -5.0176   -2.0556   -2.1219 H       1  LIG1        0.0660
     42 H          -4.6947   -2.6441   -3.7840 H       1  LIG1        0.0660
     43 C          -5.0748   -6.5606   -1.7363 C.3     1  LIG1       -0.0341
     44 H          -6.1135   -6.8390   -1.5471 H       1  LIG1        0.0279
     45 H          -4.4533   -7.4530   -1.6641 H       1  LIG1        0.0279
     46 H          -4.9914   -6.1496   -2.7426 H       1  LIG1        0.0279
     47 C          -5.0890   -6.6441    1.5474 C.ar    1  LIG1        0.1057
     48 C          -4.9516   -8.0155    1.5298 C.ar    1  LIG1        0.1495
     49 C          -5.5239   -8.5457    2.7279 C.ar    1  LIG1        0.0092
     50 C          -5.9942   -7.4637    3.4316 C.ar    1  LIG1        0.0087
     51 N          -5.7227   -6.3286    2.7253 N.ar    1  LIG1       -0.3563
     52 H          -6.0507   -5.4040    2.9522 H       1  LIG1        0.1655
     53 H          -6.4935   -7.4259    4.3849 H       1  LIG1        0.0811
     54 O          -4.3038   -8.7182    0.5529 O.3     1  LIG1       -0.4927
     55 C          -5.1211   -9.6678   -0.1211 C.3     1  LIG1        0.0789
     56 H          -4.5308  -10.0455   -0.9538 H       1  LIG1        0.0660
     57 H          -5.3866  -10.4934    0.5409 H       1  LIG1        0.0660
     58 H          -6.0297   -9.1892   -0.4921 H       1  LIG1        0.0660
     59 C          -5.5388   -9.9896    3.1666 C.3     1  LIG1       -0.0348
     60 H          -5.6724  -10.0491    4.2467 H       1  LIG1        0.0279
     61 H          -4.5910  -10.4649    2.9087 H       1  LIG1        0.0279
     62 H          -6.3481  -10.5476    2.6910 H       1  LIG1        0.0279
@<TRIPOS>BOND
     1    11     9    1
     2     7     1    1
     3    12     9    1
     4    10     9    1
     5     9     8    1
     6    42    39    1
     7     1     5   ar
     8     1     2   ar
     9     6     5    1
    10    39    40    1
    11    39    38    1
    12    39    41    1
    13    46    43    1
    14     8     2    1
    15     5     4   ar
    16     2     3   ar
    17    38    33    1
    18    43    45    1
    19    43    44    1
    20    43    34    1
    21    22    21    1
    22     4     3   ar
    23     4    17    1
    24     3    13    1
    25    33    34   ar
    26    33    32   ar
    27    56    55    1
    28    21    17   ar
    29    21    20   ar
    30    34    35   ar
    31    58    55    1
    32    17    18   ar
    33    16    13    1
    34    55    57    1
    35    55    54    1
    36    13    14    1
    37    13    15    1
    38    32    20    1
    39    32    36   ar
    40    20    19   ar
    41    54    48    1
    42    35    36   ar
    43    35    47    1
    44    18    19   ar
    45    18    23    1
    46    36    37    1
    47    19    28    1
    48    48    47   ar
    49    48    49   ar
    50    47    51   ar
    51    23    24    1
    52    30    28    1
    53    27    24    1
    54    28    31    1
    55    28    29    1
    56    62    59    1
    57    51    52    1
    58    51    50   ar
    59    49    59    1
    60    49    50   ar
    61    24    25    1
    62    24    26    1
    63    61    59    1
    64    59    60    1
    65    50    53    1
