@<TRIPOS>MOLECULE
mol_data/opt/m06hf/geoms/mol2/13li13li-13li13li-.out
 62 65 0 0 0
SMALL
GASTEIGER

@<TRIPOS>ATOM
      1 C           1.2001   -0.7898   -0.5368 C.ar    1  LIG1        0.0447
      2 C           0.9044    0.5395   -0.3235 C.ar    1  LIG1        0.1408
      3 C          -0.5003    0.6752   -0.1415 C.ar    1  LIG1        0.0180
      4 C          -1.0155   -0.6006   -0.2606 C.ar    1  LIG1        0.0730
      5 N           0.0104   -1.4678   -0.4920 N.ar    1  LIG1       -0.3561
      6 H          -0.1414   -2.4552   -0.6422 H       1  LIG1        0.1655
      7 H           2.1325   -1.2947   -0.7132 H       1  LIG1        0.0844
      8 O           1.7441    1.6094   -0.2708 O.3     1  LIG1       -0.4933
      9 C           3.1052    1.3042   -0.4834 C.3     1  LIG1        0.0789
     10 H           3.6485    2.2444   -0.4302 H       1  LIG1        0.0660
     11 H           3.4684    0.6203    0.2901 H       1  LIG1        0.0660
     12 H           3.2440    0.8488   -1.4684 H       1  LIG1        0.0660
     13 C          -1.2273    1.9652    0.1432 C.3     1  LIG1       -0.0342
     14 H          -1.9386    1.8337    0.9624 H       1  LIG1        0.0279
     15 H          -1.7643    2.3310   -0.7360 H       1  LIG1        0.0279
     16 H          -0.5001    2.7227    0.4333 H       1  LIG1        0.0279
     17 C          -2.3785   -1.1052   -0.1799 C.ar    1  LIG1        0.1062
     18 C          -2.8101   -2.4109   -0.0529 C.ar    1  LIG1        0.1502
     19 C          -4.2288   -2.4359   -0.0497 C.ar    1  LIG1        0.0187
     20 C          -4.6189   -1.1143   -0.1798 C.ar    1  LIG1        0.0735
     21 N          -3.4994   -0.3327   -0.2572 N.ar    1  LIG1       -0.3486
     22 H          -3.5398    0.6644   -0.4274 H       1  LIG1        0.1661
     23 O          -1.9778   -3.5002    0.0666 O.3     1  LIG1       -0.4927
     24 C          -1.6640   -3.8011    1.4271 C.3     1  LIG1        0.0789
     25 H          -1.0358   -4.6894    1.4132 H       1  LIG1        0.0660
     26 H          -1.1299   -2.9634    1.8803 H       1  LIG1        0.0660
     27 H          -2.5807   -3.9982    1.9864 H       1  LIG1        0.0660
     28 C          -5.0924   -3.6669    0.0673 C.3     1  LIG1       -0.0341
     29 H          -4.4490   -4.5387    0.1869 H       1  LIG1        0.0279
     30 H          -5.6937   -3.8216   -0.8323 H       1  LIG1        0.0279
     31 H          -5.7590   -3.6000    0.9310 H       1  LIG1        0.0279
     32 C          -5.9298   -0.4895   -0.2353 C.ar    1  LIG1        0.1062
     33 C          -6.2496    0.8527   -0.1652 C.ar    1  LIG1        0.1502
     34 C          -7.6560    1.0036   -0.2820 C.ar    1  LIG1        0.0187
     35 C          -8.1528   -0.2808   -0.4220 C.ar    1  LIG1        0.0735
     36 N          -7.1066   -1.1597   -0.3915 N.ar    1  LIG1       -0.3486
     37 H          -7.2353   -2.1531   -0.5360 H       1  LIG1        0.1661
     38 O          -5.3356    1.8665    0.0072 O.3     1  LIG1       -0.4927
     39 C          -5.1089    2.1723    1.3846 C.3     1  LIG1        0.0789
     40 H          -4.4172    3.0124    1.4061 H       1  LIG1        0.0660
     41 H          -6.0498    2.4456    1.8659 H       1  LIG1        0.0660
     42 H          -4.6750    1.3078    1.8922 H       1  LIG1        0.0660
     43 C          -8.4013    2.3147   -0.2726 C.3     1  LIG1       -0.0341
     44 H          -9.1633    2.3359    0.5102 H       1  LIG1        0.0279
     45 H          -8.8736    2.5090   -1.2393 H       1  LIG1        0.0279
     46 H          -7.6916    3.1216   -0.0896 H       1  LIG1        0.0279
     47 C          -9.5025   -0.8032   -0.5799 C.ar    1  LIG1        0.1057
     48 C          -9.9200   -2.1172   -0.5535 C.ar    1  LIG1        0.1495
     49 C         -11.3240   -2.1631   -0.7799 C.ar    1  LIG1        0.0092
     50 C         -11.7130   -0.8543   -0.9423 C.ar    1  LIG1        0.0087
     51 N         -10.6159   -0.0474   -0.8189 N.ar    1  LIG1       -0.3563
     52 H         -10.6091    0.9523   -0.9332 H       1  LIG1        0.1655
     53 H         -12.6875   -0.4446   -1.1456 H       1  LIG1        0.0811
     54 O          -9.0840   -3.1941   -0.3608 O.3     1  LIG1       -0.4927
     55 C          -9.0770   -3.6576    0.9895 C.3     1  LIG1        0.0789
     56 H          -8.4271   -4.5302    1.0146 H       1  LIG1        0.0660
     57 H          -8.6928   -2.8755    1.6488 H       1  LIG1        0.0660
     58 H         -10.0864   -3.9352    1.2975 H       1  LIG1        0.0660
     59 C         -12.1756   -3.4064   -0.8424 C.3     1  LIG1       -0.0348
     60 H         -12.4706   -3.7375    0.1552 H       1  LIG1        0.0279
     61 H         -11.6145   -4.2105   -1.3196 H       1  LIG1        0.0279
     62 H         -13.0793   -3.2172   -1.4212 H       1  LIG1        0.0279
@<TRIPOS>BOND
     1    12     9    1
     2    62    59    1
     3    61    59    1
     4    45    43    1
     5    53    50    1
     6    50    51   ar
     7    50    49   ar
     8    52    51    1
     9    59    49    1
    10    59    60    1
    11    30    28    1
    12    51    47   ar
    13    49    48   ar
    14    15    13    1
    15     7     1    1
    16     6     5    1
    17    47    48   ar
    18    47    35    1
    19    48    54    1
    20     1     5   ar
    21     1     2   ar
    22    37    36    1
    23     5     4   ar
    24     9    10    1
    25     9     8    1
    26     9    11    1
    27    22    21    1
    28    35    36   ar
    29    35    34   ar
    30    36    32   ar
    31    54    55    1
    32     2     8    1
    33     2     3   ar
    34    34    43    1
    35    34    33   ar
    36    43    46    1
    37    43    44    1
    38     4    17    1
    39     4     3   ar
    40    21    17   ar
    41    21    20   ar
    42    32    20    1
    43    32    33   ar
    44    17    18   ar
    45    20    19   ar
    46    33    38    1
    47     3    13    1
    48    18    19   ar
    49    18    23    1
    50    19    28    1
    51    38    39    1
    52    23    24    1
    53    28    29    1
    54    28    31    1
    55    13    16    1
    56    13    14    1
    57    55    56    1
    58    55    58    1
    59    55    57    1
    60    39    40    1
    61    39    41    1
    62    39    42    1
    63    25    24    1
    64    24    26    1
    65    24    27    1
