@<TRIPOS>MOLECULE
mol_data/opt/m06hf/geoms/mol2/13li13li.out
 32 33 0 0 0
SMALL
GASTEIGER

@<TRIPOS>ATOM
      1 C           0.7810    0.4437   -1.1411 C.ar    1  LIG1        0.0447
      2 C           1.1170    0.7752    0.1534 C.ar    1  LIG1        0.1408
      3 C           0.0023    0.5159    0.9991 C.ar    1  LIG1        0.0180
      4 C          -0.9851    0.0181    0.1716 C.ar    1  LIG1        0.0730
      5 N          -0.5082   -0.0178   -1.1044 N.ar    1  LIG1       -0.3561
      6 H          -1.0649   -0.3558   -1.8772 H       1  LIG1        0.1655
      7 H           1.3362    0.4956   -2.0595 H       1  LIG1        0.0844
      8 O           2.2812    1.2890    0.6364 O.3     1  LIG1       -0.4933
      9 C           3.2445    1.5974   -0.3484 C.3     1  LIG1        0.0789
     10 H           4.0990    2.0217    0.1725 H       1  LIG1        0.0660
     11 H           3.5481    0.6918   -0.8822 H       1  LIG1        0.0660
     12 H           2.8408    2.3237   -1.0602 H       1  LIG1        0.0660
     13 C          -0.0432    0.7861    2.4818 C.3     1  LIG1       -0.0342
     14 H          -1.0012    1.2268    2.7671 H       1  LIG1        0.0279
     15 H           0.7486    1.4904    2.7346 H       1  LIG1        0.0279
     16 H           0.1211   -0.1237    3.0656 H       1  LIG1        0.0279
     17 C          -2.3510   -0.4198    0.4315 C.ar    1  LIG1        0.1057
     18 C          -3.3745   -0.6192   -0.4697 C.ar    1  LIG1        0.1495
     19 C          -4.5264   -1.0765    0.2297 C.ar    1  LIG1        0.0092
     20 C          -4.1504   -1.1472    1.5505 C.ar    1  LIG1        0.0087
     21 N          -2.8468   -0.7495    1.6609 N.ar    1  LIG1       -0.3563
     22 H          -2.3003   -0.7632    2.5064 H       1  LIG1        0.1655
     23 H          -4.7127   -1.4581    2.4144 H       1  LIG1        0.0811
     24 O          -3.2672   -0.4129   -1.8264 O.3     1  LIG1       -0.4927
     25 C          -3.6633    0.9024   -2.2144 C.3     1  LIG1        0.0789
     26 H          -3.5639    0.9513   -3.2971 H       1  LIG1        0.0660
     27 H          -4.7004    1.0806   -1.9256 H       1  LIG1        0.0660
     28 H          -3.0151    1.6410   -1.7384 H       1  LIG1        0.0660
     29 C          -5.8611   -1.4146   -0.3854 C.3     1  LIG1       -0.0348
     30 H          -6.4276   -2.0712    0.2746 H       1  LIG1        0.0279
     31 H          -5.7073   -1.9210   -1.3387 H       1  LIG1        0.0279
     32 H          -6.4539   -0.5159   -0.5664 H       1  LIG1        0.0279
@<TRIPOS>BOND
     1    26    25    1
     2    25    27    1
     3    25    24    1
     4    25    28    1
     5     7     1    1
     6     6     5    1
     7    24    18    1
     8    31    29    1
     9     1     5   ar
    10     1     2   ar
    11     5     4   ar
    12    12     9    1
    13    11     9    1
    14    32    29    1
    15    18    19   ar
    16    18    17   ar
    17    29    19    1
    18    29    30    1
    19     9    10    1
    20     9     8    1
    21     2     8    1
    22     2     3   ar
    23     4    17    1
    24     4     3   ar
    25    19    20   ar
    26    17    21   ar
    27     3    13    1
    28    20    21   ar
    29    20    23    1
    30    21    22    1
    31    13    15    1
    32    13    14    1
    33    13    16    1
