@<TRIPOS>MOLECULE
mol_data/opt/m06hf/geoms/mol2/13li13li13li-13li-.out
 62 65 0 0 0
SMALL
GASTEIGER

@<TRIPOS>ATOM
      1 C           0.5362    1.2565   -1.3421 C.ar    1  LIG1        0.0447
      2 C           1.1558    0.2975   -0.5701 C.ar    1  LIG1        0.1408
      3 C           0.1821   -0.6459   -0.1380 C.ar    1  LIG1        0.0180
      4 C          -1.0140   -0.2201   -0.6801 C.ar    1  LIG1        0.0730
      5 N          -0.7913    0.9197   -1.3943 N.ar    1  LIG1       -0.3561
      6 H          -1.5268    1.3946   -1.8980 H       1  LIG1        0.1655
      7 H           0.9194    2.1250   -1.8456 H       1  LIG1        0.0844
      8 O           2.4651    0.1935   -0.2145 O.3     1  LIG1       -0.4933
      9 C           3.3034    1.2047   -0.7304 C.3     1  LIG1        0.0789
     10 H           4.3069    0.9913   -0.3713 H       1  LIG1        0.0660
     11 H           3.2881    1.1912   -1.8244 H       1  LIG1        0.0660
     12 H           2.9806    2.1873   -0.3726 H       1  LIG1        0.0660
     13 C           0.4449   -1.8317    0.7556 C.3     1  LIG1       -0.0342
     14 H          -0.3068   -1.8908    1.5462 H       1  LIG1        0.0279
     15 H           1.4258   -1.7148    1.2149 H       1  LIG1        0.0279
     16 H           0.4436   -2.7710    0.1960 H       1  LIG1        0.0279
     17 C          -2.3619   -0.7624   -0.5930 C.ar    1  LIG1        0.1062
     18 C          -3.5634   -0.1409   -0.8719 C.ar    1  LIG1        0.1502
     19 C          -4.6227   -1.0631   -0.6707 C.ar    1  LIG1        0.0187
     20 C          -4.0138   -2.2412   -0.2727 C.ar    1  LIG1        0.0735
     21 N          -2.6621   -2.0415   -0.2309 N.ar    1  LIG1       -0.3486
     22 H          -2.0097   -2.7880   -0.0229 H       1  LIG1        0.1661
     23 O          -3.6929    1.1714   -1.2641 O.3     1  LIG1       -0.4927
     24 C          -3.7462    2.0701   -0.1551 C.3     1  LIG1        0.0789
     25 H          -3.8803    3.0678   -0.5692 H       1  LIG1        0.0660
     26 H          -4.5885    1.8155    0.4911 H       1  LIG1        0.0660
     27 H          -2.8162    2.0161    0.4145 H       1  LIG1        0.0660
     28 C          -6.0893   -0.7767   -0.8721 C.3     1  LIG1       -0.0341
     29 H          -6.6729   -1.0739    0.0022 H       1  LIG1        0.0279
     30 H          -6.4793   -1.2919   -1.7544 H       1  LIG1        0.0279
     31 H          -6.2222    0.2930   -1.0346 H       1  LIG1        0.0279
     32 C          -4.5430   -3.5506    0.0731 C.ar    1  LIG1        0.1062
     33 C          -3.8838   -4.6184    0.6472 C.ar    1  LIG1        0.1502
     34 C          -4.7794   -5.7147    0.7629 C.ar    1  LIG1        0.0187
     35 C          -5.9778   -5.2731    0.2418 C.ar    1  LIG1        0.0735
     36 N          -5.8228   -3.9675   -0.1618 N.ar    1  LIG1       -0.3486
     37 H          -6.4890   -3.4729   -0.7335 H       1  LIG1        0.1661
     38 O          -2.5699   -4.5901    1.0532 O.3     1  LIG1       -0.4927
     39 C          -2.4232   -4.1918    2.4174 C.3     1  LIG1        0.0789
     40 H          -1.3586   -4.2335    2.6399 H       1  LIG1        0.0660
     41 H          -2.8009   -3.1758    2.5516 H       1  LIG1        0.0660
     42 H          -2.9710   -4.8766    3.0669 H       1  LIG1        0.0660
     43 C          -4.4555   -7.0736    1.3249 C.3     1  LIG1       -0.0341
     44 H          -3.4324   -7.0735    1.7013 H       1  LIG1        0.0279
     45 H          -4.5444   -7.8261    0.5414 H       1  LIG1        0.0279
     46 H          -5.1380   -7.3293    2.1379 H       1  LIG1        0.0279
     47 C          -7.2733   -5.9347    0.1036 C.ar    1  LIG1        0.1057
     48 C          -7.6261   -7.1940   -0.3321 C.ar    1  LIG1        0.1495
     49 C          -9.0524   -7.2852   -0.3555 C.ar    1  LIG1        0.0092
     50 C          -9.5147   -6.0652    0.0753 C.ar    1  LIG1        0.0087
     51 N          -8.4466   -5.2589    0.3388 N.ar    1  LIG1       -0.3563
     52 H          -8.4894   -4.3498    0.7700 H       1  LIG1        0.1655
     53 H         -10.5257   -5.7169    0.2023 H       1  LIG1        0.0811
     54 O          -6.7381   -8.1492   -0.7401 O.3     1  LIG1       -0.4927
     55 C          -6.7916   -9.3558    0.0120 C.3     1  LIG1        0.0789
     56 H          -5.9502   -9.9615   -0.3189 H       1  LIG1        0.0660
     57 H          -6.7025   -9.1409    1.0789 H       1  LIG1        0.0660
     58 H          -7.7231   -9.8918   -0.1769 H       1  LIG1        0.0660
     59 C          -9.8816   -8.4530   -0.8319 C.3     1  LIG1       -0.0348
     60 H          -9.9845   -9.2173   -0.0587 H       1  LIG1        0.0279
     61 H          -9.4145   -8.9056   -1.7079 H       1  LIG1        0.0279
     62 H         -10.8791   -8.1125   -1.1096 H       1  LIG1        0.0279
@<TRIPOS>BOND
     1     6     5    1
     2     7     1    1
     3    11     9    1
     4    30    28    1
     5    61    59    1
     6     5     1   ar
     7     5     4   ar
     8     1     2   ar
     9    23    18    1
    10    23    24    1
    11    62    59    1
    12    31    28    1
    13    28    19    1
    14    28    29    1
    15    18    19   ar
    16    18    17   ar
    17    59    49    1
    18    59    60    1
    19    54    48    1
    20    54    55    1
    21    37    36    1
    22     9    12    1
    23     9    10    1
    24     9     8    1
    25     4    17    1
    26     4     3   ar
    27    19    20   ar
    28    17    21   ar
    29     2     8    1
    30     2     3   ar
    31    25    24    1
    32    49    48   ar
    33    49    50   ar
    34    48    47   ar
    35    56    55    1
    36    20    21   ar
    37    20    32    1
    38    21    22    1
    39    58    55    1
    40    36    32   ar
    41    36    35   ar
    42    24    27    1
    43    24    26    1
    44     3    13    1
    45    55    57    1
    46    32    33   ar
    47    50    53    1
    48    50    51   ar
    49    47    35    1
    50    47    51   ar
    51    16    13    1
    52    35    34   ar
    53    51    52    1
    54    45    43    1
    55    33    34   ar
    56    33    38    1
    57    13    15    1
    58    13    14    1
    59    34    43    1
    60    38    39    1
    61    43    44    1
    62    43    46    1
    63    39    41    1
    64    39    40    1
    65    39    42    1
