@<TRIPOS>MOLECULE
mol_data/opt/m06hf/geoms/mol2/13li6dl-12da-4ae.out
 51 54 0 0 0
SMALL
GASTEIGER

@<TRIPOS>ATOM
      1 C           1.4359   -0.1462   -0.2168 C.ar    1  LIG1        0.0446
      2 C           0.9285    1.1143    0.0223 C.ar    1  LIG1        0.1408
      3 C          -0.4810    1.0208    0.1403 C.ar    1  LIG1        0.0165
      4 C          -0.7894   -0.3207   -0.0381 C.ar    1  LIG1        0.0558
      5 N           0.3759   -1.0029   -0.2472 N.ar    1  LIG1       -0.3573
      6 H           0.4514   -2.0012   -0.3703 H       1  LIG1        0.1655
      7 H           2.4425   -0.4965   -0.3593 H       1  LIG1        0.0844
      8 O           1.5829    2.2961    0.1562 O.3     1  LIG1       -0.4933
      9 C           2.9929    2.2101    0.1019 C.3     1  LIG1        0.0789
     10 H           3.3709    3.2172    0.2538 H       1  LIG1        0.0660
     11 H           3.3635    1.5486    0.8902 H       1  LIG1        0.0660
     12 H           3.3137    1.8365   -0.8748 H       1  LIG1        0.0660
     13 C          -1.3698    2.1926    0.4783 C.3     1  LIG1       -0.0342
     14 H          -2.2191    1.8771    1.0861 H       1  LIG1        0.0279
     15 H          -1.7394    2.6910   -0.4219 H       1  LIG1        0.0279
     16 H          -0.7822    2.9172    1.0409 H       1  LIG1        0.0279
     17 C          -2.3736   -2.2663    0.3981 C.ar    1  LIG1        0.1501
     18 C          -2.1144   -0.9519   -0.0210 C.ar    1  LIG1        0.0380
     19 C          -3.2230   -0.2098   -0.4457 C.ar    1  LIG1       -0.0059
     20 C          -4.4929   -0.7648   -0.3916 C.ar    1  LIG1        0.1497
     21 C          -4.6319   -2.0808    0.1004 C.ar    1  LIG1        0.1502
     22 N          -3.5868   -2.8058    0.4540 N.ar    1  LIG1       -0.2289
     23 H          -3.0679    0.7793   -0.8504 H       1  LIG1        0.0662
     24 N          -0.4008   -3.8183    1.0887 N.1     1  LIG1       -0.1893
     25 C          -1.2858   -3.1436    0.8080 C.1     1  LIG1        0.1198
     26 O          -5.6078   -0.1581   -0.8074 O.3     1  LIG1       -0.4928
     27 C          -5.5850    1.2431   -1.0510 C.3     1  LIG1        0.0789
     28 H          -6.6243    1.5300   -1.1747 H       1  LIG1        0.0660
     29 H          -5.1555    1.7645   -0.1927 H       1  LIG1        0.0660
     30 H          -5.0169    1.4590   -1.9575 H       1  LIG1        0.0660
     31 C          -5.9569   -2.7156    0.2238 C.ar    1  LIG1        0.1747
     32 C          -7.2194   -2.2638    0.5066 C.ar    1  LIG1        0.0996
     33 C          -8.0692   -3.4194    0.5440 C.ar    1  LIG1        0.0023
     34 C          -7.2606   -4.4805    0.2792 C.ar    1  LIG1        0.1371
     35 O          -5.9945   -4.0473    0.0916 O.2     1  LIG1       -0.4518
     36 N          -8.0110    0.1363    1.0392 N.1     1  LIG1       -0.1907
     37 C          -7.6354   -0.9197    0.7908 C.1     1  LIG1        0.1030
     38 H          -9.1251   -3.4220    0.7505 H       1  LIG1        0.0668
     39 C          -8.7871   -6.4462    0.2518 C.ar    1  LIG1       -0.0510
     40 C          -9.0006   -7.8124    0.1159 C.ar    1  LIG1       -0.0599
     41 C          -7.4937   -5.9276    0.1497 C.ar    1  LIG1        0.0185
     42 C          -7.9322   -8.6694   -0.1255 C.ar    1  LIG1       -0.0463
     43 H         -10.0034   -8.2098    0.1952 H       1  LIG1        0.0618
     44 C          -6.4166   -6.7805   -0.0874 C.ar    1  LIG1       -0.0357
     45 C          -6.6376   -8.1521   -0.2271 C.ar    1  LIG1        0.0254
     46 H          -5.4130   -6.3851   -0.1646 H       1  LIG1        0.0637
     47 H          -8.0876   -9.7337   -0.2370 H       1  LIG1        0.0630
     48 H          -9.6251   -5.7858    0.4326 H       1  LIG1        0.0625
     49 C          -5.5224   -9.0355   -0.4819 C.1     1  LIG1       -0.0696
     50 C          -4.5952   -9.7680   -0.6986 C.1     1  LIG1       -0.1139
     51 H          -3.7686  -10.4119   -0.8918 H       1  LIG1        0.1232
@<TRIPOS>BOND
     1    30    27    1
     2    28    27    1
     3    27    26    1
     4    27    29    1
     5    51    50    1
     6    12     9    1
     7    23    19    1
     8    26    20    1
     9    50    49    3
    10    49    45    1
    11    19    20   ar
    12    19    18   ar
    13    15    13    1
    14    20    21   ar
    15     6     5    1
    16     7     1    1
    17     5     1   ar
    18     5     4   ar
    19    47    42    1
    20    45    42   ar
    21    45    44   ar
    22     1     2   ar
    23    46    44    1
    24    42    40   ar
    25    44    41   ar
    26     4    18    1
    27     4     3   ar
    28    18    17   ar
    29     2     3   ar
    30     2     8    1
    31    35    31   ar
    32    35    34   ar
    33    21    31    1
    34    21    22   ar
    35     9     8    1
    36     9    10    1
    37     9    11    1
    38    40    43    1
    39    40    39   ar
    40     3    13    1
    41    41    39   ar
    42    41    34    1
    43    31    32   ar
    44    39    48    1
    45    34    33   ar
    46    17    22   ar
    47    17    25    1
    48    13    16    1
    49    13    14    1
    50    32    33   ar
    51    32    37    1
    52    33    38    1
    53    37    36    3
    54    25    24    3
