@<TRIPOS>MOLECULE
mol_data/opt/m06hf/geoms/mol2/13li13li13li.out
 47 49 0 0 0
SMALL
GASTEIGER

@<TRIPOS>ATOM
      1 C           0.7696    1.4212   -1.2849 C.ar    1  LIG1        0.0447
      2 C           1.3332    0.6766   -0.2715 C.ar    1  LIG1        0.1408
      3 C           0.3368   -0.1747    0.2831 C.ar    1  LIG1        0.0180
      4 C          -0.8149    0.0836   -0.4347 C.ar    1  LIG1        0.0730
      5 N          -0.5441    1.0416   -1.3654 N.ar    1  LIG1       -0.3561
      6 H          -1.2416    1.3700   -2.0185 H       1  LIG1        0.1655
      7 H           1.1833    2.1683   -1.9376 H       1  LIG1        0.0844
      8 O           2.6105    0.6887    0.1978 O.3     1  LIG1       -0.4933
      9 C           3.4645    1.6163   -0.4364 C.3     1  LIG1        0.0789
     10 H           4.4402    1.5137    0.0319 H       1  LIG1        0.0660
     11 H           3.5401    1.3955   -1.5053 H       1  LIG1        0.0660
     12 H           3.0897    2.6351   -0.2987 H       1  LIG1        0.0660
     13 C           0.5504   -1.1261    1.4330 C.3     1  LIG1       -0.0342
     14 H          -0.3058   -1.1124    2.1111 H       1  LIG1        0.0279
     15 H           1.4354   -0.8147    1.9872 H       1  LIG1        0.0279
     16 H           0.7161   -2.1497    1.0859 H       1  LIG1        0.0279
     17 C          -2.1600   -0.4691   -0.3535 C.ar    1  LIG1        0.1062
     18 C          -3.3215    0.0048   -0.9257 C.ar    1  LIG1        0.1502
     19 C          -4.3889   -0.8833   -0.6247 C.ar    1  LIG1        0.0187
     20 C          -3.8311   -1.8932    0.1318 C.ar    1  LIG1        0.0735
     21 N          -2.4915   -1.6266    0.2923 N.ar    1  LIG1       -0.3486
     22 H          -1.8201   -2.2943    0.6384 H       1  LIG1        0.1661
     23 O          -3.4113    1.1682   -1.6541 O.3     1  LIG1       -0.4927
     24 C          -3.7335    2.2990   -0.8433 C.3     1  LIG1        0.0789
     25 H          -3.8233    3.1494   -1.5160 H       1  LIG1        0.0660
     26 H          -4.6790    2.1288   -0.3248 H       1  LIG1        0.0660
     27 H          -2.9394    2.4723   -0.1138 H       1  LIG1        0.0660
     28 C          -5.8197   -0.7341   -1.0688 C.3     1  LIG1       -0.0341
     29 H          -6.4952   -0.7463   -0.2108 H       1  LIG1        0.0279
     30 H          -6.0853   -1.5531   -1.7372 H       1  LIG1        0.0279
     31 H          -5.9349    0.2090   -1.6031 H       1  LIG1        0.0279
     32 C          -4.4255   -3.0753    0.7527 C.ar    1  LIG1        0.1057
     33 C          -5.3236   -4.0117    0.2874 C.ar    1  LIG1        0.1495
     34 C          -5.4936   -5.0172    1.2888 C.ar    1  LIG1        0.0092
     35 C          -4.6857   -4.6460    2.3361 C.ar    1  LIG1        0.0087
     36 N          -4.0426   -3.4893    2.0058 N.ar    1  LIG1       -0.3563
     37 H          -3.4673   -2.9396    2.6232 H       1  LIG1        0.1655
     38 H          -4.5189   -5.1307    3.2830 H       1  LIG1        0.0811
     39 O          -5.8843   -3.9983   -0.9592 O.3     1  LIG1       -0.4927
     40 C          -7.3036   -3.8987   -0.9597 C.3     1  LIG1        0.0789
     41 H          -7.5996   -3.7483   -1.9963 H       1  LIG1        0.0660
     42 H          -7.7601   -4.8144   -0.5805 H       1  LIG1        0.0660
     43 H          -7.6240   -3.0511   -0.3508 H       1  LIG1        0.0660
     44 C          -6.3329   -6.2672    1.1859 C.3     1  LIG1       -0.0348
     45 H          -5.9750   -7.0158    1.8925 H       1  LIG1        0.0279
     46 H          -6.2612   -6.6797    0.1782 H       1  LIG1        0.0279
     47 H          -7.3837   -6.0661    1.4047 H       1  LIG1        0.0279
@<TRIPOS>BOND
     1     6     5    1
     2    41    40    1
     3     7     1    1
     4    30    28    1
     5    23    18    1
     6    23    24    1
     7    31    28    1
     8    25    24    1
     9    11     9    1
    10     5     1   ar
    11     5     4   ar
    12     1     2   ar
    13    28    19    1
    14    28    29    1
    15    40    39    1
    16    40    42    1
    17    40    43    1
    18    39    33    1
    19    18    19   ar
    20    18    17   ar
    21    24    26    1
    22    24    27    1
    23    19    20   ar
    24     9    12    1
    25     9    10    1
    26     9     8    1
    27     4    17    1
    28     4     3   ar
    29    17    21   ar
    30     2     8    1
    31     2     3   ar
    32    20    21   ar
    33    20    32    1
    34    46    44    1
    35     3    13    1
    36    33    32   ar
    37    33    34   ar
    38    21    22    1
    39    32    36   ar
    40    16    13    1
    41    44    34    1
    42    44    47    1
    43    44    45    1
    44    34    35   ar
    45    13    15    1
    46    13    14    1
    47    36    35   ar
    48    36    37    1
    49    35    38    1
