@<TRIPOS>MOLECULE
mol_data/opt/m06hf/geoms/mol2/13li4lf13el-4fa6hl12ah13hd13df-.out
 102 109 0 0 0
SMALL
GASTEIGER

@<TRIPOS>ATOM
      1 C           0.7116    2.1971    0.4605 C.ar    1  LIG1        0.0446
      2 C           0.5150    1.9845    1.8090 C.ar    1  LIG1        0.1408
      3 C          -0.6068    1.1297    1.9781 C.ar    1  LIG1        0.0166
      4 C          -1.0587    0.8404    0.7001 C.ar    1  LIG1        0.0566
      5 N          -0.2585    1.4934   -0.1926 N.ar    1  LIG1       -0.3573
      6 H          -0.4284    1.4669   -1.1879 H       1  LIG1        0.1655
      7 H           1.4409    2.7807   -0.0716 H       1  LIG1        0.0844
      8 O           1.2087    2.4807    2.8687 O.3     1  LIG1       -0.4933
      9 C           2.2764    3.3388    2.5275 C.3     1  LIG1        0.0789
     10 H           2.7383    3.6489    3.4610 H       1  LIG1        0.0660
     11 H           3.0075    2.8100    1.9088 H       1  LIG1        0.0660
     12 H           1.9040    4.2146    1.9872 H       1  LIG1        0.0660
     13 C          -1.1593    0.7214    3.3207 C.3     1  LIG1       -0.0342
     14 H          -2.2456    0.6301    3.2805 H       1  LIG1        0.0279
     15 H          -0.8956    1.4853    4.0519 H       1  LIG1        0.0279
     16 H          -0.7350   -0.2269    3.6604 H       1  LIG1        0.0279
     17 C          -2.8450    0.2254   -0.9590 C.ar    1  LIG1        0.1300
     18 C          -3.9047   -0.5695   -1.3602 C.ar    1  LIG1       -0.0066
     19 C          -2.1797   -0.0031    0.2525 C.ar    1  LIG1        0.0438
     20 C          -4.3662   -1.6295   -0.5741 C.ar    1  LIG1        0.0445
     21 H          -4.3731   -0.3507   -2.3099 H       1  LIG1        0.0662
     22 C          -2.6085   -1.0871    1.0207 C.ar    1  LIG1       -0.0069
     23 C          -3.6803   -1.8766    0.6258 C.ar    1  LIG1        0.1268
     24 H          -2.0754   -1.3326    1.9316 H       1  LIG1        0.0662
     25 O          -2.4440    1.2547   -1.7887 O.3     1  LIG1       -0.4944
     26 C          -3.0805    2.4962   -1.4736 C.3     1  LIG1        0.0788
     27 H          -2.6976    3.2268   -2.1826 H       1  LIG1        0.0660
     28 H          -4.1612    2.3923   -1.5860 H       1  LIG1        0.0660
     29 H          -2.8352    2.7950   -0.4526 H       1  LIG1        0.0660
     30 O          -4.0777   -2.9382    1.4010 O.3     1  LIG1       -0.5061
     31 H          -3.5663   -2.9707    2.2158 H       1  LIG1        0.2922
     32 C          -5.5164   -2.4358   -1.0213 C.ar    1  LIG1        0.0698
     33 C          -6.4468   -2.2027   -2.0367 C.ar    1  LIG1        0.0922
     34 C          -7.3483   -3.3088   -2.0352 C.ar    1  LIG1        0.1613
     35 C          -6.9563   -4.1707   -1.0343 C.ar    1  LIG1        0.0939
     36 N          -5.8456   -3.6231   -0.4514 N.ar    1  LIG1       -0.3500
     37 H          -5.3737   -3.9838    0.3663 H       1  LIG1        0.1661
     38 C          -6.5177   -1.1093   -2.9581 C.1     1  LIG1       -0.0638
     39 C          -6.6087   -0.2066   -3.7501 C.1     1  LIG1       -0.1137
     40 H          -6.6894    0.5832   -4.4603 H       1  LIG1        0.1232
     41 O          -8.3663   -3.5240   -2.9052 O.3     1  LIG1       -0.4917
     42 C          -9.4385   -2.5881   -2.7878 C.3     1  LIG1        0.0789
     43 H         -10.2210   -2.9441   -3.4549 H       1  LIG1        0.0660
     44 H          -9.7952   -2.5707   -1.7583 H       1  LIG1        0.0660
     45 H          -9.1086   -1.5959   -3.0966 H       1  LIG1        0.0660
     46 C          -8.8218   -5.7594   -0.4937 C.ar    1  LIG1        0.1266
     47 C          -9.2640   -7.0343   -0.1526 C.ar    1  LIG1       -0.0117
     48 C          -7.4519   -5.5011   -0.6432 C.ar    1  LIG1        0.0434
     49 C          -8.3562   -8.0707    0.0745 C.ar    1  LIG1       -0.0110
     50 H         -10.3286   -7.2290   -0.0744 H       1  LIG1        0.0660
     51 C          -6.5548   -6.5461   -0.4112 C.ar    1  LIG1       -0.0484
     52 C          -6.9875   -7.8157   -0.0463 C.ar    1  LIG1       -0.0531
     53 H          -5.4964   -6.3575   -0.5442 H       1  LIG1        0.0625
     54 O          -9.6899   -4.7317   -0.6727 O.3     1  LIG1       -0.5061
     55 H         -10.5995   -5.0439   -0.6249 H       1  LIG1        0.2922
     56 H          -6.2755   -8.6110    0.1310 H       1  LIG1        0.0624
     57 C          -8.4098  -10.5896   -0.1952 C.ar    1  LIG1        0.1250
     58 C          -8.8567   -9.4214    0.4554 C.ar    1  LIG1        0.0253
     59 C          -9.8099   -9.5713    1.4587 C.ar    1  LIG1       -0.0067
     60 C         -10.2845  -10.8335    1.7993 C.ar    1  LIG1        0.1497
     61 C          -9.7677  -11.9329    1.0988 C.ar    1  LIG1        0.1496
     62 N          -8.8628  -11.7924    0.1335 N.ar    1  LIG1       -0.2250
     63 H         -10.1536   -8.6873    1.9801 H       1  LIG1        0.0662
     64 N          -7.4549  -10.5467   -1.1996 N.pl3   1  LIG1       -0.3426
     65 H          -7.4436  -11.3911   -1.7544 H       1  LIG1        0.1437
     66 H          -7.4196   -9.6889   -1.7341 H       1  LIG1        0.1437
     67 O         -11.2093  -11.0757    2.7655 O.3     1  LIG1       -0.4928
     68 C         -11.7443   -9.9646    3.4601 C.3     1  LIG1        0.0789
     69 H         -12.4563  -10.3729    4.1719 H       1  LIG1        0.0660
     70 H         -10.9565   -9.4267    3.9933 H       1  LIG1        0.0660
     71 H         -12.2574   -9.2904    2.7695 H       1  LIG1        0.0660
     72 C         -10.2054  -13.3073    1.3918 C.ar    1  LIG1        0.1594
     73 C         -11.1202  -13.8547    2.2420 C.ar    1  LIG1        0.0072
     74 C         -11.0657  -15.2797    2.0454 C.ar    1  LIG1        0.0732
     75 C         -10.1217  -15.4717    1.0747 C.ar    1  LIG1        0.1742
     76 O          -9.5948  -14.2781    0.6845 O.2     1  LIG1       -0.4497
     77 H         -11.7449  -13.3204    2.9337 H       1  LIG1        0.0675
     78 N         -11.7620  -16.2363    2.7648 N.pl3   1  LIG1       -0.3550
     79 H         -12.6784  -15.9379    3.0673 H       1  LIG1        0.1424
     80 H         -11.7495  -17.1562    2.3248 H       1  LIG1        0.1424
     81 C          -9.5395  -16.6346    0.4342 C.ar    1  LIG1        0.1066
     82 C          -9.9103  -17.9622    0.3699 C.ar    1  LIG1        0.0716
     83 C          -8.9154  -18.6264   -0.4104 C.ar    1  LIG1        0.0997
     84 C          -7.9871  -17.6835   -0.8073 C.ar    1  LIG1        0.0842
     85 N          -8.3846  -16.4917   -0.2859 N.ar    1  LIG1       -0.3480
     86 H          -7.9677  -15.5901   -0.4776 H       1  LIG1        0.1661
     87 N         -11.0770  -18.5321    0.9546 N.pl3   1  LIG1       -0.3552
     88 H         -11.7871  -18.6898    0.2430 H       1  LIG1        0.1424
     89 H         -10.8605  -19.4312    1.3781 H       1  LIG1        0.1424
     90 N          -8.8976  -21.1728   -0.8215 N.1     1  LIG1       -0.1907
     91 C          -8.8817  -20.0354   -0.6655 C.1     1  LIG1        0.1032
     92 C          -6.7682  -17.8218   -1.5984 C.ar    1  LIG1        0.0855
     93 C          -6.5538  -18.4506   -2.8124 C.ar    1  LIG1        0.1197
     94 C          -5.1777  -18.2784   -3.1361 C.ar    1  LIG1        0.1521
     95 C          -4.6026  -17.5523   -2.1238 C.ar    1  LIG1        0.0455
     96 N          -5.5881  -17.2829   -1.2042 N.ar    1  LIG1       -0.3554
     97 H          -5.4420  -16.8520   -0.3047 H       1  LIG1        0.1655
     98 H          -3.5898  -17.2180   -1.9863 H       1  LIG1        0.0845
     99 N          -8.3547  -19.5930   -4.2631 N.1     1  LIG1       -0.1907
    100 C          -7.5496  -19.0912   -3.6169 C.1     1  LIG1        0.1050
    101 O          -4.6326  -18.7690   -4.2742 O.3     1  LIG1       -0.5040
    102 H          -3.6893  -18.5821   -4.3100 H       1  LIG1        0.2923
@<TRIPOS>BOND
     1    40    39    1
     2   102   101    1
     3   101    94    1
     4    99   100    3
     5    39    38    3
     6   100    93    1
     7    43    42    1
     8    94    93   ar
     9    94    95   ar
    10    45    42    1
    11    38    33    1
    12    41    42    1
    13    41    34    1
    14    93    92   ar
    15    42    44    1
    16    21    18    1
    17    27    26    1
    18    95    98    1
    19    95    96   ar
    20    33    34   ar
    21    33    32   ar
    22    34    35   ar
    23    25    26    1
    24    25    17    1
    25    65    64    1
    26    66    64    1
    27    92    96   ar
    28    92    84    1
    29    28    26    1
    30    26    29    1
    31    18    17   ar
    32    18    20   ar
    33    96    97    1
    34    64    57    1
    35     6     5    1
    36    35    48    1
    37    35    36   ar
    38    32    20    1
    39    32    36   ar
    40    17    19   ar
    41    90    91    3
    42    84    83   ar
    43    84    85   ar
    44    54    55    1
    45    54    46    1
    46    91    83    1
    47    48    46   ar
    48    48    51   ar
    49    20    23   ar
    50    53    51    1
    51    46    47   ar
    52    86    85    1
    53    36    37    1
    54    51    52   ar
    55    83    82   ar
    56    85    81   ar
    57    57    62   ar
    58    57    58   ar
    59     5     1   ar
    60     5     4   ar
    61    47    50    1
    62    47    49   ar
    63     7     1    1
    64    52    49   ar
    65    52    56    1
    66    49    58    1
    67    62    61   ar
    68    88    87    1
    69    19     4    1
    70    19    22   ar
    71    82    81   ar
    72    82    87    1
    73    81    75    1
    74    58    59   ar
    75     1     2   ar
    76    23    22   ar
    77    23    30    1
    78    76    75   ar
    79    76    72   ar
    80     4     3   ar
    81    87    89    1
    82    22    24    1
    83    75    74   ar
    84    61    72    1
    85    61    60   ar
    86    72    73   ar
    87    30    31    1
    88    59    60   ar
    89    59    63    1
    90    60    67    1
    91     2     3   ar
    92     2     8    1
    93    11     9    1
    94     3    13    1
    95    12     9    1
    96    74    73   ar
    97    74    78    1
    98    73    77    1
    99    80    78    1
   100     9     8    1
   101     9    10    1
   102    78    79    1
   103    67    68    1
   104    71    68    1
   105    14    13    1
   106    13    16    1
   107    13    15    1
   108    68    70    1
   109    68    69    1
