@<TRIPOS>MOLECULE
mol_data/opt/m06hf/geoms/mol2/13li13dh-12lh13di.out
 60 63 0 0 0
SMALL
GASTEIGER

@<TRIPOS>ATOM
      1 C           1.0411    0.5335   -1.2083 C.ar    1  LIG1        0.0446
      2 C           1.1187    0.9340    0.1064 C.ar    1  LIG1        0.1408
      3 C          -0.1040    0.6102    0.7609 C.ar    1  LIG1        0.0166
      4 C          -0.8982    0.0167   -0.1959 C.ar    1  LIG1        0.0566
      5 N          -0.1952   -0.0385   -1.3695 N.ar    1  LIG1       -0.3573
      6 H          -0.5965   -0.3156   -2.2497 H       1  LIG1        0.1655
      7 H           1.7395    0.6080   -2.0223 H       1  LIG1        0.0844
      8 O           2.1528    1.5237    0.7642 O.3     1  LIG1       -0.4933
      9 C           3.3126    1.7242   -0.0134 C.3     1  LIG1        0.0789
     10 H           4.0520    2.1814    0.6390 H       1  LIG1        0.0660
     11 H           3.6881    0.7686   -0.3924 H       1  LIG1        0.0660
     12 H           3.0973    2.3912   -0.8540 H       1  LIG1        0.0660
     13 C          -0.3971    0.8457    2.2187 C.3     1  LIG1       -0.0342
     14 H          -1.1234    0.1175    2.5800 H       1  LIG1        0.0279
     15 H          -0.8087    1.8443    2.3687 H       1  LIG1        0.0279
     16 H           0.5256    0.7518    2.7912 H       1  LIG1        0.0279
     17 C          -3.3018    0.1169    0.5002 C.ar    1  LIG1        0.1268
     18 C          -4.5660   -0.4684    0.5569 C.ar    1  LIG1       -0.0083
     19 C          -2.2498   -0.5697   -0.1091 C.ar    1  LIG1        0.0435
     20 C          -4.8123   -1.7205    0.0048 C.ar    1  LIG1        0.0291
     21 H          -5.3826    0.0534    1.0450 H       1  LIG1        0.0661
     22 C          -2.4973   -1.8291   -0.6711 C.ar    1  LIG1       -0.0067
     23 C          -3.7644   -2.4016   -0.6321 C.ar    1  LIG1        0.1287
     24 H          -1.6640   -2.3551   -1.1173 H       1  LIG1        0.0662
     25 O          -3.0572    1.3548    1.0142 O.3     1  LIG1       -0.5061
     26 H          -3.8616    1.7232    1.3938 H       1  LIG1        0.2922
     27 O          -4.0710   -3.6086   -1.1797 O.3     1  LIG1       -0.4945
     28 C          -3.0161   -4.3756   -1.7253 C.3     1  LIG1        0.0788
     29 H          -3.4679   -5.3052   -2.0605 H       1  LIG1        0.0660
     30 H          -2.5615   -3.8602   -2.5755 H       1  LIG1        0.0660
     31 H          -2.2570   -4.5832   -0.9661 H       1  LIG1        0.0660
     32 C          -6.4340   -3.4950    0.8142 C.ar    1  LIG1        0.0471
     33 C          -6.1805   -2.3109    0.0904 C.ar    1  LIG1        0.0102
     34 C          -7.2473   -1.6593   -0.5036 C.ar    1  LIG1       -0.0084
     35 C          -8.5419   -2.1719   -0.3908 C.ar    1  LIG1        0.1465
     36 C          -8.6946   -3.3566    0.3411 C.ar    1  LIG1        0.1512
     37 N          -7.6608   -3.9789    0.9163 N.ar    1  LIG1       -0.2444
     38 H          -7.1056   -0.7468   -1.0688 H       1  LIG1        0.0661
     39 C          -5.3354   -4.2591    1.5217 C.3     1  LIG1       -0.0217
     40 H          -4.6546   -3.5736    2.0283 H       1  LIG1        0.0293
     41 H          -4.7631   -4.8364    0.7935 H       1  LIG1        0.0293
     42 H          -5.7980   -4.9305    2.2413 H       1  LIG1        0.0293
     43 O          -9.5377   -1.4723   -0.9672 O.3     1  LIG1       -0.5045
     44 H         -10.3839   -1.9720   -1.0168 H       1  LIG1        0.2922
     45 C         -10.0106   -3.9953    0.5553 C.ar    1  LIG1        0.2017
     46 C         -11.2291   -3.8863   -0.0455 C.ar    1  LIG1        0.2095
     47 C         -12.1118   -4.8090    0.6150 C.ar    1  LIG1        0.2004
     48 C         -11.3612   -5.3999    1.5755 C.ar    1  LIG1        0.1380
     49 O         -10.1036   -4.9141    1.5375 O.2     1  LIG1       -0.4537
     50 H         -11.5795   -6.1546    2.3083 H       1  LIG1        0.1069
     51 O         -11.5723   -3.0791   -1.1008 O.3     1  LIG1       -0.4884
     52 C         -11.6381   -3.7902   -2.3489 C.3     1  LIG1        0.0791
     53 H         -11.9326   -3.0617   -3.0991 H       1  LIG1        0.0660
     54 H         -10.6561   -4.2071   -2.5762 H       1  LIG1        0.0660
     55 H         -12.3815   -4.5824   -2.2619 H       1  LIG1        0.0660
     56 O         -13.4098   -5.0451    0.2892 O.3     1  LIG1       -0.4888
     57 C         -14.2555   -3.9129    0.5084 C.3     1  LIG1        0.0791
     58 H         -15.2507   -4.2108    0.1879 H       1  LIG1        0.0660
     59 H         -14.2598   -3.6560    1.5688 H       1  LIG1        0.0660
     60 H         -13.9052   -3.0630   -0.0798 H       1  LIG1        0.0660
@<TRIPOS>BOND
     1    53    52    1
     2    54    52    1
     3    30    28    1
     4    52    55    1
     5    52    51    1
     6     6     5    1
     7    29    28    1
     8     7     1    1
     9    28    27    1
    10    28    31    1
    11     5     1   ar
    12     5     4   ar
    13     1     2   ar
    14    27    23    1
    15    24    22    1
    16    51    46    1
    17    38    34    1
    18    44    43    1
    19    43    35    1
    20    12     9    1
    21    22    23   ar
    22    22    19   ar
    23    23    20   ar
    24    34    35   ar
    25    34    33   ar
    26    11     9    1
    27    35    36   ar
    28     4    19    1
    29     4     3   ar
    30    19    17   ar
    31    60    57    1
    32    46    45   ar
    33    46    47   ar
    34     9    10    1
    35     9     8    1
    36    20    33    1
    37    20    18   ar
    38    33    32   ar
    39     2     3   ar
    40     2     8    1
    41    58    57    1
    42    56    57    1
    43    56    47    1
    44    36    45    1
    45    36    37   ar
    46    17    18   ar
    47    17    25    1
    48    57    59    1
    49    45    49   ar
    50    18    21    1
    51    47    48   ar
    52     3    13    1
    53    41    39    1
    54    32    37   ar
    55    32    39    1
    56    25    26    1
    57    39    40    1
    58    39    42    1
    59    49    48   ar
    60    48    50    1
    61    13    15    1
    62    13    14    1
    63    13    16    1
