@<TRIPOS>MOLECULE
mol_data/opt/m06hf/geoms/mol2/13li13li-13li.out
 47 49 0 0 0
SMALL
GASTEIGER

@<TRIPOS>ATOM
      1 C           1.1872   -0.6999   -0.6324 C.ar    1  LIG1        0.0447
      2 C           0.8807    0.6005   -0.2949 C.ar    1  LIG1        0.1408
      3 C          -0.5265    0.7103   -0.1141 C.ar    1  LIG1        0.0180
      4 C          -1.0324   -0.5506   -0.3594 C.ar    1  LIG1        0.0730
      5 N           0.0008   -1.3861   -0.6647 N.ar    1  LIG1       -0.3561
      6 H          -0.1412   -2.3556   -0.9098 H       1  LIG1        0.1655
      7 H           2.1238   -1.1810   -0.8472 H       1  LIG1        0.0844
      8 O           1.7134    1.6629   -0.1214 O.3     1  LIG1       -0.4933
      9 C           3.0849    1.3725   -0.2850 C.3     1  LIG1        0.0789
     10 H           3.6240    2.2993   -0.1078 H       1  LIG1        0.0660
     11 H           3.4011    0.6123    0.4356 H       1  LIG1        0.0660
     12 H           3.2805    1.0168   -1.3011 H       1  LIG1        0.0660
     13 C          -1.2635    1.9604    0.2953 C.3     1  LIG1       -0.0342
     14 H          -1.9807    1.7404    1.0896 H       1  LIG1        0.0279
     15 H          -1.7955    2.4128   -0.5461 H       1  LIG1        0.0279
     16 H          -0.5429    2.6873    0.6684 H       1  LIG1        0.0279
     17 C          -2.3927   -1.0680   -0.3278 C.ar    1  LIG1        0.1062
     18 C          -2.8193   -2.3804   -0.2767 C.ar    1  LIG1        0.1502
     19 C          -4.2379   -2.4103   -0.2868 C.ar    1  LIG1        0.0187
     20 C          -4.6330   -1.0851   -0.3496 C.ar    1  LIG1        0.0735
     21 N          -3.5163   -0.2974   -0.3716 N.ar    1  LIG1       -0.3486
     22 H          -3.5644    0.7097   -0.4683 H       1  LIG1        0.1661
     23 O          -1.9875   -3.4743   -0.2090 O.3     1  LIG1       -0.4927
     24 C          -1.6131   -3.7927    1.1326 C.3     1  LIG1        0.0789
     25 H          -1.0014   -4.6914    1.0802 H       1  LIG1        0.0660
     26 H          -1.0429   -2.9686    1.5664 H       1  LIG1        0.0660
     27 H          -2.5053   -3.9790    1.7335 H       1  LIG1        0.0660
     28 C          -5.0890   -3.6545   -0.2475 C.3     1  LIG1       -0.0341
     29 H          -5.8318   -3.6028    0.5521 H       1  LIG1        0.0279
     30 H          -4.4452   -4.5162   -0.0702 H       1  LIG1        0.0279
     31 H          -5.5991   -3.8192   -1.2005 H       1  LIG1        0.0279
     32 C          -5.9435   -0.4521   -0.3898 C.ar    1  LIG1        0.1057
     33 C          -6.2566    0.8822   -0.2402 C.ar    1  LIG1        0.1495
     34 C          -7.6630    1.0478   -0.3818 C.ar    1  LIG1        0.0092
     35 C          -8.1591   -0.2120   -0.6227 C.ar    1  LIG1        0.0087
     36 N          -7.1219   -1.1033   -0.6228 N.ar    1  LIG1       -0.3563
     37 H          -7.1968   -2.0863   -0.8246 H       1  LIG1        0.1655
     38 H          -9.1704   -0.5345   -0.8021 H       1  LIG1        0.0811
     39 O          -5.3323    1.8757   -0.0112 O.3     1  LIG1       -0.4927
     40 C          -5.1888    2.1906    1.3740 C.3     1  LIG1        0.0789
     41 H          -4.4607    2.9970    1.4359 H       1  LIG1        0.0660
     42 H          -6.1452    2.5165    1.7862 H       1  LIG1        0.0660
     43 H          -4.8331    1.3128    1.9187 H       1  LIG1        0.0660
     44 C          -8.4153    2.3521   -0.2944 C.3     1  LIG1       -0.0348
     45 H          -9.3501    2.2897   -0.8510 H       1  LIG1        0.0279
     46 H          -7.8069    3.1521   -0.7173 H       1  LIG1        0.0279
     47 H          -8.6485    2.6079    0.7411 H       1  LIG1        0.0279
@<TRIPOS>BOND
     1    12     9    1
     2    31    28    1
     3     6     5    1
     4    45    44    1
     5     7     1    1
     6    37    36    1
     7    38    35    1
     8    46    44    1
     9     5     1   ar
    10     5     4   ar
    11     1     2   ar
    12    36    35   ar
    13    36    32   ar
    14    35    34   ar
    15    15    13    1
    16    22    21    1
    17    32    20    1
    18    32    33   ar
    19    34    44    1
    20    34    33   ar
    21    21    20   ar
    22    21    17   ar
    23     4    17    1
    24     4     3   ar
    25    20    19   ar
    26    17    18   ar
    27     2     8    1
    28     2     3   ar
    29    44    47    1
    30    19    18   ar
    31    19    28    1
    32     9     8    1
    33     9    10    1
    34     9    11    1
    35    18    23    1
    36    28    30    1
    37    28    29    1
    38    33    39    1
    39    23    24    1
    40     3    13    1
    41    39    40    1
    42    13    16    1
    43    13    14    1
    44    25    24    1
    45    24    26    1
    46    24    27    1
    47    40    41    1
    48    40    42    1
    49    40    43    1
