@<TRIPOS>MOLECULE
mol_data/opt/m06hf/geoms/mol2/13ll4ah-12le4di4aa12ea-4dd-4if.out
 102 109 0 0 0
SMALL
GASTEIGER

@<TRIPOS>ATOM
      1 C           1.4758    0.6223    1.1518 C.ar    1  LIG1        0.0481
      2 C           0.9868    1.8409    0.7398 C.ar    1  LIG1        0.1794
      3 C          -0.4003    1.6708    0.4611 C.ar    1  LIG1        0.1868
      4 C          -0.7142    0.3480    0.6905 C.ar    1  LIG1        0.0925
      5 N           0.4340   -0.2687    1.1070 N.ar    1  LIG1       -0.3546
      6 H           0.4611   -1.1991    1.4900 H       1  LIG1        0.1656
      7 H           2.4560    0.3243    1.4772 H       1  LIG1        0.0845
      8 O           1.6264    3.0273    0.5728 O.3     1  LIG1       -0.4900
      9 C           2.9966    3.0107    0.9174 C.3     1  LIG1        0.0790
     10 H           3.3724    4.0157    0.7462 H       1  LIG1        0.0660
     11 H           3.1203    2.7405    1.9699 H       1  LIG1        0.0660
     12 H           3.5383    2.2978    0.2885 H       1  LIG1        0.0660
     13 O          -1.2535    2.6388    0.0226 O.3     1  LIG1       -0.4895
     14 C          -0.9929    3.0416   -1.3208 C.3     1  LIG1        0.0791
     15 H          -1.7053    3.8307   -1.5499 H       1  LIG1        0.0660
     16 H           0.0276    3.4181   -1.4040 H       1  LIG1        0.0660
     17 H          -1.1381    2.1941   -1.9944 H       1  LIG1        0.0660
     18 C          -3.2020    0.3351    0.6260 C.ar    1  LIG1       -0.0517
     19 C          -4.3899   -0.3558    0.4759 C.ar    1  LIG1       -0.0486
     20 C          -1.9910   -0.3630    0.5226 C.ar    1  LIG1        0.0038
     21 C          -4.4182   -1.7361    0.2214 C.ar    1  LIG1        0.0416
     22 H          -5.3352    0.1646    0.5600 H       1  LIG1        0.0625
     23 C          -2.0052   -1.7288    0.2620 C.ar    1  LIG1       -0.0311
     24 C          -3.2022   -2.4434    0.1129 C.ar    1  LIG1        0.0361
     25 H          -1.0722   -2.2673    0.1374 H       1  LIG1        0.0643
     26 H          -3.1907    1.3968    0.8267 H       1  LIG1        0.0624
     27 N          -3.1341   -3.8112   -0.1071 N.pl3   1  LIG1       -0.3574
     28 H          -3.9653   -4.2629   -0.4541 H       1  LIG1        0.1423
     29 H          -2.2762   -4.1369   -0.5248 H       1  LIG1        0.1423
     30 C          -5.7304   -2.3692    0.0359 C.ar    1  LIG1        0.1801
     31 C          -6.9693   -1.8557   -0.2166 C.ar    1  LIG1        0.1817
     32 C          -7.8846   -2.9665   -0.3202 C.ar    1  LIG1        0.1127
     33 C          -7.1259   -4.0837   -0.1241 C.ar    1  LIG1        0.1560
     34 O          -5.8429   -3.7242    0.1037 O.2     1  LIG1       -0.4497
     35 O          -7.3096   -0.5498   -0.3425 O.3     1  LIG1       -0.4901
     36 C          -7.4696   -0.1383   -1.7051 C.3     1  LIG1        0.0790
     37 H          -7.7731    0.9046   -1.6713 H       1  LIG1        0.0660
     38 H          -6.5198   -0.2427   -2.2326 H       1  LIG1        0.0660
     39 H          -8.2402   -0.7414   -2.1874 H       1  LIG1        0.0660
     40 C          -9.2986   -2.8683   -0.5012 C.1     1  LIG1       -0.0622
     41 C         -10.4851   -2.7665   -0.6560 C.1     1  LIG1       -0.1137
     42 H         -11.5374   -2.6888   -0.8033 H       1  LIG1        0.1232
     43 C          -8.2670   -6.1804   -0.9319 C.ar    1  LIG1        0.0630
     44 C          -8.4990   -7.5489   -0.7947 C.ar    1  LIG1       -0.0357
     45 C          -7.4140   -5.5217   -0.0384 C.ar    1  LIG1        0.0362
     46 C          -7.8736   -8.2823    0.2111 C.ar    1  LIG1       -0.0137
     47 H          -9.1445   -8.0502   -1.5043 H       1  LIG1        0.0637
     48 C          -6.7940   -6.2673    0.9662 C.ar    1  LIG1       -0.0463
     49 C          -7.0074   -7.6361    1.1105 C.ar    1  LIG1       -0.0420
     50 H          -6.1388   -5.7511    1.6577 H       1  LIG1        0.0628
     51 N          -9.3062   -5.0133   -3.0038 N.1     1  LIG1       -0.1908
     52 C          -8.8509   -5.4990   -2.0689 C.1     1  LIG1        0.0999
     53 C          -6.3271   -8.3795    2.2467 C.3     1  LIG1       -0.0391
     54 H          -6.1072   -7.6870    3.0582 H       1  LIG1        0.0278
     55 H          -5.3872   -8.8203    1.9090 H       1  LIG1        0.0278
     56 H          -6.9660   -9.1791    2.6198 H       1  LIG1        0.0278
     57 C          -9.4320  -10.2359    0.4563 C.ar    1  LIG1       -0.0534
     58 C          -9.6830  -11.6026    0.4991 C.ar    1  LIG1       -0.0505
     59 C          -8.1325   -9.7531    0.2877 C.ar    1  LIG1       -0.0176
     60 C          -8.6253  -12.5074    0.3747 C.ar    1  LIG1        0.0185
     61 H         -10.6929  -11.9661    0.6277 H       1  LIG1        0.0625
     62 C          -7.0808  -10.6648    0.1564 C.ar    1  LIG1       -0.0534
     63 C          -7.3216  -12.0301    0.2002 C.ar    1  LIG1       -0.0505
     64 H          -6.0738  -10.2997   -0.0002 H       1  LIG1        0.0624
     65 H         -10.2499   -9.5341    0.5608 H       1  LIG1        0.0624
     66 H          -6.5033  -12.7295    0.0964 H       1  LIG1        0.0625
     67 C          -8.8613  -13.9566    0.4155 C.ar    1  LIG1        0.1510
     68 C          -9.9339  -14.7461    0.7442 C.ar    1  LIG1        0.0709
     69 C          -9.5030  -16.1082    0.5828 C.ar    1  LIG1        0.0003
     70 C          -8.2077  -16.0464    0.1727 C.ar    1  LIG1        0.1382
     71 O          -7.8271  -14.7475    0.0740 O.2     1  LIG1       -0.4535
     72 C         -11.2329  -14.3347    1.1839 C.1     1  LIG1       -0.0658
     73 C         -12.3313  -14.0212    1.5570 C.1     1  LIG1       -0.1138
     74 H         -13.3046  -13.7482    1.8941 H       1  LIG1        0.1232
     75 H         -10.1038  -16.9827    0.7605 H       1  LIG1        0.0668
     76 C          -7.3442  -18.4148   -0.0772 C.ar    1  LIG1        0.0631
     77 C          -6.3192  -19.3023   -0.4022 C.ar    1  LIG1       -0.0347
     78 C          -7.1686  -17.0248   -0.1726 C.ar    1  LIG1        0.0359
     79 C          -5.0770  -18.8431   -0.8308 C.ar    1  LIG1        0.0011
     80 H          -6.4992  -20.3667   -0.3280 H       1  LIG1        0.0637
     81 C          -5.9284  -16.5617   -0.6149 C.ar    1  LIG1       -0.0319
     82 C          -4.9090  -17.4545   -0.9336 C.ar    1  LIG1        0.0602
     83 H          -5.7559  -15.4988   -0.7071 H       1  LIG1        0.0638
     84 N          -9.5854  -19.4685    0.6996 N.1     1  LIG1       -0.1908
     85 C          -8.6004  -18.9874    0.3592 C.1     1  LIG1        0.0999
     86 N          -2.6552  -16.4283   -1.7212 N.1     1  LIG1       -0.1908
     87 C          -3.6402  -16.9016   -1.3717 C.1     1  LIG1        0.0998
     88 C          -3.4752  -20.6781   -0.2079 C.ar    1  LIG1       -0.0425
     89 C          -2.4608  -21.5552   -0.6052 C.ar    1  LIG1       -0.0548
     90 C          -3.9830  -19.8017   -1.1733 C.ar    1  LIG1       -0.0103
     91 C          -1.9637  -21.5689   -1.8989 C.ar    1  LIG1       -0.0199
     92 H          -2.0444  -22.2378    0.1258 H       1  LIG1        0.0622
     93 C          -3.4876  -19.7983   -2.4797 C.ar    1  LIG1       -0.0122
     94 C          -2.4759  -20.6794   -2.8420 C.ar    1  LIG1        0.1175
     95 H          -3.8986  -19.1092   -3.2097 H       1  LIG1        0.0660
     96 H          -1.1748  -22.2448   -2.1984 H       1  LIG1        0.0654
     97 C          -3.9634  -20.6852    1.2318 C.3     1  LIG1       -0.0391
     98 H          -3.1814  -21.0818    1.8786 H       1  LIG1        0.0278
     99 H          -4.8480  -21.3150    1.3472 H       1  LIG1        0.0278
    100 H          -4.2128  -19.6781    1.5664 H       1  LIG1        0.0278
    101 O          -1.9553  -20.7253   -4.0969 O.3     1  LIG1       -0.5067
    102 H          -2.3236  -20.0256   -4.6463 H       1  LIG1        0.2921
@<TRIPOS>BOND
     1   102   101    1
     2   101    94    1
     3    95    93    1
     4    51    52    3
     5    94    93   ar
     6    94    91   ar
     7    93    90   ar
     8    38    36    1
     9    96    91    1
    10    39    36    1
    11    52    43    1
    12    17    14    1
    13    91    89   ar
    14    86    87    3
    15    36    37    1
    16    36    35    1
    17    15    14    1
    18    47    44    1
    19    16    14    1
    20    87    82    1
    21    14    13    1
    22    90    79    1
    23    90    88   ar
    24    82    79   ar
    25    82    81   ar
    26    43    44   ar
    27    43    45   ar
    28    79    77   ar
    29    42    41    1
    30    44    46   ar
    31    83    81    1
    32    41    40    3
    33    81    78   ar
    34    89    88   ar
    35    89    92    1
    36    29    27    1
    37    40    32    1
    38    28    27    1
    39    77    80    1
    40    77    76   ar
    41    35    31    1
    42    32    31   ar
    43    32    33   ar
    44    31    30   ar
    45    88    97    1
    46    78    76   ar
    47    78    70    1
    48    33    45    1
    49    33    34   ar
    50    27    24    1
    51    76    85    1
    52    45    48   ar
    53    64    62    1
    54    13     3    1
    55    30    34   ar
    56    30    21    1
    57    71    70   ar
    58    71    67   ar
    59    66    63    1
    60    24    21   ar
    61    24    23   ar
    62    25    23    1
    63    62    63   ar
    64    62    59   ar
    65    70    69   ar
    66    63    60   ar
    67    46    59    1
    68    46    49   ar
    69    21    19   ar
    70    23    20   ar
    71    59    57   ar
    72    12     9    1
    73    85    84    3
    74    60    67    1
    75    60    58   ar
    76    67    68   ar
    77    57    58   ar
    78    57    65    1
    79     3     4   ar
    80     3     2   ar
    81    19    22    1
    82    19    18   ar
    83    58    61    1
    84    20    18   ar
    85    20     4    1
    86     8     2    1
    87     8     9    1
    88    69    68   ar
    89    69    75    1
    90    18    26    1
    91     4     5   ar
    92     2     1   ar
    93    68    72    1
    94    10     9    1
    95     9    11    1
    96    48    49   ar
    97    48    50    1
    98     5     1   ar
    99     5     6    1
   100    49    53    1
   101     1     7    1
   102    72    73    3
   103    97    99    1
   104    97   100    1
   105    97    98    1
   106    73    74    1
   107    55    53    1
   108    53    56    1
   109    53    54    1
