@<TRIPOS>MOLECULE
mol_data/opt/m06hf/geoms/mol2/13ll13ll-13ll-13ll.out
 66 69 0 0 0
SMALL
GASTEIGER

@<TRIPOS>ATOM
      1 C           5.7876    1.3064    0.3984 C.ar    1  LIG1        0.0482
      2 C           4.9416    2.3237    0.0077 C.ar    1  LIG1        0.1795
      3 C           3.6405    1.7609   -0.1302 C.ar    1  LIG1        0.1884
      4 C           3.7418    0.4239    0.1763 C.ar    1  LIG1        0.1126
      5 N           5.0372    0.1637    0.4997 N.ar    1  LIG1       -0.3534
      6 H           5.3457   -0.7510    0.7946 H       1  LIG1        0.1656
      7 H           6.8405    1.3093    0.6136 H       1  LIG1        0.0845
      8 O           5.2132    3.6345   -0.2349 O.3     1  LIG1       -0.4900
      9 C           6.5557    4.0101   -0.0021 C.3     1  LIG1        0.0790
     10 H           6.6250    5.0720   -0.2222 H       1  LIG1        0.0660
     11 H           6.8238    3.8257    1.0420 H       1  LIG1        0.0660
     12 H           7.2268    3.4491   -0.6592 H       1  LIG1        0.0660
     13 O           2.4715    2.3828   -0.4853 O.3     1  LIG1       -0.4895
     14 C           2.5261    2.9789   -1.7834 C.3     1  LIG1        0.0791
     15 H           1.5505    3.4268   -1.9576 H       1  LIG1        0.0660
     16 H           3.3043    3.7421   -1.8044 H       1  LIG1        0.0660
     17 H           2.7322    2.2112   -2.5321 H       1  LIG1        0.0660
     18 C           2.7048   -0.5870    0.2017 C.ar    1  LIG1        0.1131
     19 C           2.7936   -1.9437    0.4100 C.ar    1  LIG1        0.1891
     20 C           1.4795   -2.4765    0.3147 C.ar    1  LIG1        0.1891
     21 C           0.6207   -1.4169    0.0621 C.ar    1  LIG1        0.1131
     22 N           1.3896   -0.2837    0.0068 N.ar    1  LIG1       -0.3458
     23 H           1.0973    0.6568   -0.2237 H       1  LIG1        0.1662
     24 O           3.9582   -2.6175    0.6654 O.3     1  LIG1       -0.4895
     25 C           4.2687   -3.5803   -0.3448 C.3     1  LIG1        0.0791
     26 H           5.1919   -4.0650   -0.0349 H       1  LIG1        0.0660
     27 H           3.4613   -4.3092   -0.4171 H       1  LIG1        0.0660
     28 H           4.4077   -3.0755   -1.3031 H       1  LIG1        0.0660
     29 O           1.1664   -3.7996    0.4307 O.3     1  LIG1       -0.4895
     30 C           0.5359   -4.1343    1.6666 C.3     1  LIG1        0.0791
     31 H           0.3105   -5.1969    1.6138 H       1  LIG1        0.0660
     32 H           1.2174   -3.9258    2.4938 H       1  LIG1        0.0660
     33 H          -0.3888   -3.5677    1.7784 H       1  LIG1        0.0660
     34 C          -0.8283   -1.3767   -0.0896 C.ar    1  LIG1        0.1131
     35 C          -1.7418   -2.3813   -0.3717 C.ar    1  LIG1        0.1891
     36 C          -3.0269   -1.7782   -0.4417 C.ar    1  LIG1        0.1891
     37 C          -2.8674   -0.4352   -0.1915 C.ar    1  LIG1        0.1131
     38 N          -1.5371   -0.2069    0.0064 N.ar    1  LIG1       -0.3458
     39 H          -1.1899    0.7092    0.2558 H       1  LIG1        0.1662
     40 O          -1.5014   -3.7146   -0.5323 O.3     1  LIG1       -0.4895
     41 C          -0.8776   -4.0393   -1.7743 C.3     1  LIG1        0.0791
     42 H          -0.7225   -5.1157   -1.7636 H       1  LIG1        0.0660
     43 H          -1.5334   -3.7529   -2.5987 H       1  LIG1        0.0660
     44 H           0.0834   -3.5308   -1.8522 H       1  LIG1        0.0660
     45 O          -4.2271   -2.3824   -0.7067 O.3     1  LIG1       -0.4895
     46 C          -4.5755   -3.3612    0.2757 C.3     1  LIG1        0.0791
     47 H          -5.5195   -3.7970   -0.0439 H       1  LIG1        0.0660
     48 H          -3.7996   -4.1256    0.3215 H       1  LIG1        0.0660
     49 H          -4.6890   -2.8797    1.2492 H       1  LIG1        0.0660
     50 C          -3.8528    0.6239   -0.1244 C.ar    1  LIG1        0.1126
     51 C          -3.6917    1.9438    0.2280 C.ar    1  LIG1        0.1884
     52 C          -4.9703    2.5653    0.1373 C.ar    1  LIG1        0.1795
     53 C          -5.8615    1.6023   -0.2747 C.ar    1  LIG1        0.0482
     54 N          -5.1684    0.4335   -0.4256 N.ar    1  LIG1       -0.3534
     55 H          -5.5243   -0.4611   -0.7307 H       1  LIG1        0.1656
     56 H          -6.9178    1.6789   -0.4581 H       1  LIG1        0.0845
     57 O          -2.4998    2.5175    0.5991 O.3     1  LIG1       -0.4895
     58 C          -2.5040    2.9336    1.9689 C.3     1  LIG1        0.0791
     59 H          -1.5437    3.4106    2.1508 H       1  LIG1        0.0660
     60 H          -3.3207    3.6374    2.1371 H       1  LIG1        0.0660
     61 H          -2.6264    2.0612    2.6146 H       1  LIG1        0.0660
     62 O          -5.2529    3.8702    0.4282 O.3     1  LIG1       -0.4900
     63 C          -4.5868    4.7817   -0.4438 C.3     1  LIG1        0.0790
     64 H          -4.8640    5.7807   -0.1150 H       1  LIG1        0.0660
     65 H          -3.5053    4.6456   -0.3763 H       1  LIG1        0.0660
     66 H          -4.9147    4.6172   -1.4722 H       1  LIG1        0.0660
@<TRIPOS>BOND
     1    43    41    1
     2    17    14    1
     3    15    14    1
     4    44    41    1
     5    16    14    1
     6    14    13    1
     7    41    42    1
     8    41    40    1
     9    66    63    1
    10    28    25    1
    11    55    54    1
    12    45    36    1
    13    45    46    1
    14    12     9    1
    15    40    35    1
    16    13     3    1
    17    56    53    1
    18    63    65    1
    19    63    64    1
    20    63    62    1
    21    36    35   ar
    22    36    37   ar
    23    54    53   ar
    24    54    50   ar
    25    27    25    1
    26    35    34   ar
    27    25    26    1
    28    25    24    1
    29    53    52   ar
    30     8     9    1
    31     8     2    1
    32    23    22    1
    33    10     9    1
    34    37    50    1
    35    37    38   ar
    36     3     2   ar
    37     3     4   ar
    38    50    51   ar
    39    34    38   ar
    40    34    21    1
    41    47    46    1
    42     9    11    1
    43    38    39    1
    44    22    21   ar
    45    22    18   ar
    46     2     1   ar
    47    21    20   ar
    48    52    51   ar
    49    52    62    1
    50     4    18    1
    51     4     5   ar
    52    18    19   ar
    53    51    57    1
    54    46    48    1
    55    46    49    1
    56    20    19   ar
    57    20    29    1
    58     1     5   ar
    59     1     7    1
    60    19    24    1
    61    29    30    1
    62     5     6    1
    63    57    58    1
    64    31    30    1
    65    30    33    1
    66    30    32    1
    67    58    60    1
    68    58    59    1
    69    58    61    1
