@<TRIPOS>MOLECULE
mol_data/opt/m06hf/geoms/mol2/13ll13ll13ll13ll-.out
 66 69 0 0 0
SMALL
GASTEIGER

@<TRIPOS>ATOM
      1 C           1.4825   -0.0665    0.4826 C.ar    1  LIG1        0.0482
      2 C           1.2117    0.9666   -0.3860 C.ar    1  LIG1        0.1795
      3 C          -0.1999    1.0038   -0.5798 C.ar    1  LIG1        0.1884
      4 C          -0.7520   -0.0030    0.1797 C.ar    1  LIG1        0.1126
      5 N           0.2819   -0.6398    0.8140 N.ar    1  LIG1       -0.3534
      6 H           0.1497   -1.3736    1.4903 H       1  LIG1        0.1656
      7 H           2.4104   -0.4284    0.8865 H       1  LIG1        0.0845
      8 O           2.0551    1.8260   -1.0131 O.3     1  LIG1       -0.4900
      9 C           3.4202    1.6646   -0.6855 C.3     1  LIG1        0.0790
     10 H           3.9637    2.4259   -1.2380 H       1  LIG1        0.0660
     11 H           3.5720    1.8047    0.3887 H       1  LIG1        0.0660
     12 H           3.7682    0.6699   -0.9799 H       1  LIG1        0.0660
     13 O          -0.8811    1.8893   -1.3586 O.3     1  LIG1       -0.4895
     14 C          -0.6986    1.6672   -2.7561 C.3     1  LIG1        0.0791
     15 H          -1.2819    2.4296   -3.2663 H       1  LIG1        0.0660
     16 H           0.3573    1.7619   -3.0130 H       1  LIG1        0.0660
     17 H          -1.0640    0.6729   -3.0217 H       1  LIG1        0.0660
     18 C          -2.1356   -0.4675    0.3135 C.ar    1  LIG1        0.1131
     19 C          -3.3241    0.1221    0.6936 C.ar    1  LIG1        0.1891
     20 C          -4.3502   -0.8654    0.5641 C.ar    1  LIG1        0.1891
     21 C          -3.7652   -2.0323    0.1321 C.ar    1  LIG1        0.1131
     22 N          -2.4247   -1.7877   -0.0038 N.ar    1  LIG1       -0.3458
     23 H          -1.8094   -2.3450   -0.5773 H       1  LIG1        0.1662
     24 O          -3.6189    1.3450    1.1822 O.3     1  LIG1       -0.4895
     25 C          -2.5351    2.2372    1.4078 C.3     1  LIG1        0.0791
     26 H          -2.9698    3.1076    1.8932 H       1  LIG1        0.0660
     27 H          -1.7948    1.7726    2.0647 H       1  LIG1        0.0660
     28 H          -2.0716    2.5188    0.4615 H       1  LIG1        0.0660
     29 O          -5.6689   -0.6744    0.8324 O.3     1  LIG1       -0.4895
     30 C          -5.9808   -0.7422    2.2214 C.3     1  LIG1        0.0791
     31 H          -7.0509   -0.5675    2.3043 H       1  LIG1        0.0660
     32 H          -5.7322   -1.7327    2.6083 H       1  LIG1        0.0660
     33 H          -5.4286    0.0278    2.7625 H       1  LIG1        0.0660
     34 C          -4.3396   -3.3473   -0.1214 C.ar    1  LIG1        0.1131
     35 C          -5.6185   -3.7453   -0.4809 C.ar    1  LIG1        0.1891
     36 C          -5.5902   -5.1606   -0.6225 C.ar    1  LIG1        0.1891
     37 C          -4.3133   -5.5836   -0.3350 C.ar    1  LIG1        0.1131
     38 N          -3.5667   -4.4794   -0.0522 N.ar    1  LIG1       -0.3458
     39 H          -2.6094   -4.5481    0.2646 H       1  LIG1        0.1662
     40 O          -6.7357   -2.9897   -0.6624 O.3     1  LIG1       -0.4895
     41 C          -6.6503   -2.0516   -1.7340 C.3     1  LIG1        0.0791
     42 H          -7.6252   -1.5737   -1.7950 H       1  LIG1        0.0660
     43 H          -5.8885   -1.3022   -1.5212 H       1  LIG1        0.0660
     44 H          -6.4250   -2.5772   -2.6639 H       1  LIG1        0.0660
     45 O          -6.6123   -5.9907   -0.9960 O.3     1  LIG1       -0.4895
     46 C          -7.7242   -5.9460   -0.0975 C.3     1  LIG1        0.0791
     47 H          -8.4760   -6.6173   -0.5065 H       1  LIG1        0.0660
     48 H          -7.4096   -6.2854    0.8919 H       1  LIG1        0.0660
     49 H          -8.1105   -4.9285   -0.0420 H       1  LIG1        0.0660
     50 C          -3.7612   -6.9225   -0.3080 C.ar    1  LIG1        0.1126
     51 C          -2.5189   -7.3441    0.1052 C.ar    1  LIG1        0.1884
     52 C          -2.4734   -8.7567   -0.0700 C.ar    1  LIG1        0.1795
     53 C          -3.6909   -9.1433   -0.5904 C.ar    1  LIG1        0.0482
     54 N          -4.4539   -8.0132   -0.7314 N.ar    1  LIG1       -0.3534
     55 H          -5.3885   -7.9427   -1.1072 H       1  LIG1        0.1656
     56 H          -4.0617  -10.1119   -0.8728 H       1  LIG1        0.0845
     57 O          -1.5367   -6.5187    0.5912 O.3     1  LIG1       -0.4895
     58 C          -1.2114   -6.8024    1.9535 C.3     1  LIG1        0.0791
     59 H          -0.4119   -6.1185    2.2303 H       1  LIG1        0.0660
     60 H          -2.0891   -6.6370    2.5828 H       1  LIG1        0.0660
     61 H          -0.8740   -7.8351    2.0435 H       1  LIG1        0.0660
     62 O          -1.3869   -9.5071    0.2574 O.3     1  LIG1       -0.4900
     63 C          -1.5218  -10.8873   -0.0152 C.3     1  LIG1        0.0790
     64 H          -0.5867  -11.3563    0.2792 H       1  LIG1        0.0660
     65 H          -2.3492  -11.3096    0.5627 H       1  LIG1        0.0660
     66 H          -1.7003  -11.0463   -1.0824 H       1  LIG1        0.0660
@<TRIPOS>BOND
     1    15    14    1
     2    17    14    1
     3    16    14    1
     4    14    13    1
     5    44    41    1
     6    42    41    1
     7    41    43    1
     8    41    40    1
     9    13     3    1
    10    10     9    1
    11    55    54    1
    12    66    63    1
    13     8     9    1
    14     8     2    1
    15    45    36    1
    16    45    46    1
    17    12     9    1
    18    56    53    1
    19    54    53   ar
    20    54    50   ar
    21     9    11    1
    22    40    35    1
    23    36    35   ar
    24    36    37   ar
    25    53    52   ar
    26     3     2   ar
    27     3     4   ar
    28    23    22    1
    29    47    46    1
    30    35    34   ar
    31     2     1   ar
    32    37    50    1
    33    37    38   ar
    34    50    51   ar
    35    34    38   ar
    36    34    21    1
    37    46    49    1
    38    46    48    1
    39    52    51   ar
    40    52    62    1
    41    38    39    1
    42    63    62    1
    43    63    64    1
    44    63    65    1
    45    22    21   ar
    46    22    18   ar
    47    51    57    1
    48    21    20   ar
    49     4    18    1
    50     4     5   ar
    51    18    19   ar
    52    28    25    1
    53     1     5   ar
    54     1     7    1
    55    20    19   ar
    56    20    29    1
    57    57    58    1
    58    19    24    1
    59     5     6    1
    60    29    30    1
    61    24    25    1
    62    25    26    1
    63    25    27    1
    64    58    61    1
    65    58    59    1
    66    58    60    1
    67    30    31    1
    68    30    32    1
    69    30    33    1
