@<TRIPOS>MOLECULE
mol_data/opt/m06hf/geoms/mol2/13ll13ll.out
 34 35 0 0 0
SMALL
GASTEIGER

@<TRIPOS>ATOM
      1 C           1.1883   -0.2409   -0.8495 C.ar    1  LIG1        0.0482
      2 C           1.0331    1.0208   -0.3182 C.ar    1  LIG1        0.1795
      3 C          -0.3069    1.1201    0.1557 C.ar    1  LIG1        0.1884
      4 C          -0.9299   -0.0808   -0.0965 C.ar    1  LIG1        0.1126
      5 N          -0.0095   -0.8891   -0.7087 N.ar    1  LIG1       -0.3534
      6 H          -0.2238   -1.8112   -1.0505 H       1  LIG1        0.1656
      7 H           2.0366   -0.7166   -1.3079 H       1  LIG1        0.0845
      8 O           1.9277    2.0372   -0.2083 O.3     1  LIG1       -0.4900
      9 C           3.2030    1.7596   -0.7498 C.3     1  LIG1        0.0790
     10 H           3.8037    2.6535   -0.6050 H       1  LIG1        0.0660
     11 H           3.6621    0.9135   -0.2303 H       1  LIG1        0.0660
     12 H           3.1206    1.5346   -1.8172 H       1  LIG1        0.0660
     13 O          -0.8891    2.2220    0.7044 O.3     1  LIG1       -0.4895
     14 C          -0.4432    2.4950    2.0302 C.3     1  LIG1        0.0791
     15 H          -0.9589    3.3974    2.3497 H       1  LIG1        0.0660
     16 H          -0.7040    1.6608    2.6858 H       1  LIG1        0.0660
     17 H           0.6362    2.6546    2.0365 H       1  LIG1        0.0660
     18 C          -2.2954   -0.5378    0.1935 C.ar    1  LIG1        0.1126
     19 C          -3.5245   -0.2942   -0.3899 C.ar    1  LIG1        0.1884
     20 C          -4.4922   -1.0716    0.3165 C.ar    1  LIG1        0.1795
     21 C          -3.8313   -1.7590    1.3034 C.ar    1  LIG1        0.0482
     22 N          -2.5116   -1.4419    1.2131 N.ar    1  LIG1       -0.3534
     23 H          -1.7863   -1.7431    1.8419 H       1  LIG1        0.1656
     24 H          -4.2180   -2.4459    2.0350 H       1  LIG1        0.0845
     25 O          -3.8738    0.4941   -1.4350 O.3     1  LIG1       -0.4895
     26 C          -2.8890    1.4045   -1.9062 C.3     1  LIG1        0.0791
     27 H          -3.3863    2.0134   -2.6578 H       1  LIG1        0.0660
     28 H          -2.5228    2.0256   -1.0858 H       1  LIG1        0.0660
     29 H          -2.0540    0.8636   -2.3584 H       1  LIG1        0.0660
     30 O          -5.8256   -1.1476    0.0448 O.3     1  LIG1       -0.4900
     31 C          -6.5035    0.0974    0.1943 C.3     1  LIG1        0.0790
     32 H          -7.5484   -0.0931   -0.0409 H       1  LIG1        0.0660
     33 H          -6.4083    0.4512    1.2238 H       1  LIG1        0.0660
     34 H          -6.0892    0.8353   -0.4927 H       1  LIG1        0.0660
@<TRIPOS>BOND
     1    27    26    1
     2    29    26    1
     3    26    25    1
     4    26    28    1
     5    12     9    1
     6    25    19    1
     7     7     1    1
     8     6     5    1
     9     1     5   ar
    10     1     2   ar
    11     9    10    1
    12     9    11    1
    13     9     8    1
    14     5     4   ar
    15    34    31    1
    16    19    18   ar
    17    19    20   ar
    18     2     8    1
    19     2     3   ar
    20     4     3   ar
    21     4    18    1
    22    32    31    1
    23    30    31    1
    24    30    20    1
    25     3    13    1
    26    18    22   ar
    27    31    33    1
    28    20    21   ar
    29    13    14    1
    30    22    21   ar
    31    22    23    1
    32    21    24    1
    33    14    17    1
    34    14    15    1
    35    14    16    1
