@<TRIPOS>MOLECULE
mol_data/opt/m06hf/geoms/mol2/13ll13ll13ll-13ll-.out
 66 69 0 0 0
SMALL
GASTEIGER

@<TRIPOS>ATOM
      1 C           1.1024    0.0792   -1.2828 C.ar    1  LIG1        0.0482
      2 C           0.8983    1.0037   -0.2815 C.ar    1  LIG1        0.1795
      3 C          -0.4498    0.8637    0.1574 C.ar    1  LIG1        0.1884
      4 C          -1.0287   -0.1413   -0.5846 C.ar    1  LIG1        0.1126
      5 N          -0.0739   -0.6015   -1.4506 N.ar    1  LIG1       -0.3534
      6 H          -0.2501   -1.3072   -2.1461 H       1  LIG1        0.1656
      7 H           1.9710   -0.1425   -1.8764 H       1  LIG1        0.0845
      8 O           1.7582    1.9037    0.2602 O.3     1  LIG1       -0.4900
      9 C           3.0427    1.9135   -0.3276 C.3     1  LIG1        0.0790
     10 H           3.6119    2.6880    0.1793 H       1  LIG1        0.0660
     11 H           3.5312    0.9438   -0.1925 H       1  LIG1        0.0660
     12 H           2.9705    2.1429   -1.3947 H       1  LIG1        0.0660
     13 O          -1.0650    1.6156    1.1124 O.3     1  LIG1       -0.4895
     14 C          -0.7582    1.1940    2.4397 C.3     1  LIG1        0.0791
     15 H          -1.2817    1.8728    3.1088 H       1  LIG1        0.0660
     16 H          -1.1072    0.1705    2.5914 H       1  LIG1        0.0660
     17 H           0.3185    1.2539    2.6090 H       1  LIG1        0.0660
     18 C          -2.3739   -0.7274   -0.5318 C.ar    1  LIG1        0.1131
     19 C          -3.6277   -0.2718   -0.9090 C.ar    1  LIG1        0.1891
     20 C          -4.5532   -1.3176   -0.6353 C.ar    1  LIG1        0.1891
     21 C          -3.8441   -2.3751   -0.1124 C.ar    1  LIG1        0.1131
     22 N          -2.5403   -2.0088   -0.0481 N.ar    1  LIG1       -0.3458
     23 H          -1.8261   -2.5832    0.3792 H       1  LIG1        0.1662
     24 O          -4.0288    0.8923   -1.4731 O.3     1  LIG1       -0.4895
     25 C          -3.0774    1.9494   -1.5131 C.3     1  LIG1        0.0791
     26 H          -3.6101    2.8081   -1.9144 H       1  LIG1        0.0660
     27 H          -2.7048    2.1609   -0.5090 H       1  LIG1        0.0660
     28 H          -2.2437    1.6866   -2.1686 H       1  LIG1        0.0660
     29 O          -5.9078   -1.3170   -0.8392 O.3     1  LIG1       -0.4895
     30 C          -6.2604   -1.2198   -2.2204 C.3     1  LIG1        0.0791
     31 H          -7.3470   -1.1868   -2.2593 H       1  LIG1        0.0660
     32 H          -5.8374   -0.3091   -2.6443 H       1  LIG1        0.0660
     33 H          -5.8872   -2.0956   -2.7569 H       1  LIG1        0.0660
     34 C          -4.3243   -3.6684    0.3321 C.ar    1  LIG1        0.1131
     35 C          -3.6164   -4.7581    0.7856 C.ar    1  LIG1        0.1891
     36 C          -4.5543   -5.7852    1.0879 C.ar    1  LIG1        0.1891
     37 C          -5.8155   -5.2820    0.8070 C.ar    1  LIG1        0.1131
     38 N          -5.6409   -3.9906    0.3574 N.ar    1  LIG1       -0.3458
     39 H          -6.3693   -3.3540    0.0625 H       1  LIG1        0.1662
     40 O          -2.2547   -4.7957    0.9259 O.3     1  LIG1       -0.4895
     41 C          -1.6404   -5.7854    0.0994 C.3     1  LIG1        0.0791
     42 H          -0.5741   -5.7474    0.3135 H       1  LIG1        0.0660
     43 H          -2.0413   -6.7689    0.3436 H       1  LIG1        0.0660
     44 H          -1.8259   -5.5539   -0.9525 H       1  LIG1        0.0660
     45 O          -4.1504   -6.9881    1.5626 O.3     1  LIG1       -0.4895
     46 C          -5.1535   -7.9795    1.7434 C.3     1  LIG1        0.0791
     47 H          -4.6342   -8.8551    2.1255 H       1  LIG1        0.0660
     48 H          -5.8969   -7.6397    2.4686 H       1  LIG1        0.0660
     49 H          -5.6405   -8.2052    0.7926 H       1  LIG1        0.0660
     50 C          -7.1729   -5.8259    0.9352 C.ar    1  LIG1        0.1126
     51 C          -7.8299   -6.7926    0.2086 C.ar    1  LIG1        0.1884
     52 C          -9.1518   -6.9012    0.7291 C.ar    1  LIG1        0.1795
     53 C          -9.2623   -5.9944    1.7608 C.ar    1  LIG1        0.0482
     54 N          -8.0548   -5.3581    1.8712 N.ar    1  LIG1       -0.3534
     55 H          -7.8157   -4.6695    2.5658 H       1  LIG1        0.1656
     56 H         -10.0842   -5.7589    2.4125 H       1  LIG1        0.0845
     57 O          -7.2964   -7.5344   -0.8022 O.3     1  LIG1       -0.4895
     58 C          -7.7909   -7.1598   -2.0854 C.3     1  LIG1        0.0791
     59 H          -7.3127   -7.8187   -2.8063 H       1  LIG1        0.0660
     60 H          -8.8743   -7.2877   -2.1183 H       1  LIG1        0.0660
     61 H          -7.5269   -6.1202   -2.2916 H       1  LIG1        0.0660
     62 O         -10.0735   -7.7599    0.2207 O.3     1  LIG1       -0.4900
     63 C         -11.3292   -7.7258    0.8679 C.3     1  LIG1        0.0790
     64 H         -11.9544   -8.4651    0.3747 H       1  LIG1        0.0660
     65 H         -11.2178   -7.9794    1.9263 H       1  LIG1        0.0660
     66 H         -11.7791   -6.7330    0.7733 H       1  LIG1        0.0660
@<TRIPOS>BOND
     1    59    58    1
     2    33    30    1
     3    32    30    1
     4    61    58    1
     5    31    30    1
     6    30    29    1
     7    28    25    1
     8     6     5    1
     9    60    58    1
    10    58    57    1
    11    26    25    1
    12     7     1    1
    13    25    24    1
    14    25    27    1
    15    24    19    1
    16     5     1   ar
    17     5     4   ar
    18    12     9    1
    19     1     2   ar
    20    44    41    1
    21    19    20   ar
    22    19    18   ar
    23    29    20    1
    24    57    51    1
    25    20    21   ar
    26     4    18    1
    27     4     3   ar
    28    18    22   ar
    29     9    11    1
    30     9    10    1
    31     9     8    1
    32     2     3   ar
    33     2     8    1
    34    21    22   ar
    35    21    34    1
    36    22    23    1
    37    39    38    1
    38    41    42    1
    39    41    43    1
    40    41    40    1
    41     3    13    1
    42    51    52   ar
    43    51    50   ar
    44    62    52    1
    45    62    63    1
    46    34    38   ar
    47    34    35   ar
    48    38    37   ar
    49    64    63    1
    50    52    53   ar
    51    66    63    1
    52    35    40    1
    53    35    36   ar
    54    49    46    1
    55    37    50    1
    56    37    36   ar
    57    63    65    1
    58    50    54   ar
    59    36    45    1
    60    13    14    1
    61    45    46    1
    62    46    47    1
    63    46    48    1
    64    53    54   ar
    65    53    56    1
    66    54    55    1
    67    14    16    1
    68    14    17    1
    69    14    15    1
