@<TRIPOS>MOLECULE
mol_data/opt/m06hf/geoms/mol2/13ll13ll-.out
 34 35 0 0 0
SMALL
GASTEIGER

@<TRIPOS>ATOM
      1 C           1.1964   -0.4708   -0.0001 C.ar    1  LIG1        0.0482
      2 C           0.8658    0.8705    0.0000 C.ar    1  LIG1        0.1795
      3 C          -0.5589    0.9520    0.0004 C.ar    1  LIG1        0.1884
      4 C          -1.0355   -0.3399    0.0005 C.ar    1  LIG1        0.1126
      5 N           0.0326   -1.1841    0.0002 N.ar    1  LIG1       -0.3534
      6 H          -0.0794   -2.1879    0.0001 H       1  LIG1        0.1656
      7 H           2.1560   -0.9538   -0.0004 H       1  LIG1        0.0845
      8 O           1.7018    1.9507   -0.0001 O.3     1  LIG1       -0.4900
      9 C           3.0776    1.6314   -0.0005 C.3     1  LIG1        0.0790
     10 H           3.6141    2.5767   -0.0006 H       1  LIG1        0.0660
     11 H           3.3346    1.0562    0.8941 H       1  LIG1        0.0660
     12 H           3.3342    1.0563   -0.8952 H       1  LIG1        0.0660
     13 O          -1.4055    2.0294    0.0007 O.3     1  LIG1       -0.4895
     14 C          -0.7914    3.3120    0.0005 C.3     1  LIG1        0.0791
     15 H          -1.6068    4.0316    0.0008 H       1  LIG1        0.0660
     16 H          -0.1734    3.4357    0.8899 H       1  LIG1        0.0660
     17 H          -0.1740    3.4357   -0.8892 H       1  LIG1        0.0660
     18 C          -2.4064   -0.8124    0.0009 C.ar    1  LIG1        0.1126
     19 C          -2.8830   -2.1042    0.0010 C.ar    1  LIG1        0.1884
     20 C          -4.3076   -2.0228    0.0015 C.ar    1  LIG1        0.1795
     21 C          -4.6383   -0.6814    0.0017 C.ar    1  LIG1        0.0482
     22 N          -3.4745    0.0319    0.0014 N.ar    1  LIG1       -0.3534
     23 H          -3.3625    1.0357    0.0014 H       1  LIG1        0.1656
     24 H          -5.5979   -0.1985    0.0020 H       1  LIG1        0.0845
     25 O          -2.0364   -3.1817    0.0007 O.3     1  LIG1       -0.4895
     26 C          -2.6505   -4.4642   -0.0009 C.3     1  LIG1        0.0791
     27 H          -1.8350   -5.1839   -0.0012 H       1  LIG1        0.0660
     28 H          -3.2687   -4.5889    0.8881 H       1  LIG1        0.0660
     29 H          -3.2677   -4.5870   -0.8910 H       1  LIG1        0.0660
     30 O          -5.1437   -3.1029    0.0019 O.3     1  LIG1       -0.4900
     31 C          -6.5195   -2.7837    0.0022 C.3     1  LIG1        0.0790
     32 H          -7.0560   -3.7290    0.0023 H       1  LIG1        0.0660
     33 H          -6.7761   -2.2085    0.8969 H       1  LIG1        0.0660
     34 H          -6.7765   -2.2085   -0.8924 H       1  LIG1        0.0660
@<TRIPOS>BOND
     1    12     9    1
     2    34    31    1
     3    29    26    1
     4    17    14    1
     5    27    26    1
     6    26    25    1
     7    26    28    1
     8    10     9    1
     9     9     8    1
    10     9    11    1
    11     7     1    1
    12     1     2   ar
    13     1     5   ar
    14     8     2    1
    15     2     3   ar
    16     6     5    1
    17     5     4   ar
    18     3     4   ar
    19     3    13    1
    20     4    18    1
    21    14    13    1
    22    14    15    1
    23    14    16    1
    24    25    19    1
    25    18    19   ar
    26    18    22   ar
    27    19    20   ar
    28    23    22    1
    29    22    21   ar
    30    20    21   ar
    31    20    30    1
    32    21    24    1
    33    30    31    1
    34    31    32    1
    35    31    33    1
