@<TRIPOS>MOLECULE
mol_data/opt/m06hf/geoms/mol2/13ll13ll13ll.out
 50 52 0 0 0
SMALL
GASTEIGER

@<TRIPOS>ATOM
      1 C           0.6036    1.9900    0.4265 C.ar    1  LIG1        0.0482
      2 C           0.9942    1.1444   -0.5907 C.ar    1  LIG1        0.1795
      3 C          -0.0206    0.1549   -0.7312 C.ar    1  LIG1        0.1884
      4 C          -0.9903    0.4326    0.2030 C.ar    1  LIG1        0.1126
      5 N          -0.6084    1.5452    0.8872 N.ar    1  LIG1       -0.3534
      6 H          -1.1528    1.9202    1.6502 H       1  LIG1        0.1656
      7 H           1.0830    2.8559    0.8454 H       1  LIG1        0.0845
      8 O           2.1151    1.1672   -1.3608 O.3     1  LIG1       -0.4900
      9 C           2.9946    2.2415   -1.0944 C.3     1  LIG1        0.0790
     10 H           3.8250    2.1404   -1.7882 H       1  LIG1        0.0660
     11 H           2.4861    3.1960   -1.2580 H       1  LIG1        0.0660
     12 H           3.3594    2.1883   -0.0647 H       1  LIG1        0.0660
     13 O          -0.0776   -0.8856   -1.6197 O.3     1  LIG1       -0.4895
     14 C           1.0306   -1.7802   -1.5044 C.3     1  LIG1        0.0791
     15 H           0.8853   -2.5480   -2.2612 H       1  LIG1        0.0660
     16 H           1.9604   -1.2413   -1.6853 H       1  LIG1        0.0660
     17 H           1.0424   -2.2252   -0.5068 H       1  LIG1        0.0660
     18 C          -2.2370   -0.2594    0.4677 C.ar    1  LIG1        0.1131
     19 C          -3.2162    0.0219    1.3950 C.ar    1  LIG1        0.1891
     20 C          -4.2253   -0.9680    1.2540 C.ar    1  LIG1        0.1891
     21 C          -3.8356   -1.8225    0.2427 C.ar    1  LIG1        0.1131
     22 N          -2.6225   -1.3723   -0.2146 N.ar    1  LIG1       -0.3458
     23 H          -2.1022   -1.7377   -1.0020 H       1  LIG1        0.1662
     24 O          -3.1832    1.0674    2.2835 O.3     1  LIG1       -0.4895
     25 C          -4.2813    1.9673    2.1025 C.3     1  LIG1        0.0791
     26 H          -4.1906    2.7255    2.8770 H       1  LIG1        0.0660
     27 H          -4.2217    2.4237    1.1123 H       1  LIG1        0.0660
     28 H          -5.2221    1.4252    2.2069 H       1  LIG1        0.0660
     29 O          -5.3905   -1.0318    1.9639 O.3     1  LIG1       -0.4895
     30 C          -5.1934   -1.4904    3.3008 C.3     1  LIG1        0.0791
     31 H          -6.1692   -1.4759    3.7811 H       1  LIG1        0.0660
     32 H          -4.7959   -2.5072    3.2844 H       1  LIG1        0.0660
     33 H          -4.5015   -0.8270    3.8243 H       1  LIG1        0.0660
     34 C          -4.4868   -3.0202   -0.3011 C.ar    1  LIG1        0.1126
     35 C          -5.5847   -3.2226   -1.1165 C.ar    1  LIG1        0.1884
     36 C          -5.7072   -4.6305   -1.3241 C.ar    1  LIG1        0.1795
     37 C          -4.6892   -5.2412   -0.6360 C.ar    1  LIG1        0.0482
     38 N          -3.9567   -4.2660   -0.0342 N.ar    1  LIG1       -0.3534
     39 H          -3.1676   -4.4081    0.5737 H       1  LIG1        0.1656
     40 H          -4.4464   -6.2857   -0.5571 H       1  LIG1        0.0845
     41 O          -6.4488   -2.3491   -1.6880 O.3     1  LIG1       -0.4895
     42 C          -6.3348   -0.9873   -1.3017 C.3     1  LIG1        0.0791
     43 H          -7.1308   -0.4653   -1.8273 H       1  LIG1        0.0660
     44 H          -6.4573   -0.8886   -0.2206 H       1  LIG1        0.0660
     45 H          -5.3635   -0.5858   -1.6013 H       1  LIG1        0.0660
     46 O          -6.6409   -5.2562   -2.0952 O.3     1  LIG1       -0.4900
     47 C          -7.9754   -5.0599   -1.6360 C.3     1  LIG1        0.0790
     48 H          -8.6183   -5.6066   -2.3225 H       1  LIG1        0.0660
     49 H          -8.0826   -5.4588   -0.6245 H       1  LIG1        0.0660
     50 H          -8.2255   -3.9991   -1.6471 H       1  LIG1        0.0660
@<TRIPOS>BOND
     1    48    47    1
     2    15    14    1
     3    46    47    1
     4    46    36    1
     5    43    42    1
     6    10     9    1
     7    41    42    1
     8    41    35    1
     9    16    14    1
    10    50    47    1
    11    47    49    1
    12    13    14    1
    13    13     3    1
    14    45    42    1
    15    14    17    1
    16     8     9    1
    17     8     2    1
    18    36    35   ar
    19    36    37   ar
    20    42    44    1
    21    11     9    1
    22    35    34   ar
    23     9    12    1
    24    23    22    1
    25     3     2   ar
    26     3     4   ar
    27    37    40    1
    28    37    38   ar
    29     2     1   ar
    30    34    38   ar
    31    34    21    1
    32    22    21   ar
    33    22    18   ar
    34    38    39    1
    35     4    18    1
    36     4     5   ar
    37    21    20   ar
    38     1     7    1
    39     1     5   ar
    40    18    19   ar
    41     5     6    1
    42    27    25    1
    43    20    19   ar
    44    20    29    1
    45    19    24    1
    46    29    30    1
    47    25    28    1
    48    25    24    1
    49    25    26    1
    50    32    30    1
    51    30    31    1
    52    30    33    1
