@<TRIPOS>MOLECULE
mol_data/opt/m06hf/geoms/mol2/13ll13ll13ll13ll.out
 66 69 0 0 0
SMALL
GASTEIGER

@<TRIPOS>ATOM
      1 C           0.1500    0.8789   -2.5864 C.ar    1  LIG1        0.0482
      2 C           0.7642    0.8282   -1.3532 C.ar    1  LIG1        0.1795
      3 C          -0.1913    0.3256   -0.4226 C.ar    1  LIG1        0.1884
      4 C          -1.3557    0.0836   -1.1151 C.ar    1  LIG1        0.1126
      5 N          -1.1315    0.4315   -2.4204 N.ar    1  LIG1       -0.3534
      6 H          -1.8360    0.3781   -3.1375 H       1  LIG1        0.1656
      7 H           0.5192    1.1907   -3.5469 H       1  LIG1        0.0845
      8 O           2.0311    1.1703   -0.9990 O.3     1  LIG1       -0.4900
      9 C           2.8250    1.6762   -2.0538 C.3     1  LIG1        0.0790
     10 H           3.7973    1.9076   -1.6274 H       1  LIG1        0.0660
     11 H           2.9330    0.9257   -2.8423 H       1  LIG1        0.0660
     12 H           2.3728    2.5825   -2.4666 H       1  LIG1        0.0660
     13 O          -0.0332    0.1894    0.9209 O.3     1  LIG1       -0.4895
     14 C           0.9986   -0.7242    1.2887 C.3     1  LIG1        0.0791
     15 H           1.0288   -0.7295    2.3754 H       1  LIG1        0.0660
     16 H           0.7580   -1.7227    0.9156 H       1  LIG1        0.0660
     17 H           1.9557   -0.3941    0.8840 H       1  LIG1        0.0660
     18 C          -2.6626   -0.3857   -0.6381 C.ar    1  LIG1        0.1131
     19 C          -3.7622    0.2885   -0.1379 C.ar    1  LIG1        0.1891
     20 C          -4.7694   -0.6820    0.1291 C.ar    1  LIG1        0.1891
     21 C          -4.2667   -1.9179   -0.2160 C.ar    1  LIG1        0.1131
     22 N          -2.9973   -1.7188   -0.6760 N.ar    1  LIG1       -0.3458
     23 H          -2.3908   -2.4450   -1.0227 H       1  LIG1        0.1662
     24 O          -3.9544    1.6070    0.1082 O.3     1  LIG1       -0.4895
     25 C          -2.7864    2.4169    0.1884 C.3     1  LIG1        0.0791
     26 H          -3.1247    3.3866    0.5452 H       1  LIG1        0.0660
     27 H          -2.0681    1.9780    0.8845 H       1  LIG1        0.0660
     28 H          -2.3223    2.5228   -0.7952 H       1  LIG1        0.0660
     29 O          -6.0218   -0.4378    0.6042 O.3     1  LIG1       -0.4895
     30 C          -6.0307    0.0461    1.9467 C.3     1  LIG1        0.0791
     31 H          -7.0736    0.2115    2.2056 H       1  LIG1        0.0660
     32 H          -5.5912   -0.7024    2.6095 H       1  LIG1        0.0660
     33 H          -5.4703    0.9795    2.0082 H       1  LIG1        0.0660
     34 C          -4.8460   -3.2623   -0.1053 C.ar    1  LIG1        0.1131
     35 C          -5.9335   -3.8924   -0.6879 C.ar    1  LIG1        0.1891
     36 C          -5.9696   -5.2232   -0.1794 C.ar    1  LIG1        0.1891
     37 C          -4.9143   -5.3774    0.6903 C.ar    1  LIG1        0.1131
     38 N          -4.2413   -4.1897    0.7130 N.ar    1  LIG1       -0.3458
     39 H          -3.4453   -3.9970    1.3003 H       1  LIG1        0.1662
     40 O          -6.8459   -3.4694   -1.5942 O.3     1  LIG1       -0.4895
     41 C          -6.6843   -2.1568   -2.1146 C.3     1  LIG1        0.0791
     42 H          -7.4482   -2.0493   -2.8809 H       1  LIG1        0.0660
     43 H          -6.8241   -1.4145   -1.3271 H       1  LIG1        0.0660
     44 H          -5.6914   -2.0476   -2.5591 H       1  LIG1        0.0660
     45 O          -6.8276   -6.2081   -0.5583 O.3     1  LIG1       -0.4895
     46 C          -8.1859   -5.9471   -0.2101 C.3     1  LIG1        0.0791
     47 H          -8.7622   -6.7955   -0.5710 H       1  LIG1        0.0660
     48 H          -8.2783   -5.8663    0.8756 H       1  LIG1        0.0660
     49 H          -8.5242   -5.0261   -0.6862 H       1  LIG1        0.0660
     50 C          -4.4736   -6.5545    1.4491 C.ar    1  LIG1        0.1126
     51 C          -3.6683   -7.6267    1.1169 C.ar    1  LIG1        0.1884
     52 C          -3.5618   -8.4534    2.2759 C.ar    1  LIG1        0.1795
     53 C          -4.3060   -7.8676    3.2699 C.ar    1  LIG1        0.0482
     54 N          -4.8405   -6.7233    2.7659 N.ar    1  LIG1       -0.3534
     55 H          -5.4694   -6.1003    3.2442 H       1  LIG1        0.1656
     56 H          -4.4673   -8.1899    4.2829 H       1  LIG1        0.0845
     57 O          -3.0480   -7.9348   -0.0502 O.3     1  LIG1       -0.4895
     58 C          -3.5206   -7.2670   -1.2126 C.3     1  LIG1        0.0791
     59 H          -3.0225   -7.7452   -2.0527 H       1  LIG1        0.0660
     60 H          -4.6049   -7.3708   -1.2970 H       1  LIG1        0.0660
     61 H          -3.2604   -6.2057   -1.1799 H       1  LIG1        0.0660
     62 O          -2.8380   -9.6034    2.3900 O.3     1  LIG1       -0.4900
     63 C          -3.2972  -10.6416    1.5286 C.3     1  LIG1        0.0790
     64 H          -2.6464  -11.4954    1.7044 H       1  LIG1        0.0660
     65 H          -4.3300  -10.8992    1.7749 H       1  LIG1        0.0660
     66 H          -3.2307  -10.3234    0.4880 H       1  LIG1        0.0660
@<TRIPOS>BOND
     1     7     1    1
     2     6     5    1
     3    42    41    1
     4    11     9    1
     5     1     5   ar
     6     1     2   ar
     7    44    41    1
     8    12     9    1
     9     5     4   ar
    10    41    40    1
    11    41    43    1
    12     9    10    1
    13     9     8    1
    14    59    58    1
    15    40    35    1
    16     2     8    1
    17     2     3   ar
    18    60    58    1
    19    58    61    1
    20    58    57    1
    21     4    18    1
    22     4     3   ar
    23    23    22    1
    24    28    25    1
    25    35    36   ar
    26    35    34   ar
    27    49    46    1
    28    22    18   ar
    29    22    21   ar
    30    18    19   ar
    31    47    46    1
    32    45    46    1
    33    45    36    1
    34     3    13    1
    35    21    34    1
    36    21    20   ar
    37    46    48    1
    38    36    37   ar
    39    19    24    1
    40    19    20   ar
    41    34    38   ar
    42    57    51    1
    43    24    25    1
    44    20    29    1
    45    25    26    1
    46    25    27    1
    47    66    63    1
    48    29    30    1
    49    37    38   ar
    50    37    50    1
    51    38    39    1
    52    17    14    1
    53    16    14    1
    54    13    14    1
    55    51    50   ar
    56    51    52   ar
    57    14    15    1
    58    50    54   ar
    59    63    64    1
    60    63    65    1
    61    63    62    1
    62    30    33    1
    63    30    31    1
    64    30    32    1
    65    52    62    1
    66    52    53   ar
    67    54    55    1
    68    54    53   ar
    69    53    56    1
