@<TRIPOS>MOLECULE
mol_data/opt/m06hf/geoms/mol2/13ll13ll-13ll.out
 50 52 0 0 0
SMALL
GASTEIGER

@<TRIPOS>ATOM
      1 C           1.2348   -0.7898    0.3646 C.ar    1  LIG1        0.0482
      2 C           0.9722    0.5587    0.2438 C.ar    1  LIG1        0.1795
      3 C          -0.4406    0.7069    0.1366 C.ar    1  LIG1        0.1884
      4 C          -0.9865   -0.5539    0.1857 C.ar    1  LIG1        0.1126
      5 N           0.0310   -1.4465    0.3301 N.ar    1  LIG1       -0.3534
      6 H          -0.1310   -2.4373    0.4368 H       1  LIG1        0.1656
      7 H           2.1622   -1.3214    0.4760 H       1  LIG1        0.0845
      8 O           1.8293    1.6140    0.2093 O.3     1  LIG1       -0.4900
      9 C           3.1914    1.2697    0.3580 C.3     1  LIG1        0.0790
     10 H           3.7534    2.1991    0.3220 H       1  LIG1        0.0660
     11 H           3.3536    0.7730    1.3186 H       1  LIG1        0.0660
     12 H           3.5083    0.6109   -0.4561 H       1  LIG1        0.0660
     13 O          -1.1647    1.8618    0.0159 O.3     1  LIG1       -0.4895
     14 C          -0.9002    2.5611   -1.2009 C.3     1  LIG1        0.0791
     15 H          -1.5436    3.4384   -1.1965 H       1  LIG1        0.0660
     16 H           0.1483    2.8578   -1.2366 H       1  LIG1        0.0660
     17 H          -1.1403    1.9213   -2.0532 H       1  LIG1        0.0660
     18 C          -2.3772   -0.9549    0.1130 C.ar    1  LIG1        0.1131
     19 C          -2.9233   -2.2199    0.0658 C.ar    1  LIG1        0.1891
     20 C          -4.3333   -2.0665   -0.0132 C.ar    1  LIG1        0.1891
     21 C          -4.5966   -0.7130   -0.0011 C.ar    1  LIG1        0.1131
     22 N          -3.4027   -0.0578    0.0725 N.ar    1  LIG1       -0.3458
     23 H          -3.2910    0.9504    0.0902 H       1  LIG1        0.1662
     24 O          -2.2069   -3.3915    0.0871 O.3     1  LIG1       -0.4895
     25 C          -2.2650   -4.0790   -1.1657 C.3     1  LIG1        0.0791
     26 H          -1.7012   -5.0012   -1.0411 H       1  LIG1        0.0660
     27 H          -3.3036   -4.3002   -1.4170 H       1  LIG1        0.0660
     28 H          -1.8181   -3.4588   -1.9452 H       1  LIG1        0.0660
     29 O          -5.2817   -3.0557   -0.0917 O.3     1  LIG1       -0.4895
     30 C          -5.3102   -3.8727    1.0822 C.3     1  LIG1        0.0791
     31 H          -6.0474   -4.6519    0.9002 H       1  LIG1        0.0660
     32 H          -4.3257   -4.3125    1.2507 H       1  LIG1        0.0660
     33 H          -5.5985   -3.2675    1.9441 H       1  LIG1        0.0660
     34 C          -5.8678   -0.0179   -0.0350 C.ar    1  LIG1        0.1126
     35 C          -6.1302    1.3282    0.0706 C.ar    1  LIG1        0.1884
     36 C          -7.5444    1.4893    0.0151 C.ar    1  LIG1        0.1795
     37 C          -8.0916    0.2370   -0.1390 C.ar    1  LIG1        0.0482
     38 N          -7.0624   -0.6637   -0.1619 N.ar    1  LIG1       -0.3534
     39 H          -7.1215   -1.6647   -0.2835 H       1  LIG1        0.1656
     40 H          -9.1217   -0.0590   -0.2203 H       1  LIG1        0.0845
     41 O          -5.1794    2.3070    0.2088 O.3     1  LIG1       -0.4895
     42 C          -5.1982    2.9054    1.5080 C.3     1  LIG1        0.0791
     43 H          -4.4184    3.6635    1.5096 H       1  LIG1        0.0660
     44 H          -6.1750    3.3565    1.6913 H       1  LIG1        0.0660
     45 H          -4.9898    2.1455    2.2640 H       1  LIG1        0.0660
     46 O          -8.2206    2.6719    0.1236 O.3     1  LIG1       -0.4900
     47 C          -7.9621    3.5539   -0.9671 C.3     1  LIG1        0.0790
     48 H          -8.5191    4.4662   -0.7646 H       1  LIG1        0.0660
     49 H          -6.8933    3.7680   -1.0329 H       1  LIG1        0.0660
     50 H          -8.3049    3.1018   -1.9000 H       1  LIG1        0.0660
@<TRIPOS>BOND
     1    17    14    1
     2    28    25    1
     3    50    47    1
     4    27    25    1
     5    16    14    1
     6    14    15    1
     7    14    13    1
     8    25    26    1
     9    25    24    1
    10    49    47    1
    11    47    48    1
    12    47    46    1
    13    12     9    1
    14    39    38    1
    15    40    37    1
    16    38    37   ar
    17    38    34   ar
    18    37    36   ar
    19    29    20    1
    20    29    30    1
    21    34    21    1
    22    34    35   ar
    23    20    21   ar
    24    20    19   ar
    25    21    22   ar
    26    36    35   ar
    27    36    46    1
    28    13     3    1
    29    19    24    1
    30    19    18   ar
    31    35    41    1
    32    22    23    1
    33    22    18   ar
    34    18     4    1
    35     3     4   ar
    36     3     2   ar
    37     4     5   ar
    38    41    42    1
    39     8     2    1
    40     8     9    1
    41     2     1   ar
    42    10     9    1
    43     5     1   ar
    44     5     6    1
    45     9    11    1
    46     1     7    1
    47    31    30    1
    48    30    32    1
    49    30    33    1
    50    42    43    1
    51    42    44    1
    52    42    45    1
