@<TRIPOS>MOLECULE
mol_data/opt/m06hf/geoms/mol2/13ll12fd13li-12di-.out
 53 56 0 0 0
SMALL
GASTEIGER

@<TRIPOS>ATOM
      1 C           1.4707   -0.0250    0.9284 C.ar    1  LIG1        0.0482
      2 C           1.1794    1.1086    0.2020 C.ar    1  LIG1        0.1795
      3 C          -0.1750    1.0052   -0.2316 C.ar    1  LIG1        0.1900
      4 C          -0.6668   -0.1807    0.2655 C.ar    1  LIG1        0.1318
      5 N           0.3397   -0.7985    0.9538 N.ar    1  LIG1       -0.3521
      6 H           0.2475   -1.6831    1.4229 H       1  LIG1        0.1656
      7 H           2.3767   -0.3398    1.4135 H       1  LIG1        0.0845
      8 O           1.9660    2.1718   -0.1039 O.3     1  LIG1       -0.4900
      9 C           3.3072    2.0636    0.3288 C.3     1  LIG1        0.0790
     10 H           3.8144    2.9650   -0.0038 H       1  LIG1        0.0660
     11 H           3.3518    1.9921    1.4198 H       1  LIG1        0.0660
     12 H           3.7789    1.1837   -0.1179 H       1  LIG1        0.0660
     13 O          -0.8546    1.8710   -1.0228 O.3     1  LIG1       -0.4894
     14 C          -1.0866    3.1408   -0.4114 C.3     1  LIG1        0.0791
     15 H          -1.6321    3.7317   -1.1434 H       1  LIG1        0.0660
     16 H          -1.6888    3.0080    0.4882 H       1  LIG1        0.0660
     17 H          -0.1349    3.6178   -0.1728 H       1  LIG1        0.0660
     18 C          -1.9984   -0.7327    0.1255 C.ar    1  LIG1        0.1980
     19 C          -3.2227   -0.1535    0.0657 C.ar    1  LIG1        0.1827
     20 C          -4.1774   -1.2206   -0.1113 C.ar    1  LIG1        0.1410
     21 C          -3.4524   -2.3825   -0.1300 C.ar    1  LIG1        0.1765
     22 O          -2.1493   -2.0920    0.0096 O.2     1  LIG1       -0.4465
     23 O          -3.5000    1.1587    0.1860 O.3     1  LIG1       -0.5023
     24 H          -4.4448    1.3120    0.0578 H       1  LIG1        0.2923
     25 N          -6.6789   -0.6314   -0.2054 N.1     1  LIG1       -0.1906
     26 C          -5.5833   -0.9772   -0.1854 C.1     1  LIG1        0.1067
     27 C          -3.7881   -3.7816   -0.2629 C.ar    1  LIG1        0.1265
     28 C          -5.0098   -4.4135   -0.4288 C.ar    1  LIG1        0.1519
     29 C          -4.7892   -5.8081   -0.5334 C.ar    1  LIG1        0.0203
     30 C          -3.4163   -5.9729   -0.4168 C.ar    1  LIG1        0.0904
     31 N          -2.8306   -4.7502   -0.2629 N.ar    1  LIG1       -0.3461
     32 H          -1.8371   -4.5865   -0.1970 H       1  LIG1        0.1662
     33 O          -6.2036   -3.7770   -0.5363 O.3     1  LIG1       -0.4926
     34 C          -6.9863   -3.7949    0.6608 C.3     1  LIG1        0.0789
     35 H          -7.8691   -3.1973    0.4514 H       1  LIG1        0.0660
     36 H          -7.2623   -4.8203    0.9135 H       1  LIG1        0.0660
     37 H          -6.4203   -3.3487    1.4809 H       1  LIG1        0.0660
     38 C          -5.8613   -6.8265   -0.8258 C.3     1  LIG1       -0.0341
     39 H          -6.2191   -7.3081    0.0847 H       1  LIG1        0.0279
     40 H          -5.4792   -7.5997   -1.4931 H       1  LIG1        0.0279
     41 H          -6.6906   -6.3133   -1.3131 H       1  LIG1        0.0279
     42 C          -2.5854   -7.1627   -0.4717 C.ar    1  LIG1        0.1688
     43 C          -2.7828   -8.4771   -0.1544 C.ar    1  LIG1        0.1017
     44 C          -1.5447   -9.1734   -0.4308 C.ar    1  LIG1        0.0054
     45 C          -0.7051   -8.2139   -0.8745 C.ar    1  LIG1        0.0968
     46 O          -1.3214   -7.0028   -0.9024 O.2     1  LIG1       -0.4599
     47 H           0.3200   -8.2354   -1.1994 H       1  LIG1        0.1032
     48 N          -4.8664   -9.5566    0.9173 N.1     1  LIG1       -0.1907
     49 C          -3.9512   -9.0602    0.4326 C.1     1  LIG1        0.1033
     50 C          -1.2914  -10.6436   -0.2327 C.3     1  LIG1       -0.0355
     51 H          -0.2628  -10.8855   -0.4952 H       1  LIG1        0.0279
     52 H          -1.9662  -11.2270   -0.8594 H       1  LIG1        0.0279
     53 H          -1.4680  -10.9149    0.8086 H       1  LIG1        0.0279
@<TRIPOS>BOND
     1    40    38    1
     2    41    38    1
     3    47    45    1
     4    15    14    1
     5    13    14    1
     6    13     3    1
     7    46    45   ar
     8    46    42   ar
     9    45    44   ar
    10    52    50    1
    11    38    29    1
    12    38    39    1
    13    33    28    1
    14    33    34    1
    15    29    28   ar
    16    29    30   ar
    17    51    50    1
    18    42    30    1
    19    42    43   ar
    20    44    50    1
    21    44    43   ar
    22    28    27   ar
    23    30    31   ar
    24    14    17    1
    25    14    16    1
    26    31    27   ar
    27    31    32    1
    28    27    21    1
    29    50    53    1
    30     3     2   ar
    31     3     4   ar
    32    25    26    3
    33    26    20    1
    34    43    49    1
    35    21    20   ar
    36    21    22   ar
    37    12     9    1
    38    20    19   ar
    39     8     2    1
    40     8     9    1
    41    10     9    1
    42    22    18   ar
    43    24    23    1
    44    19    18   ar
    45    19    23    1
    46    18     4    1
    47     2     1   ar
    48     4     5   ar
    49     9    11    1
    50    49    48    3
    51    35    34    1
    52    34    36    1
    53    34    37    1
    54     1     5   ar
    55     1     7    1
    56     5     6    1
