@<TRIPOS>MOLECULE
mol_data/opt/m06hf/geoms/mol2/13ll6ea13ha-13el-12ef-13ae-6hi4hl.out
 103 110 0 0 0
SMALL
GASTEIGER

@<TRIPOS>ATOM
      1 C           1.5107   -0.3696    0.2449 C.ar    1  LIG1        0.0481
      2 C           1.0737    0.7991    0.8345 C.ar    1  LIG1        0.1794
      3 C          -0.3463    0.7703    0.8185 C.ar    1  LIG1        0.1869
      4 C          -0.7325   -0.4271    0.2413 C.ar    1  LIG1        0.0951
      5 N           0.4068   -1.0893   -0.1057 N.ar    1  LIG1       -0.3546
      6 H           0.4527   -1.9455   -0.6379 H       1  LIG1        0.1656
      7 H           2.4982   -0.7539    0.0596 H       1  LIG1        0.0845
      8 O           1.7886    1.8256    1.3694 O.3     1  LIG1       -0.4900
      9 C           3.1864    1.7099    1.2078 C.3     1  LIG1        0.0790
     10 H           3.6266    2.6041    1.6410 H       1  LIG1        0.0660
     11 H           3.5591    0.8222    1.7271 H       1  LIG1        0.0660
     12 H           3.4409    1.6456    0.1453 H       1  LIG1        0.0660
     13 O          -1.1814    1.7405    1.2891 O.3     1  LIG1       -0.4895
     14 C          -1.1691    1.8430    2.7127 C.3     1  LIG1        0.0791
     15 H          -1.8481    2.6531    2.9690 H       1  LIG1        0.0660
     16 H          -1.5165    0.9056    3.1524 H       1  LIG1        0.0660
     17 H          -0.1606    2.0705    3.0593 H       1  LIG1        0.0660
     18 C          -2.4666   -2.2671    0.0472 C.ar    1  LIG1        0.1231
     19 C          -2.0980   -0.9131    0.0041 C.ar    1  LIG1        0.0359
     20 C          -3.1212    0.0133   -0.2520 C.ar    1  LIG1       -0.0478
     21 C          -4.4161   -0.4173   -0.4714 C.ar    1  LIG1       -0.0335
     22 C          -4.6675   -1.7942   -0.4273 C.ar    1  LIG1        0.0903
     23 N          -3.7151   -2.6864   -0.1666 N.ar    1  LIG1       -0.2362
     24 H          -2.8714    1.0663   -0.2634 H       1  LIG1        0.0626
     25 C          -1.5159   -3.3236    0.3543 C.1     1  LIG1       -0.0491
     26 C          -0.7764   -4.2352    0.6174 C.1     1  LIG1       -0.1124
     27 H          -0.1303   -5.0517    0.8625 H       1  LIG1        0.1232
     28 H          -5.2352    0.2604   -0.6716 H       1  LIG1        0.0640
     29 C          -6.0046   -2.3674   -0.6323 C.ar    1  LIG1        0.0864
     30 C          -7.2201   -1.8480   -1.0451 C.ar    1  LIG1        0.0523
     31 C          -8.1615   -2.9109   -1.0181 C.ar    1  LIG1       -0.0136
     32 C          -7.4873   -4.0398   -0.5870 C.ar    1  LIG1        0.0665
     33 N          -6.1874   -3.6910   -0.3760 N.ar    1  LIG1       -0.3503
     34 H          -5.4310   -4.2414    0.0081 H       1  LIG1        0.1660
     35 N          -7.4255   -0.4896   -1.4242 N.pl3   1  LIG1       -0.3563
     36 H          -7.2685   -0.3603   -2.4201 H       1  LIG1        0.1424
     37 H          -8.3727   -0.1965   -1.2108 H       1  LIG1        0.1424
     38 H          -9.2037   -2.8697   -1.2889 H       1  LIG1        0.0658
     39 C          -7.9483   -5.4046   -0.3704 C.ar    1  LIG1        0.0827
     40 C          -9.2274   -5.9097   -0.1628 C.ar    1  LIG1        0.0936
     41 C          -9.0882   -7.3163    0.0449 C.ar    1  LIG1        0.1643
     42 C          -7.7486   -7.6229   -0.0600 C.ar    1  LIG1        0.1274
     43 N          -7.0822   -6.4451   -0.3040 N.ar    1  LIG1       -0.3466
     44 H          -6.0902   -6.3996   -0.4777 H       1  LIG1        0.1662
     45 C         -10.4424   -5.1603   -0.0862 C.1     1  LIG1       -0.0638
     46 C         -11.4744   -4.5446   -0.0259 C.1     1  LIG1       -0.1137
     47 H         -12.3876   -4.0011    0.0482 H       1  LIG1        0.1232
     48 O         -10.0683   -8.1896    0.3654 O.3     1  LIG1       -0.4916
     49 C         -11.0218   -8.4113   -0.6743 C.3     1  LIG1        0.0789
     50 H         -11.7524   -9.1045   -0.2650 H       1  LIG1        0.0660
     51 H         -11.5042   -7.4725   -0.9488 H       1  LIG1        0.0660
     52 H         -10.5258   -8.8560   -1.5389 H       1  LIG1        0.0660
     53 C          -6.9931   -8.8450    0.1184 C.ar    1  LIG1        0.1745
     54 C          -7.2837  -10.1832    0.1132 C.ar    1  LIG1        0.1141
     55 C          -6.0261  -10.8450    0.3705 C.ar    1  LIG1        0.1805
     56 C          -5.0862   -9.8778    0.5114 C.ar    1  LIG1        0.1943
     57 O          -5.6752   -8.6555    0.3490 O.2     1  LIG1       -0.4467
     58 C          -8.5225  -10.8399   -0.1554 C.1     1  LIG1       -0.0621
     59 C          -9.5353  -11.4410   -0.3919 C.1     1  LIG1       -0.1137
     60 H         -10.4350  -11.9750   -0.5924 H       1  LIG1        0.1232
     61 O          -5.8777  -12.1844    0.4222 O.3     1  LIG1       -0.5023
     62 H          -4.9367  -12.4020    0.4206 H       1  LIG1        0.2923
     63 C          -3.6602   -9.9329    0.7869 C.ar    1  LIG1        0.0875
     64 C          -2.9306  -10.7693    1.6050 C.ar    1  LIG1       -0.0172
     65 C          -1.5650  -10.3773    1.4876 C.ar    1  LIG1        0.0507
     66 C          -1.5160   -9.3028    0.6085 C.ar    1  LIG1        0.0659
     67 N          -2.7899   -9.0671    0.1902 N.ar    1  LIG1       -0.3506
     68 H          -3.0300   -8.3414   -0.4749 H       1  LIG1        0.1660
     69 H          -3.3224  -11.5360    2.2527 H       1  LIG1        0.0652
     70 C          -0.4448  -10.9712    2.1558 C.1     1  LIG1       -0.0675
     71 C           0.4887  -11.4755    2.7218 C.1     1  LIG1       -0.1138
     72 H           1.3119  -11.9320    3.2201 H       1  LIG1        0.1232
     73 C          -0.3646   -7.8477   -1.0884 C.ar    1  LIG1        0.1261
     74 C          -0.3995   -8.4370    0.1923 C.ar    1  LIG1        0.0393
     75 C           0.6183   -8.0957    1.0738 C.ar    1  LIG1       -0.0444
     76 C           1.6202   -7.1905    0.7108 C.ar    1  LIG1       -0.0237
     77 C           1.5447   -6.6652   -0.5863 C.ar    1  LIG1        0.0779
     78 N           0.5771   -6.9933   -1.4501 N.ar    1  LIG1       -0.2314
     79 H           0.6038   -8.5138    2.0735 H       1  LIG1        0.0628
     80 N          -1.3730   -8.1045   -2.0272 N.pl3   1  LIG1       -0.3426
     81 H          -1.1501   -7.6607   -2.9106 H       1  LIG1        0.1437
     82 H          -1.5858   -9.0912   -2.1387 H       1  LIG1        0.1437
     83 C           2.6589   -6.7249    1.7147 C.3     1  LIG1       -0.0377
     84 H           2.6468   -5.6346    1.7788 H       1  LIG1        0.0278
     85 H           3.6592   -7.0335    1.4074 H       1  LIG1        0.0278
     86 H           2.4305   -7.1388    2.6961 H       1  LIG1        0.0278
     87 C           3.8823   -5.8140   -1.1511 C.ar    1  LIG1        0.0341
     88 C           4.6787   -4.7530   -1.5825 C.ar    1  LIG1       -0.0370
     89 C           2.4935   -5.6103   -1.0652 C.ar    1  LIG1        0.0247
     90 C           4.1298   -3.5218   -1.9377 C.ar    1  LIG1       -0.0182
     91 H           5.7510   -4.8919   -1.6492 H       1  LIG1        0.0637
     92 C           1.9440   -4.3995   -1.4627 C.ar    1  LIG1       -0.0090
     93 C           2.7505   -3.3455   -1.8805 C.ar    1  LIG1        0.1208
     94 H           0.8680   -4.2713   -1.4522 H       1  LIG1        0.0661
     95 H           4.7847   -2.7266   -2.2658 H       1  LIG1        0.0655
     96 N           4.4550   -7.0453   -0.7959 N.pl3   1  LIG1       -0.3575
     97 H           3.8341   -7.8345   -0.9319 H       1  LIG1        0.1423
     98 H           5.3568   -7.2111   -1.2225 H       1  LIG1        0.1423
     99 O           2.0941   -2.1871   -2.1905 O.3     1  LIG1       -0.4951
    100 C           2.8228   -1.1481   -2.8161 C.3     1  LIG1        0.0788
    101 H           2.1033   -0.3574   -3.0108 H       1  LIG1        0.0660
    102 H           3.6085   -0.7676   -2.1569 H       1  LIG1        0.0660
    103 H           3.2628   -1.5026   -3.7513 H       1  LIG1        0.0660
@<TRIPOS>BOND
     1   103   100    1
     2   101   100    1
     3    81    80    1
     4   100    99    1
     5   100   102    1
     6    36    35    1
     7    95    90    1
     8    99    93    1
     9    82    80    1
    10    80    73    1
    11    90    93   ar
    12    90    88   ar
    13    93    92   ar
    14    91    88    1
    15    88    87   ar
    16    52    49    1
    17    92    94    1
    18    92    89   ar
    19    78    73   ar
    20    78    77   ar
    21    35    37    1
    22    35    30    1
    23    38    31    1
    24    98    96    1
    25    87    89   ar
    26    87    96    1
    27    73    74   ar
    28    89    77    1
    29    30    31   ar
    30    30    29   ar
    31    31    32   ar
    32    51    49    1
    33    97    96    1
    34    49    50    1
    35    49    48    1
    36    28    21    1
    37     6     5    1
    38    29    22    1
    39    29    33   ar
    40    60    59    1
    41    32    33   ar
    42    32    39    1
    43    77    76   ar
    44    44    43    1
    45    68    67    1
    46    21    22   ar
    47    21    20   ar
    48    22    23   ar
    49    59    58    3
    50    33    34    1
    51    39    43   ar
    52    39    40   ar
    53    43    42   ar
    54    24    20    1
    55    20    19   ar
    56    23    18   ar
    57    40    45    1
    58    40    41   ar
    59    58    54    1
    60     5     4   ar
    61     5     1   ar
    62    45    46    3
    63    42    41   ar
    64    42    53    1
    65    46    47    1
    66    19    18   ar
    67    19     4    1
    68    41    48    1
    69    18    25    1
    70     7     1    1
    71    54    53   ar
    72    54    55   ar
    73    53    57   ar
    74    12     9    1
    75    67    66   ar
    76    67    63   ar
    77    74    66    1
    78    74    75   ar
    79     4     3   ar
    80     1     2   ar
    81    57    56   ar
    82    25    26    3
    83    55    61    1
    84    55    56   ar
    85    62    61    1
    86    56    63    1
    87    66    65   ar
    88    26    27    1
    89    76    75   ar
    90    76    83    1
    91    63    64   ar
    92     3     2   ar
    93     3    13    1
    94     2     8    1
    95    75    79    1
    96     9     8    1
    97     9    10    1
    98     9    11    1
    99    13    14    1
   100    85    83    1
   101    65    64   ar
   102    65    70    1
   103    64    69    1
   104    83    84    1
   105    83    86    1
   106    70    71    3
   107    14    15    1
   108    14    17    1
   109    14    16    1
   110    71    72    1
