@<TRIPOS>MOLECULE
mol_data/opt/m06hf/geoms/mol2/13ll6de4lf-6li-.out
 61 64 0 0 0
SMALL
GASTEIGER

@<TRIPOS>ATOM
      1 C           1.4073    0.0962    0.9272 C.ar    1  LIG1        0.0481
      2 C           1.0515    1.0639    0.0122 C.ar    1  LIG1        0.1794
      3 C          -0.2976    0.8207   -0.3497 C.ar    1  LIG1        0.1869
      4 C          -0.7356   -0.2871    0.3622 C.ar    1  LIG1        0.0952
      5 N           0.3242   -0.7083    1.1202 N.ar    1  LIG1       -0.3546
      6 H           0.3127   -1.4976    1.7477 H       1  LIG1        0.1656
      7 H           2.3329   -0.0833    1.4442 H       1  LIG1        0.0845
      8 O           1.7712    2.0954   -0.4991 O.3     1  LIG1       -0.4900
      9 C           3.1061    2.1730   -0.0367 C.3     1  LIG1        0.0790
     10 H           3.5561    3.0280   -0.5334 H       1  LIG1        0.0660
     11 H           3.1256    2.3171    1.0471 H       1  LIG1        0.0660
     12 H           3.6500    1.2609   -0.2985 H       1  LIG1        0.0660
     13 O          -1.0186    1.5543   -1.2424 O.3     1  LIG1       -0.4895
     14 C          -1.2851    2.8853   -0.7915 C.3     1  LIG1        0.0791
     15 H          -1.8241    3.3769   -1.5975 H       1  LIG1        0.0660
     16 H          -1.8979    2.8518    0.1115 H       1  LIG1        0.0660
     17 H          -0.3452    3.4007   -0.5925 H       1  LIG1        0.0660
     18 C          -2.5347   -1.8820    1.2182 C.ar    1  LIG1        0.1500
     19 C          -2.0635   -0.9124    0.3246 C.ar    1  LIG1        0.0390
     20 C          -2.9693   -0.5484   -0.6856 C.ar    1  LIG1       -0.0323
     21 C          -4.2393   -1.1030   -0.7293 C.ar    1  LIG1        0.0514
     22 C          -4.6130   -2.0422    0.2602 C.ar    1  LIG1        0.0914
     23 N          -3.7511   -2.4251    1.1866 N.ar    1  LIG1       -0.2343
     24 H          -2.6625    0.1626   -1.4399 H       1  LIG1        0.0638
     25 N          -0.9974   -2.7851    3.1197 N.1     1  LIG1       -0.1893
     26 C          -1.6902   -2.3920    2.2925 C.1     1  LIG1        0.1198
     27 C          -5.1101   -0.7645   -1.8280 C.1     1  LIG1       -0.0675
     28 C          -5.7780   -0.4805   -2.7856 C.1     1  LIG1       -0.1138
     29 H          -6.3700   -0.2381   -3.6375 H       1  LIG1        0.1232
     30 C          -7.1211   -1.9350    0.2331 C.ar    1  LIG1        0.1301
     31 C          -8.3549   -2.5818    0.2090 C.ar    1  LIG1       -0.0079
     32 C          -5.9508   -2.6975    0.2763 C.ar    1  LIG1        0.0467
     33 C          -8.4326   -3.9733    0.2526 C.ar    1  LIG1        0.0321
     34 H          -9.2763   -2.0180    0.1512 H       1  LIG1        0.0661
     35 C          -6.0279   -4.0838    0.3619 C.ar    1  LIG1       -0.0068
     36 C          -7.2600   -4.7273    0.3486 C.ar    1  LIG1        0.1256
     37 H          -5.1079   -4.6520    0.4405 H       1  LIG1        0.0662
     38 O          -6.9711   -0.5843    0.2520 O.3     1  LIG1       -0.4944
     39 C          -8.0548    0.2067   -0.1938 C.3     1  LIG1        0.0788
     40 H          -7.6674    1.2181   -0.2841 H       1  LIG1        0.0660
     41 H          -8.4072   -0.1459   -1.1664 H       1  LIG1        0.0660
     42 H          -8.8731    0.1899    0.5305 H       1  LIG1        0.0660
     43 O          -7.3817   -6.0789    0.4456 O.3     1  LIG1       -0.5061
     44 H          -6.5139   -6.4951    0.4616 H       1  LIG1        0.2922
     45 C         -10.1116   -5.5557   -0.7814 C.ar    1  LIG1        0.2225
     46 C          -9.7574   -4.6521    0.2476 C.ar    1  LIG1        0.0475
     47 C         -10.6989   -4.4276    1.2320 C.ar    1  LIG1       -0.0445
     48 C         -11.9386   -5.0873    1.2088 C.ar    1  LIG1       -0.0315
     49 C         -12.1511   -5.9607    0.1582 C.ar    1  LIG1        0.0343
     50 N         -11.2622   -6.1899   -0.8192 N.ar    1  LIG1       -0.2206
     51 H         -10.4597   -3.7469    2.0424 H       1  LIG1        0.0628
     52 H         -13.0821   -6.5119    0.0835 H       1  LIG1        0.0833
     53 O          -9.2231   -5.7454   -1.7665 O.3     1  LIG1       -0.4792
     54 C          -9.5518   -6.7247   -2.7447 C.3     1  LIG1        0.0804
     55 H          -8.7058   -6.7414   -3.4266 H       1  LIG1        0.0660
     56 H          -9.6894   -7.6965   -2.2716 H       1  LIG1        0.0660
     57 H         -10.4671   -6.4481   -3.2673 H       1  LIG1        0.0660
     58 C         -12.9757   -4.8612    2.2904 C.3     1  LIG1       -0.0383
     59 H         -13.8585   -5.4721    2.1030 H       1  LIG1        0.0278
     60 H         -13.2792   -3.8135    2.3170 H       1  LIG1        0.0278
     61 H         -12.5712   -5.1276    3.2681 H       1  LIG1        0.0278
@<TRIPOS>BOND
     1    29    28    1
     2    55    54    1
     3    57    54    1
     4    28    27    3
     5    54    56    1
     6    54    53    1
     7    27    21    1
     8    53    45    1
     9    15    14    1
    10    24    20    1
    11    13    14    1
    12    13     3    1
    13    41    39    1
    14    50    45   ar
    15    50    49   ar
    16    14    17    1
    17    14    16    1
    18    45    46   ar
    19    21    20   ar
    20    21    22   ar
    21    20    19   ar
    22    10     9    1
    23     8     9    1
    24     8     2    1
    25     3     2   ar
    26     3     4   ar
    27    12     9    1
    28    40    39    1
    29    39    38    1
    30    39    42    1
    31     9    11    1
    32     2     1   ar
    33    52    49    1
    34    34    31    1
    35    49    48   ar
    36    31    30   ar
    37    31    33   ar
    38    30    38    1
    39    30    32   ar
    40    46    33    1
    41    46    47   ar
    42    33    36   ar
    43    22    32    1
    44    22    23   ar
    45    32    35   ar
    46    19     4    1
    47    19    18   ar
    48    36    35   ar
    49    36    43    1
    50    35    37    1
    51     4     5   ar
    52    43    44    1
    53     1     5   ar
    54     1     7    1
    55     5     6    1
    56    23    18   ar
    57    48    47   ar
    58    48    58    1
    59    18    26    1
    60    47    51    1
    61    59    58    1
    62    58    60    1
    63    58    61    1
    64    26    25    3
