@<TRIPOS>MOLECULE
mol_data/opt/m06hf/geoms/mol2/13ll13ll13ll-13ll.out
 66 69 0 0 0
SMALL
GASTEIGER

@<TRIPOS>ATOM
      1 C           1.4958   -0.1786   -1.0512 C.ar    1  LIG1        0.0482
      2 C           1.2727    0.9541   -0.3041 C.ar    1  LIG1        0.1795
      3 C          -0.1044    0.9596    0.0706 C.ar    1  LIG1        0.1884
      4 C          -0.6793   -0.1781   -0.4574 C.ar    1  LIG1        0.1126
      5 N           0.3048   -0.8613   -1.1220 N.ar    1  LIG1       -0.3534
      6 H           0.1268   -1.6343   -1.7419 H       1  LIG1        0.1656
      7 H           2.3840   -0.5515   -1.5274 H       1  LIG1        0.0845
      8 O           2.1361    1.9274    0.0747 O.3     1  LIG1       -0.4900
      9 C           3.4603    1.7488   -0.3804 C.3     1  LIG1        0.0790
     10 H           4.0348    2.5892   -0.0004 H       1  LIG1        0.0660
     11 H           3.8727    0.8109    0.0046 H       1  LIG1        0.0660
     12 H           3.4914    1.7409   -1.4744 H       1  LIG1        0.0660
     13 O          -0.7095    1.9385    0.7963 O.3     1  LIG1       -0.4895
     14 C          -1.1255    1.5295    2.0973 C.3     1  LIG1        0.0791
     15 H          -1.5597    2.4091    2.5660 H       1  LIG1        0.0660
     16 H          -1.8760    0.7416    2.0237 H       1  LIG1        0.0660
     17 H          -0.2616    1.1824    2.6678 H       1  LIG1        0.0660
     18 C          -2.0410   -0.6879   -0.3571 C.ar    1  LIG1        0.1131
     19 C          -3.2491   -0.0296   -0.1796 C.ar    1  LIG1        0.1891
     20 C          -4.2679   -1.0235   -0.1474 C.ar    1  LIG1        0.1891
     21 C          -3.6545   -2.2473   -0.3032 C.ar    1  LIG1        0.1131
     22 N          -2.3152   -2.0284   -0.4303 N.ar    1  LIG1       -0.3458
     23 H          -1.6492   -2.7888   -0.4497 H       1  LIG1        0.1662
     24 O          -3.4611    1.3079   -0.0185 O.3     1  LIG1       -0.4895
     25 C          -3.0552    2.1175   -1.1224 C.3     1  LIG1        0.0791
     26 H          -3.2864    3.1423   -0.8425 H       1  LIG1        0.0660
     27 H          -1.9845    2.0184   -1.2950 H       1  LIG1        0.0660
     28 H          -3.6158    1.8298   -2.0156 H       1  LIG1        0.0660
     29 O          -5.6144   -0.8800    0.0368 O.3     1  LIG1       -0.4895
     30 C          -6.2147    0.1463   -0.7518 C.3     1  LIG1        0.0791
     31 H          -7.2862    0.0702   -0.5802 H       1  LIG1        0.0660
     32 H          -5.8437    1.1206   -0.4366 H       1  LIG1        0.0660
     33 H          -5.9902   -0.0196   -1.8081 H       1  LIG1        0.0660
     34 C          -4.2327   -3.5737   -0.2938 C.ar    1  LIG1        0.1131
     35 C          -3.6092   -4.8047   -0.3642 C.ar    1  LIG1        0.1891
     36 C          -4.6345   -5.7920   -0.3152 C.ar    1  LIG1        0.1891
     37 C          -5.8392   -5.1178   -0.2257 C.ar    1  LIG1        0.1131
     38 N          -5.5760   -3.7853   -0.2150 N.ar    1  LIG1       -0.3458
     39 H          -6.2727   -3.0526   -0.1278 H       1  LIG1        0.1662
     40 O          -2.2524   -4.9361   -0.5097 O.3     1  LIG1       -0.4895
     41 C          -1.6720   -5.9990    0.2384 C.3     1  LIG1        0.0791
     42 H          -0.6035   -5.9681    0.0368 H       1  LIG1        0.0660
     43 H          -1.8552   -5.8477    1.3051 H       1  LIG1        0.0660
     44 H          -2.0880   -6.9529   -0.0870 H       1  LIG1        0.0660
     45 O          -4.5111   -7.1634   -0.3210 O.3     1  LIG1       -0.4895
     46 C          -4.6248   -7.7380    0.9841 C.3     1  LIG1        0.0791
     47 H          -4.5215   -8.8140    0.8558 H       1  LIG1        0.0660
     48 H          -3.8324   -7.3601    1.6324 H       1  LIG1        0.0660
     49 H          -5.5975   -7.4978    1.4177 H       1  LIG1        0.0660
     50 C          -7.1916   -5.6377   -0.1675 C.ar    1  LIG1        0.1126
     51 C          -8.3573   -4.9789    0.1459 C.ar    1  LIG1        0.1884
     52 C          -9.4177   -5.9290    0.0688 C.ar    1  LIG1        0.1795
     53 C          -8.8619   -7.1281   -0.3070 C.ar    1  LIG1        0.0482
     54 N          -7.5119   -6.9374   -0.4375 N.ar    1  LIG1       -0.3534
     55 H          -6.8328   -7.6048   -0.7728 H       1  LIG1        0.1656
     56 H          -9.3305   -8.0809   -0.4740 H       1  LIG1        0.0845
     57 O          -8.4448   -3.6475    0.4617 O.3     1  LIG1       -0.4895
     58 C          -8.6757   -3.4299    1.8562 C.3     1  LIG1        0.0791
     59 H          -8.7507   -2.3533    1.9929 H       1  LIG1        0.0660
     60 H          -9.6031   -3.9206    2.1565 H       1  LIG1        0.0660
     61 H          -7.8373   -3.8270    2.4319 H       1  LIG1        0.0660
     62 O         -10.7328   -5.6913    0.3477 O.3     1  LIG1       -0.4900
     63 C         -11.3114   -4.7138   -0.5159 C.3     1  LIG1        0.0790
     64 H         -12.3400   -4.5837   -0.1864 H       1  LIG1        0.0660
     65 H         -10.7653   -3.7720   -0.4391 H       1  LIG1        0.0660
     66 H         -11.2882   -5.0708   -1.5476 H       1  LIG1        0.0660
@<TRIPOS>BOND
     1    28    25    1
     2    33    30    1
     3     6     5    1
     4    66    63    1
     5     7     1    1
     6    12     9    1
     7    27    25    1
     8    25    26    1
     9    25    24    1
    10     5     1   ar
    11     5     4   ar
    12     1     2   ar
    13    55    54    1
    14    30    31    1
    15    30    32    1
    16    30    29    1
    17    63    65    1
    18    63    64    1
    19    63    62    1
    20    40    35    1
    21    40    41    1
    22    56    53    1
    23     4    18    1
    24     4     3   ar
    25    23    22    1
    26    54    53   ar
    27    54    50   ar
    28    22    18   ar
    29    22    21   ar
    30     9    10    1
    31     9    11    1
    32     9     8    1
    33    35    36   ar
    34    35    34   ar
    35    18    19   ar
    36    45    36    1
    37    45    46    1
    38    36    37   ar
    39    53    52   ar
    40     2     3   ar
    41     2     8    1
    42    21    34    1
    43    21    20   ar
    44    34    38   ar
    45    37    38   ar
    46    37    50    1
    47    38    39    1
    48    19    20   ar
    49    19    24    1
    50    50    51   ar
    51    20    29    1
    52    44    41    1
    53    42    41    1
    54    52    51   ar
    55    52    62    1
    56     3    13    1
    57    51    57    1
    58    41    43    1
    59    57    58    1
    60    13    14    1
    61    47    46    1
    62    46    49    1
    63    46    48    1
    64    58    59    1
    65    58    60    1
    66    58    61    1
    67    16    14    1
    68    14    15    1
    69    14    17    1
