@<TRIPOS>MOLECULE
mol_data/opt/m06hf/geoms/mol2/13ll13ll-13ll-13ll-.out
 66 69 0 0 0
SMALL
GASTEIGER

@<TRIPOS>ATOM
      1 C           0.9499   -0.1918   -0.4980 C.ar    1  LIG1        0.0482
      2 C           0.4381    1.0223   -0.9071 C.ar    1  LIG1        0.1795
      3 C          -0.9770    0.9555   -0.7585 C.ar    1  LIG1        0.1884
      4 C          -1.2746   -0.2943   -0.2667 C.ar    1  LIG1        0.1126
      5 N          -0.1064   -0.9721   -0.1078 N.ar    1  LIG1       -0.3534
      6 H          -0.0766   -1.9067    0.2738 H       1  LIG1        0.1656
      7 H           1.9624   -0.5483   -0.4479 H       1  LIG1        0.0845
      8 O           1.0849    2.1204   -1.3853 O.3     1  LIG1       -0.4900
      9 C           2.4940    2.0124   -1.3951 C.3     1  LIG1        0.0790
     10 H           2.8760    2.9562   -1.7753 H       1  LIG1        0.0660
     11 H           2.8662    1.8381   -0.3817 H       1  LIG1        0.0660
     12 H           2.8084    1.1933   -2.0487 H       1  LIG1        0.0660
     13 O          -1.9110    1.9236   -1.0244 O.3     1  LIG1       -0.4895
     14 C          -1.8956    2.3516   -2.3877 C.3     1  LIG1        0.0791
     15 H          -2.6682    3.1116   -2.4813 H       1  LIG1        0.0660
     16 H          -0.9193    2.7711   -2.6305 H       1  LIG1        0.0660
     17 H          -2.1138    1.5048   -3.0420 H       1  LIG1        0.0660
     18 C          -2.5609   -0.8640    0.0796 C.ar    1  LIG1        0.1131
     19 C          -2.8742   -2.1379    0.4932 C.ar    1  LIG1        0.1891
     20 C          -4.2796   -2.1904    0.7088 C.ar    1  LIG1        0.1891
     21 C          -4.7810   -0.9309    0.4199 C.ar    1  LIG1        0.1131
     22 N          -3.7139   -0.1423    0.0574 N.ar    1  LIG1       -0.3458
     23 H          -3.7482    0.8070   -0.2880 H       1  LIG1        0.1662
     24 O          -1.9598   -3.1422    0.6697 O.3     1  LIG1       -0.4895
     25 C          -2.1950   -4.2564   -0.1944 C.3     1  LIG1        0.0791
     26 H          -1.4392   -5.0002    0.0487 H       1  LIG1        0.0660
     27 H          -3.1933   -4.6558   -0.0140 H       1  LIG1        0.0660
     28 H          -2.0972   -3.9404   -1.2352 H       1  LIG1        0.0660
     29 O          -4.9088   -3.3208    1.1199 O.3     1  LIG1       -0.4895
     30 C          -5.8634   -3.1726    2.1682 C.3     1  LIG1        0.0791
     31 H          -5.9945   -4.1649    2.5945 H       1  LIG1        0.0660
     32 H          -5.4758   -2.4876    2.9253 H       1  LIG1        0.0660
     33 H          -6.8097   -2.8103    1.7706 H       1  LIG1        0.0660
     34 C          -6.1316   -0.3795    0.4544 C.ar    1  LIG1        0.1131
     35 C          -7.3360   -0.9391    0.0891 C.ar    1  LIG1        0.1891
     36 C          -8.3486    0.0496    0.2572 C.ar    1  LIG1        0.1891
     37 C          -7.7316    1.1977    0.7201 C.ar    1  LIG1        0.1131
     38 N          -6.3865    0.9056    0.8346 N.ar    1  LIG1       -0.3458
     39 H          -5.7034    1.5487    1.2021 H       1  LIG1        0.1662
     40 O          -7.5237   -2.2183   -0.3369 O.3     1  LIG1       -0.4895
     41 C          -7.8343   -2.3062   -1.7264 C.3     1  LIG1        0.0791
     42 H          -7.9718   -3.3627   -1.9431 H       1  LIG1        0.0660
     43 H          -8.7503   -1.7526   -1.9373 H       1  LIG1        0.0660
     44 H          -7.0060   -1.9053   -2.3140 H       1  LIG1        0.0660
     45 O          -9.6416   -0.2228   -0.0314 O.3     1  LIG1       -0.4895
     46 C         -10.5610    0.8579    0.0498 C.3     1  LIG1        0.0791
     47 H         -11.5251    0.4445   -0.2362 H       1  LIG1        0.0660
     48 H         -10.6081    1.2427    1.0719 H       1  LIG1        0.0660
     49 H         -10.2680    1.6589   -0.6321 H       1  LIG1        0.0660
     50 C          -8.2235    2.5263    1.1050 C.ar    1  LIG1        0.1126
     51 C          -8.6925    3.5683    0.3382 C.ar    1  LIG1        0.1884
     52 C          -9.0341    4.6341    1.2210 C.ar    1  LIG1        0.1795
     53 C          -8.7570    4.2113    2.5027 C.ar    1  LIG1        0.0482
     54 N          -8.2728    2.9342    2.4120 N.ar    1  LIG1       -0.3534
     55 H          -8.0396    2.3391    3.1896 H       1  LIG1        0.1656
     56 H          -8.8687    4.7067    3.4501 H       1  LIG1        0.0845
     57 O          -8.8584    3.5432   -1.0122 O.3     1  LIG1       -0.4895
     58 C          -8.0749    4.5125   -1.7057 C.3     1  LIG1        0.0791
     59 H          -8.2882    4.3758   -2.7634 H       1  LIG1        0.0660
     60 H          -8.3546    5.5176   -1.3886 H       1  LIG1        0.0660
     61 H          -7.0148    4.3379   -1.5100 H       1  LIG1        0.0660
     62 O          -9.5302    5.8216    0.7841 O.3     1  LIG1       -0.4900
     63 C          -9.8416    6.7470    1.8063 C.3     1  LIG1        0.0790
     64 H         -10.2380    7.6311    1.3143 H       1  LIG1        0.0660
     65 H         -10.5932    6.3270    2.4810 H       1  LIG1        0.0660
     66 H          -8.9417    7.0066    2.3721 H       1  LIG1        0.0660
@<TRIPOS>BOND
     1    17    14    1
     2    59    58    1
     3    16    14    1
     4    15    14    1
     5    14    13    1
     6    44    41    1
     7    12     9    1
     8    42    41    1
     9    43    41    1
    10    10     9    1
    11    41    40    1
    12    58    61    1
    13    58    60    1
    14    58    57    1
    15     9     8    1
    16     9    11    1
    17     8     2    1
    18    28    25    1
    19    13     3    1
    20    57    51    1
    21     2     3   ar
    22     2     1   ar
    23     3     4   ar
    24    49    46    1
    25     1     7    1
    26     1     5   ar
    27    40    35    1
    28    23    22    1
    29     4     5   ar
    30     4    18    1
    31    47    46    1
    32    25    27    1
    33    25    26    1
    34    25    24    1
    35     5     6    1
    36    45    46    1
    37    45    36    1
    38    46    48    1
    39    22    18   ar
    40    22    21   ar
    41    18    19   ar
    42    35    36   ar
    43    35    34   ar
    44    36    37   ar
    45    51    50   ar
    46    51    52   ar
    47    21    34    1
    48    21    20   ar
    49    34    38   ar
    50    19    24    1
    51    19    20   ar
    52    20    29    1
    53    37    38   ar
    54    37    50    1
    55    62    52    1
    56    62    63    1
    57    38    39    1
    58    50    54   ar
    59    29    30    1
    60    52    53   ar
    61    64    63    1
    62    33    30    1
    63    63    66    1
    64    63    65    1
    65    30    31    1
    66    30    32    1
    67    54    53   ar
    68    54    55    1
    69    53    56    1
