@<TRIPOS>MOLECULE
mol_data/opt/m06hf/geoms/mol2/13ll12fi-13ae-13ld.out
 52 55 0 0 0
SMALL
GASTEIGER

@<TRIPOS>ATOM
      1 C           1.2467   -0.4893   -0.1590 C.ar    1  LIG1        0.0482
      2 C           0.8531    0.7689    0.2401 C.ar    1  LIG1        0.1795
      3 C          -0.5685    0.7869    0.2286 C.ar    1  LIG1        0.1900
      4 C          -0.9999   -0.4587   -0.1692 C.ar    1  LIG1        0.1317
      5 N           0.1062   -1.2145   -0.4071 N.ar    1  LIG1       -0.3521
      6 H           0.0742   -2.1604   -0.7501 H       1  LIG1        0.1656
      7 H           2.2232   -0.9191   -0.2872 H       1  LIG1        0.0845
      8 O           1.5936    1.8403    0.6192 O.3     1  LIG1       -0.4900
      9 C           2.9926    1.6420    0.5568 C.3     1  LIG1        0.0790
     10 H           3.4521    2.5745    0.8720 H       1  LIG1        0.0660
     11 H           3.2911    0.8325    1.2293 H       1  LIG1        0.0660
     12 H           3.2958    1.4027   -0.4662 H       1  LIG1        0.0660
     13 O          -1.3858    1.8395    0.5599 O.3     1  LIG1       -0.4894
     14 C          -1.4458    2.0815    1.9716 C.3     1  LIG1        0.0791
     15 H          -2.1252    2.9190    2.1105 H       1  LIG1        0.0660
     16 H          -1.8250    1.1910    2.4758 H       1  LIG1        0.0660
     17 H          -0.4490    2.3312    2.3338 H       1  LIG1        0.0660
     18 C          -2.3559   -0.9388   -0.3454 C.ar    1  LIG1        0.1969
     19 C          -3.5555   -0.2938   -0.3795 C.ar    1  LIG1        0.1679
     20 C          -4.5697   -1.2967   -0.5768 C.ar    1  LIG1        0.0389
     21 C          -3.8918   -2.4720   -0.6637 C.ar    1  LIG1        0.1584
     22 O          -2.5549   -2.2775   -0.5185 O.2     1  LIG1       -0.4477
     23 O          -3.8284    1.0193   -0.2614 O.3     1  LIG1       -0.5030
     24 H          -3.0011    1.5054   -0.0669 H       1  LIG1        0.2923
     25 C          -6.0496   -1.0367   -0.6498 C.3     1  LIG1       -0.0325
     26 H          -6.5998   -1.8424   -0.1621 H       1  LIG1        0.0280
     27 H          -6.3784   -0.9594   -1.6877 H       1  LIG1        0.0280
     28 H          -6.2658   -0.0942   -0.1487 H       1  LIG1        0.0280
     29 C          -4.3165   -3.8477   -0.8664 C.ar    1  LIG1        0.0842
     30 C          -5.4787   -4.3826   -1.3792 C.ar    1  LIG1       -0.0173
     31 C          -5.3317   -5.7995   -1.3432 C.ar    1  LIG1        0.0521
     32 C          -4.0774   -6.0676   -0.8128 C.ar    1  LIG1        0.0826
     33 N          -3.4859   -4.8818   -0.5310 N.ar    1  LIG1       -0.3495
     34 H          -2.5507   -4.7993   -0.1507 H       1  LIG1        0.1661
     35 H          -6.3244   -3.8391   -1.7623 H       1  LIG1        0.0652
     36 C          -6.2649   -6.7962   -1.7779 C.1     1  LIG1       -0.0675
     37 C          -7.0372   -7.6459   -2.1440 C.1     1  LIG1       -0.1138
     38 H          -7.7465   -8.3705   -2.4720 H       1  LIG1        0.1232
     39 C          -3.3933   -7.3210   -0.5510 C.ar    1  LIG1        0.1076
     40 C          -2.1907   -7.5261    0.0829 C.ar    1  LIG1        0.1640
     41 C          -1.9437   -8.9304    0.0837 C.ar    1  LIG1        0.1112
     42 C          -3.0134   -9.5247   -0.5591 C.ar    1  LIG1        0.0233
     43 N          -3.8672   -8.5478   -0.9351 N.ar    1  LIG1       -0.3553
     44 H          -4.7452   -8.6673   -1.4244 H       1  LIG1        0.1655
     45 H          -3.1981  -10.5642   -0.7652 H       1  LIG1        0.0821
     46 O          -1.4046   -6.5353    0.5934 O.3     1  LIG1       -0.4916
     47 C          -1.3748   -6.5128    2.0275 C.3     1  LIG1        0.0789
     48 H          -0.7361   -5.6784    2.3045 H       1  LIG1        0.0660
     49 H          -2.3866   -6.3661    2.4106 H       1  LIG1        0.0660
     50 H          -0.9572   -7.4455    2.4073 H       1  LIG1        0.0660
     51 N           0.1133  -10.0954    1.1164 N.1     1  LIG1       -0.1907
     52 C          -0.8035   -9.5902    0.6440 C.1     1  LIG1        0.1044
@<TRIPOS>BOND
     1    38    37    1
     2    37    36    3
     3    36    31    1
     4    35    30    1
     5    27    25    1
     6    44    43    1
     7    30    31   ar
     8    30    29   ar
     9    31    32   ar
    10    43    42   ar
    11    43    39   ar
    12    29    21    1
    13    29    33   ar
    14    32    39    1
    15    32    33   ar
    16    45    42    1
    17     6     5    1
    18    21    20   ar
    19    21    22   ar
    20    25    20    1
    21    25    26    1
    22    25    28    1
    23    20    19   ar
    24    42    41   ar
    25    39    40   ar
    26    33    34    1
    27    22    18   ar
    28    12     9    1
    29     5     4   ar
    30     5     1   ar
    31    19    18   ar
    32    19    23    1
    33    18     4    1
    34     7     1    1
    35    23    24    1
    36     4     3   ar
    37     1     2   ar
    38    40    41   ar
    39    40    46    1
    40    41    52    1
    41     3     2   ar
    42     3    13    1
    43     2     8    1
    44     9     8    1
    45     9    10    1
    46     9    11    1
    47    13    14    1
    48    46    47    1
    49    52    51    3
    50    14    15    1
    51    14    17    1
    52    14    16    1
    53    47    48    1
    54    47    50    1
    55    47    49    1
