@<TRIPOS>MOLECULE
mol_data/opt/m06hf/geoms/mol2/13ll13ll-13ll13ll-.out
 66 69 0 0 0
SMALL
GASTEIGER

@<TRIPOS>ATOM
      1 C           1.3502   -0.6121    0.2554 C.ar    1  LIG1        0.0482
      2 C           0.9754    0.7129    0.1765 C.ar    1  LIG1        0.1795
      3 C          -0.4444    0.7461    0.0835 C.ar    1  LIG1        0.1884
      4 C          -0.8852   -0.5574    0.1146 C.ar    1  LIG1        0.1126
      5 N           0.2046   -1.3651    0.2090 N.ar    1  LIG1       -0.3534
      6 H           0.1252   -2.3700    0.2570 H       1  LIG1        0.1656
      7 H           2.3204   -1.0669    0.3378 H       1  LIG1        0.0845
      8 O           1.7409    1.8378    0.1859 O.3     1  LIG1       -0.4900
      9 C           3.1321    1.6006    0.2503 C.3     1  LIG1        0.0790
     10 H           3.6147    2.5743    0.2357 H       1  LIG1        0.0660
     11 H           3.3856    1.0721    1.1741 H       1  LIG1        0.0660
     12 H           3.4552    1.0104   -0.6120 H       1  LIG1        0.0660
     13 O          -1.2611    1.8420   -0.0208 O.3     1  LIG1       -0.4895
     14 C          -1.2299    2.6685    1.1437 C.3     1  LIG1        0.0791
     15 H          -1.9201    3.4883    0.9565 H       1  LIG1        0.0660
     16 H          -1.5544    2.0918    2.0130 H       1  LIG1        0.0660
     17 H          -0.2198    3.0479    1.3004 H       1  LIG1        0.0660
     18 C          -2.2447   -1.0531    0.0422 C.ar    1  LIG1        0.1131
     19 C          -2.7235   -2.3484    0.0456 C.ar    1  LIG1        0.1891
     20 C          -4.1442   -2.2654   -0.0359 C.ar    1  LIG1        0.1891
     21 C          -4.4659   -0.9195   -0.0735 C.ar    1  LIG1        0.1131
     22 N          -3.3109   -0.2073   -0.0252 N.ar    1  LIG1       -0.3458
     23 H          -3.2388    0.8041   -0.0497 H       1  LIG1        0.1662
     24 O          -1.8971   -3.4322    0.1765 O.3     1  LIG1       -0.4895
     25 C          -2.2919   -4.5840   -0.5586 C.3     1  LIG1        0.0791
     26 H          -1.5454   -5.3482   -0.3543 H       1  LIG1        0.0660
     27 H          -3.2741   -4.9210   -0.2255 H       1  LIG1        0.0660
     28 H          -2.3102   -4.3565   -1.6275 H       1  LIG1        0.0660
     29 O          -5.0750   -3.2780   -0.0692 O.3     1  LIG1       -0.4895
     30 C          -5.5481   -3.5858   -1.3847 C.3     1  LIG1        0.0791
     31 H          -6.3907   -4.2622   -1.2552 H       1  LIG1        0.0660
     32 H          -5.8753   -2.6755   -1.8894 H       1  LIG1        0.0660
     33 H          -4.7596   -4.0652   -1.9669 H       1  LIG1        0.0660
     34 C          -5.7667   -0.2871   -0.1273 C.ar    1  LIG1        0.1131
     35 C          -6.0822    1.0467   -0.2912 C.ar    1  LIG1        0.1891
     36 C          -7.5010    1.1463   -0.2881 C.ar    1  LIG1        0.1891
     37 C          -7.9962   -0.1285   -0.1111 C.ar    1  LIG1        0.1131
     38 N          -6.9347   -0.9799   -0.0188 N.ar    1  LIG1       -0.3458
     39 H          -7.0193   -1.9747    0.1569 H       1  LIG1        0.1662
     40 O          -5.1638    2.0578   -0.4222 O.3     1  LIG1       -0.4895
     41 C          -5.0199    2.5006   -1.7748 C.3     1  LIG1        0.0791
     42 H          -4.2623    3.2810   -1.7642 H       1  LIG1        0.0660
     43 H          -4.6952    1.6674   -2.4010 H       1  LIG1        0.0660
     44 H          -5.9714    2.8925   -2.1390 H       1  LIG1        0.0660
     45 O          -8.2723    2.2699   -0.4371 O.3     1  LIG1       -0.4895
     46 C          -8.0136    3.2456    0.5759 C.3     1  LIG1        0.0791
     47 H          -8.6556    4.0959    0.3578 H       1  LIG1        0.0660
     48 H          -8.2509    2.8286    1.5566 H       1  LIG1        0.0660
     49 H          -6.9642    3.5424    0.5436 H       1  LIG1        0.0660
     50 C          -9.3622   -0.6043   -0.0397 C.ar    1  LIG1        0.1126
     51 C          -9.8168   -1.8901    0.1414 C.ar    1  LIG1        0.1884
     52 C         -11.2398   -1.8399    0.1221 C.ar    1  LIG1        0.1795
     53 C         -11.6007   -0.5243   -0.0799 C.ar    1  LIG1        0.0482
     54 N         -10.4445    0.2076   -0.1800 N.ar    1  LIG1       -0.3534
     55 H         -10.3562    1.1935   -0.3771 H       1  LIG1        0.1656
     56 H         -12.5680   -0.0637   -0.1643 H       1  LIG1        0.0845
     57 O          -9.0068   -2.9856    0.2857 O.3     1  LIG1       -0.4895
     58 C          -9.1443   -3.6238    1.5574 C.3     1  LIG1        0.0791
     59 H          -8.4537   -4.4642    1.5539 H       1  LIG1        0.0660
     60 H          -8.8817   -2.9215    2.3516 H       1  LIG1        0.0660
     61 H         -10.1692   -3.9721    1.6862 H       1  LIG1        0.0660
     62 O         -12.0179   -2.9425    0.2900 O.3     1  LIG1       -0.4900
     63 C         -13.4081   -2.7018    0.2134 C.3     1  LIG1        0.0790
     64 H         -13.8972   -3.6621    0.3551 H       1  LIG1        0.0660
     65 H         -13.7183   -2.0059    0.9984 H       1  LIG1        0.0660
     66 H         -13.6681   -2.2915   -0.7663 H       1  LIG1        0.0660
@<TRIPOS>BOND
     1    43    41    1
     2    44    41    1
     3    33    30    1
     4    32    30    1
     5    41    42    1
     6    41    40    1
     7    28    25    1
     8    30    31    1
     9    30    29    1
    10    66    63    1
    11    12     9    1
    12    25    26    1
    13    25    27    1
    14    25    24    1
    15    45    36    1
    16    45    46    1
    17    40    35    1
    18    55    54    1
    19    35    36   ar
    20    35    34   ar
    21    36    37   ar
    22    54    53   ar
    23    54    50   ar
    24    56    53    1
    25    34    21    1
    26    34    38   ar
    27    37    50    1
    28    37    38   ar
    29    53    52   ar
    30    21    20   ar
    31    21    22   ar
    32    29    20    1
    33    23    22    1
    34    50    51   ar
    35    20    19   ar
    36    22    18   ar
    37    13     3    1
    38    13    14    1
    39    38    39    1
    40    18    19   ar
    41    18     4    1
    42    19    24    1
    43     3     4   ar
    44     3     2   ar
    45     4     5   ar
    46    52    51   ar
    47    52    62    1
    48    51    57    1
    49     2     8    1
    50     2     1   ar
    51     8     9    1
    52     5     1   ar
    53     5     6    1
    54    63    62    1
    55    63    64    1
    56    63    65    1
    57    10     9    1
    58     9    11    1
    59     1     7    1
    60    57    58    1
    61    47    46    1
    62    49    46    1
    63    46    48    1
    64    15    14    1
    65    14    17    1
    66    14    16    1
    67    59    58    1
    68    58    61    1
    69    58    60    1
