@<TRIPOS>MOLECULE
mol_data/opt/m06hf/geoms/mol2/2.out
 6 5 0 0 0
SMALL
GASTEIGER

@<TRIPOS>ATOM
      1 C           0.0039    0.0137    0.0000 C.2     1  LIG1       -0.1058
      2 H           1.0864    0.0061   -0.0006 H       1  LIG1        0.0529
      3 C          -0.6802    1.1490    0.0002 C.2     1  LIG1       -0.1058
      4 H          -1.7627    1.1566    0.0009 H       1  LIG1        0.0529
      5 H          -0.1812    2.1096   -0.0001 H       1  LIG1        0.0529
      6 H          -0.4951   -0.9470    0.0005 H       1  LIG1        0.0529
@<TRIPOS>BOND
     1     2     1    1
     2     5     3    1
     3     1     3    2
     4     1     6    1
     5     3     4    1
