@<TRIPOS>MOLECULE
mol_data/opt/m06hf/geoms/mol2/22-.out
 10 9 0 0 0
SMALL
GASTEIGER

@<TRIPOS>ATOM
      1 C          -0.0190   -0.0742   -0.0002 C.2     1  LIG1       -0.0987
      2 H           1.0631   -0.1070   -0.0020 H       1  LIG1        0.0535
      3 C          -0.6950    1.0721    0.0005 C.2     1  LIG1       -0.0694
      4 H          -1.7784    1.0341    0.0021 H       1  LIG1        0.0612
      5 H          -0.5393   -1.0227    0.0011 H       1  LIG1        0.0535
      6 C          -0.1055    2.4369   -0.0009 C.2     1  LIG1       -0.0694
      7 H          -0.8206    3.2517   -0.0024 H       1  LIG1        0.0612
      8 C           1.1924    2.7306   -0.0003 C.2     1  LIG1       -0.0987
      9 H           1.9581    1.9652    0.0016 H       1  LIG1        0.0535
     10 H           1.5263    3.7596   -0.0015 H       1  LIG1        0.0535
@<TRIPOS>BOND
     1     7     6    1
     2     2     1    1
     3    10     8    1
     4     6     8    2
     5     6     3    1
     6     8     9    1
     7     1     3    2
     8     1     5    1
     9     3     4    1
