@<TRIPOS>MOLECULE
mol_data/opt/m06hf/geoms/mol2/22-2.out
 14 13 0 0 0
SMALL
GASTEIGER

@<TRIPOS>ATOM
      1 C          -0.0422   -0.1510   -0.0001 C.2     1  LIG1       -0.0987
      2 H           1.0400   -0.1818   -0.0034 H       1  LIG1        0.0535
      3 C          -0.7238    0.9933    0.0007 C.2     1  LIG1       -0.0689
      4 H          -1.8071    0.9483    0.0032 H       1  LIG1        0.0612
      5 H          -0.5602   -1.1007    0.0022 H       1  LIG1        0.0535
      6 C          -0.1535    2.3621   -0.0020 C.2     1  LIG1       -0.0623
      7 H          -0.8829    3.1643   -0.0062 H       1  LIG1        0.0617
      8 C           1.1480    2.6655    0.0003 C.2     1  LIG1       -0.0623
      9 H           1.8775    1.8632    0.0045 H       1  LIG1        0.0617
     10 C           1.7184    4.0342   -0.0024 C.2     1  LIG1       -0.0689
     11 H           2.8016    4.0793   -0.0047 H       1  LIG1        0.0612
     12 C           1.0368    5.1786   -0.0018 C.2     1  LIG1       -0.0987
     13 H          -0.0455    5.2093    0.0012 H       1  LIG1        0.0535
     14 H           1.5547    6.1282   -0.0042 H       1  LIG1        0.0535
@<TRIPOS>BOND
     1     7     6    1
     2    11    10    1
     3    14    12    1
     4     2     1    1
     5    10    12    2
     6    10     8    1
     7     6     8    2
     8     6     3    1
     9    12    13    1
    10     1     3    2
    11     1     5    1
    12     8     9    1
    13     3     4    1
