@<TRIPOS>MOLECULE
mol_data/opt/m06hf/geoms/mol2/22-2-2-.out
 18 17 0 0 0
SMALL
GASTEIGER

@<TRIPOS>ATOM
      1 C          -0.1317   -0.1808   -0.0007 C.2     1  LIG1       -0.0987
      2 H           0.9486   -0.2529   -0.0050 H       1  LIG1        0.0535
      3 C          -0.7687    0.9896    0.0016 C.2     1  LIG1       -0.0689
      4 H          -1.8529    0.9883    0.0052 H       1  LIG1        0.0612
      5 H          -0.6847   -1.1106    0.0014 H       1  LIG1        0.0535
      6 C          -0.1399    2.3299   -0.0005 C.2     1  LIG1       -0.0623
      7 H          -0.8247    3.1717   -0.0023 H       1  LIG1        0.0617
      8 C           1.1744    2.5837   -0.0002 C.2     1  LIG1       -0.0618
      9 H           1.8938    1.7710    0.0023 H       1  LIG1        0.0618
     10 C           1.7228    3.9417   -0.0027 C.2     1  LIG1       -0.0618
     11 H           1.0099    4.7614   -0.0051 H       1  LIG1        0.0618
     12 C           3.0356    4.2052   -0.0023 C.2     1  LIG1       -0.0623
     13 H           3.7497    3.3866   -0.0000 H       1  LIG1        0.0617
     14 C           3.5866    5.5668   -0.0050 C.2     1  LIG1       -0.0689
     15 H           2.8702    6.3821   -0.0073 H       1  LIG1        0.0612
     16 C           4.8934    5.8264   -0.0047 C.2     1  LIG1       -0.0987
     17 H           5.6236    5.0257   -0.0024 H       1  LIG1        0.0535
     18 H           5.2681    6.8409   -0.0067 H       1  LIG1        0.0535
@<TRIPOS>BOND
     1    15    14    1
     2    18    16    1
     3    11    10    1
     4     2     1    1
     5    14    16    2
     6    14    12    1
     7    16    17    1
     8    10    12    2
     9    10     8    1
    10    12    13    1
    11     7     6    1
    12     1     5    1
    13     1     3    2
    14     6     8    2
    15     6     3    1
    16     8     9    1
    17     3     4    1
