@<TRIPOS>MOLECULE
mol_data/opt/m06hf/geoms/mol2/22-2-2.out
 18 17 0 0 0
SMALL
GASTEIGER

@<TRIPOS>ATOM
      1 C          -0.1036   -0.1776   -0.1268 C.2     1  LIG1       -0.0987
      2 H           0.8979   -0.1826   -0.5394 H       1  LIG1        0.0535
      3 C          -0.7476    0.9645    0.1062 C.2     1  LIG1       -0.0689
      4 H          -1.7712    0.9380    0.4652 H       1  LIG1        0.0612
      5 H          -0.5674   -1.1343    0.0738 H       1  LIG1        0.0535
      6 C          -0.1589    2.3048   -0.1112 C.2     1  LIG1       -0.0623
      7 H          -0.8270    3.0833   -0.4670 H       1  LIG1        0.0617
      8 C           1.1244    2.6027    0.1232 C.2     1  LIG1       -0.0618
      9 H           1.7841    1.8461    0.5368 H       1  LIG1        0.0618
     10 C           1.6992    3.9290   -0.1272 C.2     1  LIG1       -0.0618
     11 H           1.0396    4.6855   -0.5412 H       1  LIG1        0.0618
     12 C           2.9824    4.2271    0.1075 C.2     1  LIG1       -0.0623
     13 H           3.6505    3.4487    0.4635 H       1  LIG1        0.0617
     14 C           3.5710    5.5674   -0.1098 C.2     1  LIG1       -0.0689
     15 H           4.5948    5.5941   -0.4684 H       1  LIG1        0.0612
     16 C           2.9268    6.7095    0.1228 C.2     1  LIG1       -0.0987
     17 H           1.9251    6.7144    0.5351 H       1  LIG1        0.0535
     18 H           3.3904    7.6662   -0.0777 H       1  LIG1        0.0535
@<TRIPOS>BOND
     1    11    10    1
     2     2     1    1
     3    15    14    1
     4     7     6    1
     5    10    12    2
     6    10     8    1
     7     1     5    1
     8     1     3    2
     9     6     3    1
    10     6     8    2
    11    14    12    1
    12    14    16    2
    13    18    16    1
    14     3     4    1
    15    12    13    1
    16    16    17    1
    17     8     9    1
