@<TRIPOS>MOLECULE
mol_data/opt/m06hf/geoms/mol2/22-2-.out
 14 13 0 0 0
SMALL
GASTEIGER

@<TRIPOS>ATOM
      1 C          -0.0780   -0.1403    0.0006 C.2     1  LIG1       -0.0987
      2 H           1.0031   -0.2032    0.0001 H       1  LIG1        0.0535
      3 C          -0.7247    1.0243    0.0002 C.2     1  LIG1       -0.0689
      4 H          -1.8088    1.0132    0.0007 H       1  LIG1        0.0612
      5 H          -0.6227   -1.0748    0.0013 H       1  LIG1        0.0535
      6 C          -0.1084    2.3710   -0.0007 C.2     1  LIG1       -0.0623
      7 H          -0.8033    3.2047   -0.0013 H       1  LIG1        0.0617
      8 C           1.2015    2.6412   -0.0010 C.2     1  LIG1       -0.0623
      9 H           1.9341    1.8403   -0.0005 H       1  LIG1        0.0617
     10 C           1.7303    4.0125   -0.0020 C.2     1  LIG1       -0.0689
     11 H           0.9999    4.8151   -0.0026 H       1  LIG1        0.0612
     12 C           3.0323    4.2945   -0.0023 C.2     1  LIG1       -0.0987
     13 H           3.7762    3.5067   -0.0018 H       1  LIG1        0.0535
     14 H           3.3887    5.3157   -0.0031 H       1  LIG1        0.0535
@<TRIPOS>BOND
     1    14    12    1
     2    11    10    1
     3    12    10    2
     4    12    13    1
     5    10     8    1
     6     7     6    1
     7     8     6    2
     8     8     9    1
     9     6     3    1
    10     2     1    1
    11     3     1    2
    12     3     4    1
    13     1     5    1
