@<TRIPOS>MOLECULE
mol_data/opt/m06hf/geoms/mol2/22-22.out
 18 17 0 0 0
SMALL
GASTEIGER

@<TRIPOS>ATOM
      1 C          -0.2032    0.0189   -0.5880 C.2     1  LIG1       -0.0987
      2 H           0.5498    0.2995   -1.3141 H       1  LIG1        0.0535
      3 C          -0.6432    0.8903    0.3177 C.2     1  LIG1       -0.0689
      4 H          -1.4401    0.6026    0.9957 H       1  LIG1        0.0612
      5 H          -0.5968   -0.9880   -0.6364 H       1  LIG1        0.0535
      6 C          -0.1200    2.2682    0.4569 C.2     1  LIG1       -0.0623
      7 H          -0.8313    3.0451    0.7200 H       1  LIG1        0.0617
      8 C           1.1722    2.5864    0.3165 C.2     1  LIG1       -0.0618
      9 H           1.8970    1.7908    0.1756 H       1  LIG1        0.0618
     10 C           1.6923    3.9664    0.3869 C.2     1  LIG1       -0.0618
     11 H           2.6749    4.0974    0.8303 H       1  LIG1        0.0618
     12 C           1.0367    5.0390   -0.0716 C.2     1  LIG1       -0.0623
     13 H           0.0821    4.9131   -0.5731 H       1  LIG1        0.0617
     14 C           1.5556    6.4098    0.0460 C.2     1  LIG1       -0.0689
     15 H           2.5145    6.5265    0.5401 H       1  LIG1        0.0612
     16 C           0.9077    7.4781   -0.4159 C.2     1  LIG1       -0.0987
     17 H          -0.0511    7.3812   -0.9109 H       1  LIG1        0.0535
     18 H           1.3153    8.4745   -0.3114 H       1  LIG1        0.0535
@<TRIPOS>BOND
     1     2     1    1
     2    17    16    1
     3     5     1    1
     4     1     3    2
     5    13    12    1
     6    16    18    1
     7    16    14    2
     8    12    14    1
     9    12    10    2
    10    14    15    1
    11     9     8    1
    12     8    10    1
    13     8     6    2
    14     3     6    1
    15     3     4    1
    16    10    11    1
    17     6     7    1
