@<TRIPOS>MOLECULE
mol_data/opt/m06hf/geoms/mol2/22-22-.out
 18 17 0 0 0
SMALL
GASTEIGER

@<TRIPOS>ATOM
      1 C          -0.0935   -0.1983   -0.1440 C.2     1  LIG1       -0.0987
      2 H           0.8892   -0.1883   -0.5990 H       1  LIG1        0.0535
      3 C          -0.7381    0.9344    0.1265 C.2     1  LIG1       -0.0689
      4 H          -1.7450    0.8938    0.5288 H       1  LIG1        0.0612
      5 H          -0.5384   -1.1617    0.0680 H       1  LIG1        0.0535
      6 C          -0.1746    2.2849   -0.1105 C.2     1  LIG1       -0.0623
      7 H          -0.8527    3.0431   -0.4899 H       1  LIG1        0.0617
      8 C           1.1031    2.6030    0.1164 C.2     1  LIG1       -0.0618
      9 H           1.7758    1.8390    0.4940 H       1  LIG1        0.0618
     10 C           1.6831    3.9442   -0.1207 C.2     1  LIG1       -0.0618
     11 H           2.7005    3.9774   -0.4983 H       1  LIG1        0.0618
     12 C           1.0398    5.0931    0.1065 C.2     1  LIG1       -0.0623
     13 H           0.0231    5.0679    0.4861 H       1  LIG1        0.0617
     14 C           1.6381    6.4286   -0.1305 C.2     1  LIG1       -0.0689
     15 H           0.9783    7.1900   -0.5336 H       1  LIG1        0.0612
     16 C           2.9047    6.7346    0.1406 C.2     1  LIG1       -0.0987
     17 H           3.5701    6.0117    0.5961 H       1  LIG1        0.0535
     18 H           3.3023    7.7185   -0.0715 H       1  LIG1        0.0535
@<TRIPOS>BOND
     1     2     1    1
     2    15    14    1
     3    11    10    1
     4     7     6    1
     5     1     5    1
     6     1     3    2
     7    14    12    1
     8    14    16    2
     9    10    12    2
    10    10     8    1
    11     6     8    2
    12     6     3    1
    13    18    16    1
    14    12    13    1
    15     8     9    1
    16     3     4    1
    17    16    17    1
