@<TRIPOS>MOLECULE
mol_data/opt/m06hf/geoms/mol2/22.out
 10 9 0 0 0
SMALL
GASTEIGER

@<TRIPOS>ATOM
      1 C          -0.0188   -0.0347    0.0002 C.2     1  LIG1       -0.0987
      2 H           1.0646   -0.0178   -0.0006 H       1  LIG1        0.0535
      3 C          -0.7253    1.0934    0.0002 C.2     1  LIG1       -0.0694
      4 H          -1.8101    1.0598    0.0010 H       1  LIG1        0.0612
      5 H          -0.4996   -1.0039    0.0008 H       1  LIG1        0.0535
      6 C          -0.1089    2.4326   -0.0007 C.2     1  LIG1       -0.0694
      7 H           0.9758    2.4662   -0.0014 H       1  LIG1        0.0612
      8 C          -0.8155    3.5606   -0.0006 C.2     1  LIG1       -0.0987
      9 H          -1.8989    3.5438    0.0001 H       1  LIG1        0.0535
     10 H          -0.3347    4.5299   -0.0013 H       1  LIG1        0.0535
@<TRIPOS>BOND
     1     7     6    1
     2    10     8    1
     3     6     8    2
     4     6     3    1
     5     8     9    1
     6     2     1    1
     7     1     3    2
     8     1     5    1
     9     3     4    1
