@<TRIPOS>MOLECULE
mol_data/opt/m06hf/geoms/mol2/222-.out
 14 13 0 0 0
SMALL
GASTEIGER

@<TRIPOS>ATOM
      1 C          -0.0463   -0.1090   -0.0686 C.2     1  LIG1       -0.0987
      2 H           0.9909   -0.1023   -0.3815 H       1  LIG1        0.0535
      3 C          -0.7236    1.0263    0.0940 C.2     1  LIG1       -0.0689
      4 H          -1.7619    1.0016    0.4085 H       1  LIG1        0.0612
      5 H          -0.5070   -1.0720    0.1055 H       1  LIG1        0.0535
      6 C          -0.1329    2.3550   -0.1308 C.2     1  LIG1       -0.0623
      7 H           0.9043    2.3868   -0.4501 H       1  LIG1        0.0617
      8 C          -0.8153    3.4949    0.0192 C.2     1  LIG1       -0.0623
      9 H          -1.8685    3.4524    0.2807 H       1  LIG1        0.0617
     10 C          -0.2257    4.8396   -0.1713 C.2     1  LIG1       -0.0689
     11 H          -0.8648    5.5900   -0.6251 H       1  LIG1        0.0612
     12 C           1.0125    5.1657    0.1944 C.2     1  LIG1       -0.0987
     13 H           1.6522    4.4535    0.7010 H       1  LIG1        0.0535
     14 H           1.4100    6.1552    0.0109 H       1  LIG1        0.0535
@<TRIPOS>BOND
     1    11    10    1
     2     7     6    1
     3     2     1    1
     4    10     8    1
     5    10    12    2
     6     6     8    2
     7     6     3    1
     8     1     3    2
     9     1     5    1
    10    14    12    1
    11     8     9    1
    12     3     4    1
    13    12    13    1
