@<TRIPOS>MOLECULE
mol_data/opt/m06hf/geoms/mol2/222-2.out
 18 17 0 0 0
SMALL
GASTEIGER

@<TRIPOS>ATOM
      1 C          -0.0720   -0.1808   -0.0050 C.2     1  LIG1       -0.0987
      2 H           0.9873   -0.1850   -0.2336 H       1  LIG1        0.0535
      3 C          -0.7541    0.9603    0.0781 C.2     1  LIG1       -0.0689
      4 H          -1.8145    0.9456    0.3090 H       1  LIG1        0.0612
      5 H          -0.5501   -1.1378    0.1540 H       1  LIG1        0.0535
      6 C          -0.1424    2.2814   -0.1295 C.2     1  LIG1       -0.0623
      7 H           0.9163    2.3023   -0.3699 H       1  LIG1        0.0617
      8 C          -0.8316    3.4254   -0.0562 C.2     1  LIG1       -0.0618
      9 H          -1.9020    3.3850    0.1234 H       1  LIG1        0.0618
     10 C          -0.2408    4.7685   -0.2332 C.2     1  LIG1       -0.0618
     11 H          -0.8577    5.5147   -0.7246 H       1  LIG1        0.0618
     12 C           0.9871    5.1074    0.1725 C.2     1  LIG1       -0.0623
     13 H           1.6074    4.3659    0.6670 H       1  LIG1        0.0617
     14 C           1.5703    6.4572   -0.0117 C.2     1  LIG1       -0.0689
     15 H           2.6292    6.4981   -0.2461 H       1  LIG1        0.0612
     16 C           0.8829    7.5897    0.1154 C.2     1  LIG1       -0.0987
     17 H          -0.1606    7.5819    0.4055 H       1  LIG1        0.0535
     18 H           1.3501    8.5514   -0.0509 H       1  LIG1        0.0535
@<TRIPOS>BOND
     1    11    10    1
     2     7     6    1
     3    15    14    1
     4     2     1    1
     5    10     8    1
     6    10    12    2
     7     6     8    2
     8     6     3    1
     9     8     9    1
    10    18    16    1
    11    14    16    2
    12    14    12    1
    13     1     3    2
    14     1     5    1
    15     3     4    1
    16    16    17    1
    17    12    13    1
