@<TRIPOS>MOLECULE
mol_data/opt/m06hf/geoms/mol2/222-2-.out
 18 17 0 0 0
SMALL
GASTEIGER

@<TRIPOS>ATOM
      1 C          -0.1405   -0.2032    0.0006 C.2     1  LIG1       -0.0987
      2 H           0.9424   -0.2332   -0.0009 H       1  LIG1        0.0535
      3 C          -0.7985    0.9555    0.0008 C.2     1  LIG1       -0.0689
      4 H          -1.8836    0.9655    0.0023 H       1  LIG1        0.0612
      5 H          -0.6647   -1.1493    0.0020 H       1  LIG1        0.0535
      6 C          -0.1282    2.2626   -0.0011 C.2     1  LIG1       -0.0623
      7 H           0.9568    2.2480   -0.0027 H       1  LIG1        0.0617
      8 C          -0.8007    3.4203   -0.0009 C.2     1  LIG1       -0.0618
      9 H          -1.8851    3.3812    0.0005 H       1  LIG1        0.0618
     10 C          -0.2137    4.7741   -0.0026 C.2     1  LIG1       -0.0618
     11 H          -0.9265    5.5924   -0.0036 H       1  LIG1        0.0618
     12 C           1.0909    5.0746   -0.0028 C.2     1  LIG1       -0.0623
     13 H           1.8433    4.2926   -0.0016 H       1  LIG1        0.0617
     14 C           1.5868    6.4574   -0.0046 C.2     1  LIG1       -0.0689
     15 H           0.8379    7.2425   -0.0058 H       1  LIG1        0.0612
     16 C           2.8823    6.7690   -0.0050 C.2     1  LIG1       -0.0987
     17 H           3.6445    5.9992   -0.0039 H       1  LIG1        0.0535
     18 H           3.2146    7.7984   -0.0063 H       1  LIG1        0.0535
@<TRIPOS>BOND
     1    18    16    1
     2    15    14    1
     3    16    14    2
     4    16    17    1
     5    14    12    1
     6    11    10    1
     7    12    10    2
     8    12    13    1
     9     7     6    1
    10    10     8    1
    11     6     8    2
    12     6     3    1
    13     2     1    1
    14     8     9    1
    15     1     3    2
    16     1     5    1
    17     3     4    1
