@<TRIPOS>MOLECULE
mol_data/opt/m06hf/geoms/mol2/222.out
 14 13 0 0 0
SMALL
GASTEIGER

@<TRIPOS>ATOM
      1 C          -0.0189   -0.0828    0.0004 C.2     1  LIG1       -0.0987
      2 H           1.0644   -0.0558   -0.0005 H       1  LIG1        0.0535
      3 C          -0.7365    1.0397    0.0003 C.2     1  LIG1       -0.0689
      4 H          -1.8208    0.9929    0.0012 H       1  LIG1        0.0612
      5 H          -0.4912   -1.0558    0.0013 H       1  LIG1        0.0535
      6 C          -0.1353    2.3810   -0.0009 C.2     1  LIG1       -0.0623
      7 H           0.9499    2.4319   -0.0017 H       1  LIG1        0.0617
      8 C          -0.8539    3.5094   -0.0010 C.2     1  LIG1       -0.0623
      9 H          -1.9392    3.4586   -0.0002 H       1  LIG1        0.0617
     10 C          -0.2527    4.8508   -0.0022 C.2     1  LIG1       -0.0689
     11 H           0.8316    4.8975   -0.0031 H       1  LIG1        0.0612
     12 C          -0.9703    5.9732   -0.0024 C.2     1  LIG1       -0.0987
     13 H          -2.0537    5.9462   -0.0016 H       1  LIG1        0.0535
     14 H          -0.4980    6.9462   -0.0033 H       1  LIG1        0.0535
@<TRIPOS>BOND
     1    14    12    1
     2    11    10    1
     3    12    10    2
     4    12    13    1
     5    10     8    1
     6     7     6    1
     7     8     6    2
     8     8     9    1
     9     6     3    1
    10     2     1    1
    11     3     1    2
    12     3     4    1
    13     1     5    1
