@<TRIPOS>MOLECULE
mol_data/opt/m06hf/geoms/mol2/2222.out
 18 17 0 0 0
SMALL
GASTEIGER

@<TRIPOS>ATOM
      1 C          -0.0147   -0.1308    0.0008 C.2     1  LIG1       -0.0987
      2 H           1.0685   -0.0991   -0.0002 H       1  LIG1        0.0535
      3 C          -0.7371    0.9889    0.0006 C.2     1  LIG1       -0.0689
      4 H          -1.8211    0.9374    0.0017 H       1  LIG1        0.0612
      5 H          -0.4830   -1.1057    0.0019 H       1  LIG1        0.0535
      6 C          -0.1418    2.3318   -0.0009 C.2     1  LIG1       -0.0623
      7 H           0.9431    2.3880   -0.0019 H       1  LIG1        0.0617
      8 C          -0.8665    3.4579   -0.0012 C.2     1  LIG1       -0.0618
      9 H          -1.9513    3.3993   -0.0002 H       1  LIG1        0.0618
     10 C          -0.2746    4.7975   -0.0027 C.2     1  LIG1       -0.0618
     11 H           0.8102    4.8561   -0.0037 H       1  LIG1        0.0618
     12 C          -0.9993    5.9236   -0.0031 C.2     1  LIG1       -0.0623
     13 H          -2.0842    5.8674   -0.0021 H       1  LIG1        0.0617
     14 C          -0.4040    7.2665   -0.0046 C.2     1  LIG1       -0.0689
     15 H           0.6801    7.3180   -0.0055 H       1  LIG1        0.0612
     16 C          -1.1264    8.3862   -0.0050 C.2     1  LIG1       -0.0987
     17 H          -2.2096    8.3545   -0.0042 H       1  LIG1        0.0535
     18 H          -0.6581    9.3610   -0.0062 H       1  LIG1        0.0535
@<TRIPOS>BOND
     1    18    16    1
     2    15    14    1
     3    16    14    2
     4    16    17    1
     5    14    12    1
     6    11    10    1
     7    12    10    2
     8    12    13    1
     9    10     8    1
    10     7     6    1
    11     8     6    2
    12     8     9    1
    13     6     3    1
    14     2     1    1
    15     3     1    2
    16     3     4    1
    17     1     5    1
