@<TRIPOS>MOLECULE
mol_data/opt/m06hf/geoms/mol2/2222-.out
 18 17 0 0 0
SMALL
GASTEIGER

@<TRIPOS>ATOM
      1 C          -0.0551   -0.1636    0.0005 C.2     1  LIG1       -0.0987
      2 H           1.0284   -0.1476   -0.0029 H       1  LIG1        0.0535
      3 C          -0.7606    0.9667    0.0015 C.2     1  LIG1       -0.0689
      4 H          -1.8452    0.9309    0.0053 H       1  LIG1        0.0612
      5 H          -0.5381   -1.1311    0.0036 H       1  LIG1        0.0535
      6 C          -0.1449    2.3004   -0.0020 C.2     1  LIG1       -0.0623
      7 H           0.9407    2.3399   -0.0057 H       1  LIG1        0.0617
      8 C          -0.8510    3.4379   -0.0009 C.2     1  LIG1       -0.0618
      9 H          -1.9365    3.3970    0.0028 H       1  LIG1        0.0618
     10 C          -0.2357    4.7671   -0.0044 C.2     1  LIG1       -0.0618
     11 H           0.8493    4.7984   -0.0083 H       1  LIG1        0.0618
     12 C          -0.9498    5.8991   -0.0034 C.2     1  LIG1       -0.0623
     13 H          -2.0323    5.8224   -0.0006 H       1  LIG1        0.0617
     14 C          -0.4029    7.2746   -0.0063 C.2     1  LIG1       -0.0689
     15 H          -1.1439    8.0661   -0.0114 H       1  LIG1        0.0612
     16 C           0.8865    7.6108   -0.0026 C.2     1  LIG1       -0.0987
     17 H           1.6783    6.8722    0.0040 H       1  LIG1        0.0535
     18 H           1.1862    8.6502   -0.0053 H       1  LIG1        0.0535
@<TRIPOS>BOND
     1    15    14    1
     2    11    10    1
     3    14    12    1
     4    14    16    2
     5     7     6    1
     6    18    16    1
     7    10    12    2
     8    10     8    1
     9    12    13    1
    10     2     1    1
    11    16    17    1
    12     6     8    2
    13     6     3    1
    14     8     9    1
    15     1     3    2
    16     1     5    1
    17     3     4    1
