@<TRIPOS>MOLECULE
mol_data/opt/m06hf/geoms/mol2/3.out
 4 3 0 0 0
SMALL
GASTEIGER

@<TRIPOS>ATOM
      1 C           0.8489    0.1222    0.0871 C.1     1  LIG1       -0.1225
      2 C           1.5615    1.0825    0.0125 C.1     1  LIG1       -0.1225
      3 H           2.1951    1.9365   -0.0539 H       1  LIG1        0.1225
      4 H           0.2155   -0.7316    0.1540 H       1  LIG1        0.1225
@<TRIPOS>BOND
     1     3     2    1
     2     2     1    3
     3     1     4    1
