@<TRIPOS>MOLECULE
mol_data/opt/m06hf/geoms/mol2/412-12-13.out
 34 37 0 0 0
SMALL
GASTEIGER

@<TRIPOS>ATOM
      1 C          -0.1756    0.3456    0.0003 C.ar    1  LIG1       -0.0611
      2 C           1.2096    0.2197    0.0001 C.ar    1  LIG1       -0.0511
      3 C          -0.7679    1.6056    0.0002 C.ar    1  LIG1       -0.0617
      4 C           2.0137    1.3624   -0.0002 C.ar    1  LIG1        0.0173
      5 H           1.6761   -0.7562    0.0002 H       1  LIG1        0.0625
      6 C           0.0337    2.7458   -0.0001 C.ar    1  LIG1       -0.0611
      7 C           1.4177    2.6268   -0.0002 C.ar    1  LIG1       -0.0511
      8 H          -0.4191    3.7286   -0.0001 H       1  LIG1        0.0618
      9 H          -1.8457    1.7001    0.0003 H       1  LIG1        0.0618
     10 H          -0.7920   -0.5437    0.0005 H       1  LIG1        0.0618
     11 H           2.0347    3.5158   -0.0005 H       1  LIG1        0.0625
     12 C           3.4782    1.2299   -0.0004 C.ar    1  LIG1        0.1358
     13 C           4.5036    2.1285   -0.0006 C.ar    1  LIG1       -0.0151
     14 C           5.7129    1.3625   -0.0008 C.ar    1  LIG1       -0.0122
     15 C           5.3246    0.0572   -0.0007 C.ar    1  LIG1        0.1706
     16 O           3.9800   -0.0262   -0.0004 O.2     1  LIG1       -0.4517
     17 H           4.4187    3.2012   -0.0007 H       1  LIG1        0.0656
     18 H           6.7249    1.7302   -0.0010 H       1  LIG1        0.0657
     19 C           6.0750   -1.1891   -0.0007 C.ar    1  LIG1        0.1706
     20 C           7.4096   -1.4558   -0.0010 C.ar    1  LIG1       -0.0121
     21 C           7.5244   -2.8844   -0.0010 C.ar    1  LIG1       -0.0137
     22 C           6.2491   -3.3663   -0.0007 C.ar    1  LIG1        0.1519
     23 O           5.3716   -2.3420   -0.0005 O.2     1  LIG1       -0.4503
     24 H           8.2064   -0.7320   -0.0012 H       1  LIG1        0.0657
     25 H           8.4354   -3.4580   -0.0012 H       1  LIG1        0.0656
     26 C           5.6768   -4.7039   -0.0005 C.ar    1  LIG1        0.0821
     27 C           4.3580   -5.1026   -0.0001 C.ar    1  LIG1       -0.0334
     28 C           4.3518   -6.5244   -0.0005 C.ar    1  LIG1       -0.0437
     29 C           5.6630   -6.9378   -0.0001 C.ar    1  LIG1        0.0023
     30 N           6.4551   -5.8278   -0.0005 N.ar    1  LIG1       -0.3583
     31 H           7.4619   -5.8315   -0.0007 H       1  LIG1        0.1654
     32 H           6.0903   -7.9253    0.0001 H       1  LIG1        0.0807
     33 H           3.5105   -4.4382    0.0001 H       1  LIG1        0.0640
     34 H           3.4880   -7.1670   -0.0006 H       1  LIG1        0.0633
@<TRIPOS>BOND
     1    24    20    1
     2    25    21    1
     3    18    14    1
     4    21    20   ar
     5    21    22   ar
     6    20    19   ar
     7    14    15   ar
     8    14    13   ar
     9    31    30    1
    10    19    15    1
    11    19    23   ar
    12    17    13    1
    13    22    23   ar
    14    22    26    1
    15    15    16   ar
    16    34    28    1
    17    13    12   ar
    18    30    26   ar
    19    30    29   ar
    20    28    29   ar
    21    28    27   ar
    22    26    27   ar
    23    11     7    1
    24    16    12   ar
    25    12     4    1
    26     7     4   ar
    27     7     6   ar
    28     4     2   ar
    29     8     6    1
    30    29    32    1
    31    27    33    1
    32     6     3   ar
    33     2     5    1
    34     2     1   ar
    35     3     1   ar
    36     3     9    1
    37     1    10    1
