@<TRIPOS>MOLECULE
mol_data/opt/m06hf/geoms/mol2/412-4.out
 29 31 0 0 0
SMALL
GASTEIGER

@<TRIPOS>ATOM
      1 C          -0.0982    0.1416    0.0006 C.ar    1  LIG1       -0.0611
      2 C           1.2909    0.0804    0.0005 C.ar    1  LIG1       -0.0511
      3 C          -0.7479    1.3729    0.0000 C.ar    1  LIG1       -0.0617
      4 C           2.0442    1.2573   -0.0002 C.ar    1  LIG1        0.0173
      5 H           1.7997   -0.8740    0.0010 H       1  LIG1        0.0625
      6 C           0.0018    2.5479   -0.0007 C.ar    1  LIG1       -0.0611
      7 C           1.3899    2.4927   -0.0008 C.ar    1  LIG1       -0.0511
      8 H          -0.4961    3.5087   -0.0012 H       1  LIG1        0.0618
      9 H          -1.8286    1.4183    0.0001 H       1  LIG1        0.0618
     10 H          -0.6735   -0.7752    0.0012 H       1  LIG1        0.0618
     11 H           1.9658    3.4092   -0.0014 H       1  LIG1        0.0625
     12 C           3.5138    1.1887   -0.0003 C.ar    1  LIG1        0.1357
     13 C           4.5007    2.1273   -0.0006 C.ar    1  LIG1       -0.0153
     14 C           5.7399    1.4083   -0.0006 C.ar    1  LIG1       -0.0153
     15 C           5.4148    0.0857   -0.0001 C.ar    1  LIG1        0.1357
     16 O           4.0691   -0.0439    0.0000 O.2     1  LIG1       -0.4548
     17 H           4.3737    3.1963   -0.0009 H       1  LIG1        0.0656
     18 H           6.7310    1.8286   -0.0008 H       1  LIG1        0.0656
     19 C           5.5558   -2.3941    0.0008 C.ar    1  LIG1       -0.0511
     20 C           6.2983   -3.5698    0.0011 C.ar    1  LIG1       -0.0611
     21 C           6.2037   -1.1561    0.0002 C.ar    1  LIG1        0.0173
     22 C           7.6896   -3.5227    0.0009 C.ar    1  LIG1       -0.0617
     23 H           5.7879   -4.5242    0.0015 H       1  LIG1        0.0618
     24 C           7.6009   -1.1110    0.0000 C.ar    1  LIG1       -0.0511
     25 C           8.3377   -2.2887    0.0004 C.ar    1  LIG1       -0.0611
     26 H           8.1107   -0.1562   -0.0004 H       1  LIG1        0.0625
     27 H           8.2654   -4.4385    0.0012 H       1  LIG1        0.0618
     28 H           4.4746   -2.4261    0.0009 H       1  LIG1        0.0625
     29 H           9.4189   -2.2441    0.0002 H       1  LIG1        0.0618
@<TRIPOS>BOND
     1    11     7    1
     2     8     6    1
     3    17    13    1
     4     7     6   ar
     5     7     4   ar
     6    18    14    1
     7     6     3   ar
     8    13    14   ar
     9    13    12   ar
    10    14    15   ar
    11    26    24    1
    12    12     4    1
    13    12    16   ar
    14     4     2   ar
    15    15    16   ar
    16    15    21    1
    17     3     9    1
    18     3     1   ar
    19    24    21   ar
    20    24    25   ar
    21    29    25    1
    22    21    19   ar
    23    25    22   ar
    24     2     1   ar
    25     2     5    1
    26     1    10    1
    27    19    28    1
    28    19    20   ar
    29    22    20   ar
    30    22    27    1
    31    20    23    1
