@<TRIPOS>MOLECULE
mol_data/opt/m06hf/geoms/mol2/412-5-8-.out
 32 35 0 0 0
SMALL
GASTEIGER

@<TRIPOS>ATOM
      1 C          -0.0894    0.1709    0.0003 C.ar    1  LIG1       -0.0611
      2 C           1.2999    0.1097    0.0002 C.ar    1  LIG1       -0.0511
      3 C          -0.7389    1.4023    0.0001 C.ar    1  LIG1       -0.0617
      4 C           2.0501    1.2886   -0.0001 C.ar    1  LIG1        0.0173
      5 H           1.8085   -0.8451    0.0003 H       1  LIG1        0.0625
      6 C           0.0089    2.5785   -0.0002 C.ar    1  LIG1       -0.0611
      7 C           1.3970    2.5242   -0.0003 C.ar    1  LIG1       -0.0511
      8 H          -0.4894    3.5390   -0.0004 H       1  LIG1        0.0618
      9 H          -1.8199    1.4470    0.0002 H       1  LIG1        0.0618
     10 H          -0.6635   -0.7464    0.0005 H       1  LIG1        0.0618
     11 H           1.9716    3.4414   -0.0006 H       1  LIG1        0.0625
     12 C           3.5193    1.2222   -0.0003 C.ar    1  LIG1        0.1357
     13 C           4.5069    2.1629   -0.0003 C.ar    1  LIG1       -0.0152
     14 C           5.7479    1.4490   -0.0006 C.ar    1  LIG1       -0.0147
     15 C           5.4195    0.1273   -0.0005 C.ar    1  LIG1        0.1422
     16 O           4.0759   -0.0098   -0.0003 O.2     1  LIG1       -0.4543
     17 H           4.3764    3.2312   -0.0003 H       1  LIG1        0.0656
     18 H           6.7424    1.8619   -0.0008 H       1  LIG1        0.0656
     19 C           6.2000   -1.1015   -0.0005 C.ar    1  LIG1        0.0551
     20 C           7.5658   -1.2294   -0.0006 C.ar    1  LIG1       -0.0433
     21 C           7.9771   -2.5900   -0.0007 C.ar    1  LIG1       -0.0431
     22 C           6.9126   -3.4496   -0.0005 C.ar    1  LIG1        0.0605
     23 S           5.3990   -2.6264   -0.0006 S.2     1  LIG1       -0.0820
     24 H           8.2434   -0.3889   -0.0007 H       1  LIG1        0.0630
     25 H           9.0009   -2.9334   -0.0007 H       1  LIG1        0.0630
     26 C           6.9703   -4.9096   -0.0004 C.ar    1  LIG1        0.2099
     27 N           8.1754   -5.4914   -0.0006 N.ar    1  LIG1       -0.1253
     28 C           7.0629   -7.4490   -0.0010 C.ar    1  LIG1        0.1605
     29 N           5.8145   -5.5797   -0.0005 N.ar    1  LIG1       -0.1253
     30 N           8.2196   -6.7880   -0.0007 N.ar    1  LIG1       -0.1339
     31 N           5.8626   -6.8778   -0.0007 N.ar    1  LIG1       -0.1339
     32 H           7.1051   -8.5276   -0.0007 H       1  LIG1        0.1085
@<TRIPOS>BOND
     1    28    30   ar
     2    28    31   ar
     3    28    32    1
     4    18    14    1
     5    30    27   ar
     6    31    29   ar
     7    25    21    1
     8    24    20    1
     9    21    20   ar
    10    21    22   ar
    11    20    19   ar
    12    23    19   ar
    13    23    22   ar
    14    14    15   ar
    15    14    13   ar
    16    27    26   ar
    17    11     7    1
    18    19    15    1
    19    29    26   ar
    20    22    26    1
    21    15    16   ar
    22     8     6    1
    23    13    17    1
    24    13    12   ar
    25     7     6   ar
    26     7     4   ar
    27    16    12   ar
    28    12     4    1
    29     6     3   ar
    30     4     2   ar
    31     3     9    1
    32     3     1   ar
    33     2     1   ar
    34     2     5    1
    35     1    10    1
