@<TRIPOS>MOLECULE
mol_data/opt/m06hf/geoms/mol2/412-13.out
 27 29 0 0 0
SMALL
GASTEIGER

@<TRIPOS>ATOM
      1 C          -0.0858    0.1305    0.0006 C.ar    1  LIG1       -0.0611
      2 C           1.3032    0.0653    0.0005 C.ar    1  LIG1       -0.0511
      3 C          -0.7320    1.3637    0.0002 C.ar    1  LIG1       -0.0617
      4 C           2.0594    1.2403   -0.0002 C.ar    1  LIG1        0.0173
      5 H           1.8101   -0.8903    0.0008 H       1  LIG1        0.0625
      6 C           0.0209    2.5365   -0.0005 C.ar    1  LIG1       -0.0611
      7 C           1.4085    2.4778   -0.0007 C.ar    1  LIG1       -0.0511
      8 H          -0.4745    3.4988   -0.0008 H       1  LIG1        0.0618
      9 H          -1.8127    1.4122    0.0003 H       1  LIG1        0.0618
     10 H          -0.6641   -0.7844    0.0012 H       1  LIG1        0.0618
     11 H           1.9873    3.3924   -0.0012 H       1  LIG1        0.0625
     12 C           3.5284    1.1702   -0.0004 C.ar    1  LIG1        0.1358
     13 C           4.5150    2.1081   -0.0006 C.ar    1  LIG1       -0.0152
     14 C           5.7564    1.3898   -0.0007 C.ar    1  LIG1       -0.0138
     15 C           5.4258    0.0684   -0.0005 C.ar    1  LIG1        0.1517
     16 O           4.0842   -0.0655   -0.0003 O.2     1  LIG1       -0.4534
     17 H           4.3891    3.1773   -0.0007 H       1  LIG1        0.0656
     18 H           6.7472    1.8114   -0.0009 H       1  LIG1        0.0656
     19 C           6.1989   -1.1649   -0.0004 C.ar    1  LIG1        0.0821
     20 C           5.7754   -2.4762   -0.0003 C.ar    1  LIG1       -0.0334
     21 C           6.9391   -3.2918   -0.0006 C.ar    1  LIG1       -0.0437
     22 C           8.0265   -2.4505   -0.0003 C.ar    1  LIG1        0.0023
     23 N           7.5659   -1.1667   -0.0004 N.ar    1  LIG1       -0.3583
     24 H           8.1449   -0.3432   -0.0005 H       1  LIG1        0.1654
     25 H           9.0818   -2.6620   -0.0002 H       1  LIG1        0.0807
     26 H           4.7470   -2.7947   -0.0002 H       1  LIG1        0.0640
     27 H           6.9739   -4.3676   -0.0007 H       1  LIG1        0.0633
@<TRIPOS>BOND
     1    11     7    1
     2    18    14    1
     3     8     6    1
     4    17    13    1
     5    27    21    1
     6    14    13   ar
     7    14    15   ar
     8     7     6   ar
     9     7     4   ar
    10    13    12   ar
    11    21    20   ar
    12    21    22   ar
    13     6     3   ar
    14    15    19    1
    15    15    16   ar
    16    24    23    1
    17    23    19   ar
    18    23    22   ar
    19    19    20   ar
    20    12    16   ar
    21    12     4    1
    22    20    26    1
    23    22    25    1
    24     4     2   ar
    25     3     9    1
    26     3     1   ar
    27     2     1   ar
    28     2     5    1
    29     1    10    1
