@<TRIPOS>MOLECULE
mol_data/opt/m06hf/geoms/mol2/412-.out
 19 20 0 0 0
SMALL
GASTEIGER

@<TRIPOS>ATOM
      1 C          -0.0034    0.0631    0.0005 C.ar    1  LIG1       -0.0611
      2 C           1.3869    0.0163    0.0003 C.ar    1  LIG1       -0.0511
      3 C          -0.6655    1.2879    0.0002 C.ar    1  LIG1       -0.0617
      4 C           2.1269    1.2007   -0.0002 C.ar    1  LIG1        0.0172
      5 H           1.9056   -0.9329    0.0005 H       1  LIG1        0.0625
      6 C           0.0715    2.4703   -0.0003 C.ar    1  LIG1       -0.0611
      7 C           1.4603    2.4292   -0.0005 C.ar    1  LIG1       -0.0511
      8 H          -0.4353    3.4265   -0.0005 H       1  LIG1        0.0618
      9 H          -1.7471    1.3216    0.0004 H       1  LIG1        0.0618
     10 H          -0.5690   -0.8593    0.0009 H       1  LIG1        0.0618
     11 H           2.0266    3.3512   -0.0009 H       1  LIG1        0.0625
     12 C           3.5988    1.1515   -0.0004 C.ar    1  LIG1        0.1348
     13 C           4.5688    2.1067   -0.0005 C.ar    1  LIG1       -0.0159
     14 C           5.8235    1.4061   -0.0007 C.ar    1  LIG1       -0.0233
     15 C           5.5099    0.0886   -0.0008 C.ar    1  LIG1        0.0926
     16 O           4.1717   -0.0737   -0.0005 O.2     1  LIG1       -0.4629
     17 H           6.1004   -0.8104   -0.0009 H       1  LIG1        0.1029
     18 H           4.4229    3.1732   -0.0004 H       1  LIG1        0.0655
     19 H           6.8119    1.8315   -0.0009 H       1  LIG1        0.0649
@<TRIPOS>BOND
     1    17    15    1
     2    11     7    1
     3    19    14    1
     4    15    14   ar
     5    15    16   ar
     6    14    13   ar
     7    16    12   ar
     8    13    18    1
     9    13    12   ar
    10     8     6    1
    11     7     6   ar
    12     7     4   ar
    13    12     4    1
    14     6     3   ar
    15     4     2   ar
    16     3     9    1
    17     3     1   ar
    18     2     5    1
    19     2     1   ar
    20     1    10    1
