@<TRIPOS>MOLECULE
mol_data/opt/m06hf/geoms/mol2/412-5.out
 26 28 0 0 0
SMALL
GASTEIGER

@<TRIPOS>ATOM
      1 C          -0.1213    0.1650    0.0003 C.ar    1  LIG1       -0.0611
      2 C           1.2667    0.0782    0.0001 C.ar    1  LIG1       -0.0511
      3 C          -0.7476    1.4084    0.0002 C.ar    1  LIG1       -0.0617
      4 C           2.0409    1.2411   -0.0002 C.ar    1  LIG1        0.0173
      5 H           1.7579   -0.8855    0.0003 H       1  LIG1        0.0625
      6 C           0.0234    2.5694   -0.0002 C.ar    1  LIG1       -0.0611
      7 C           1.4099    2.4889   -0.0004 C.ar    1  LIG1       -0.0511
      8 H          -0.4567    3.5393   -0.0004 H       1  LIG1        0.0618
      9 H          -1.8274    1.4740    0.0003 H       1  LIG1        0.0618
     10 H          -0.7143   -0.7403    0.0007 H       1  LIG1        0.0618
     11 H           2.0032    3.3941   -0.0007 H       1  LIG1        0.0625
     12 C           3.5091    1.1511   -0.0004 C.ar    1  LIG1        0.1357
     13 C           4.5054    2.0802   -0.0005 C.ar    1  LIG1       -0.0152
     14 C           5.7382    1.3505   -0.0005 C.ar    1  LIG1       -0.0147
     15 C           5.3952    0.0333   -0.0007 C.ar    1  LIG1        0.1422
     16 O           4.0505   -0.0900   -0.0006 O.2     1  LIG1       -0.4543
     17 H           4.3896    3.1505   -0.0004 H       1  LIG1        0.0656
     18 H           6.7378    1.7513   -0.0005 H       1  LIG1        0.0656
     19 C           6.1697   -1.2016   -0.0008 C.ar    1  LIG1        0.0544
     20 C           5.6928   -2.4804   -0.0008 C.ar    1  LIG1       -0.0440
     21 C           6.7446   -3.4544   -0.0014 C.ar    1  LIG1       -0.0540
     22 C           7.9798   -2.8870   -0.0018 C.ar    1  LIG1       -0.0236
     23 S           7.8958   -1.1661   -0.0006 S.2     1  LIG1       -0.0936
     24 H           8.9392   -3.3780   -0.0024 H       1  LIG1        0.0693
     25 H           4.6384   -2.7116   -0.0007 H       1  LIG1        0.0630
     26 H           6.5788   -4.5212   -0.0017 H       1  LIG1        0.0623
@<TRIPOS>BOND
     1    24    22    1
     2    22    21   ar
     3    22    23   ar
     4    26    21    1
     5    21    20   ar
     6    20    19   ar
     7    20    25    1
     8    19    15    1
     9    19    23   ar
    10    11     7    1
    11    15    16   ar
    12    15    14   ar
    13    16    12   ar
    14    14    18    1
    15    14    13   ar
    16    13    17    1
    17    13    12   ar
    18    12     4    1
    19     7     4   ar
    20     7     6   ar
    21     8     6    1
    22     4     2   ar
    23     6     3   ar
    24     2     5    1
    25     2     1   ar
    26     3     9    1
    27     3     1   ar
    28     1    10    1
