@<TRIPOS>MOLECULE
mol_data/opt/m06hf/geoms/mol2/412.out
 19 20 0 0 0
SMALL
GASTEIGER

@<TRIPOS>ATOM
      1 C           0.0142    0.0491    0.0005 C.ar    1  LIG1       -0.0611
      2 C           1.4034    0.0244    0.0003 C.ar    1  LIG1       -0.0511
      3 C          -0.6659    1.2652    0.0002 C.ar    1  LIG1       -0.0617
      4 C           2.1275    1.2199   -0.0002 C.ar    1  LIG1        0.0172
      5 H           1.9254   -0.9234    0.0005 H       1  LIG1        0.0625
      6 C           0.0534    2.4572   -0.0003 C.ar    1  LIG1       -0.0611
      7 C           1.4444    2.4381   -0.0005 C.ar    1  LIG1       -0.0511
      8 H          -0.4678    3.4054   -0.0005 H       1  LIG1        0.0618
      9 H          -1.7479    1.2828    0.0004 H       1  LIG1        0.0618
     10 H          -0.5373   -0.8819    0.0009 H       1  LIG1        0.0618
     11 H           2.0075    3.3616   -0.0009 H       1  LIG1        0.0625
     12 C           3.6000    1.1993   -0.0005 C.ar    1  LIG1        0.1348
     13 C           4.5237    0.1993   -0.0006 C.ar    1  LIG1       -0.0159
     14 C           5.8102    0.8396   -0.0009 C.ar    1  LIG1       -0.0233
     15 C           5.5593    2.1705   -0.0008 C.ar    1  LIG1        0.0926
     16 O           4.2303    2.3961   -0.0006 O.2     1  LIG1       -0.4629
     17 H           6.1918    3.0405   -0.0008 H       1  LIG1        0.1029
     18 H           4.3275   -0.8591   -0.0007 H       1  LIG1        0.0655
     19 H           6.7773    0.3679   -0.0011 H       1  LIG1        0.0649
@<TRIPOS>BOND
     1    19    14    1
     2    11     7    1
     3    14    15   ar
     4    14    13   ar
     5    17    15    1
     6    15    16   ar
     7    18    13    1
     8    13    12   ar
     9    16    12   ar
    10     7     6   ar
    11     7     4   ar
    12     8     6    1
    13    12     4    1
    14     6     3   ar
    15     4     2   ar
    16     3     9    1
    17     3     1   ar
    18     2     1   ar
    19     2     5    1
    20     1    10    1
