@<TRIPOS>MOLECULE
mol_data/opt/m06hf/geoms/mol2/41212.out
 26 28 0 0 0
SMALL
GASTEIGER

@<TRIPOS>ATOM
      1 C          -0.0265   -0.0282    0.0003 C.ar    1  LIG1       -0.0611
      2 C           1.3626   -0.0257    0.0002 C.ar    1  LIG1       -0.0511
      3 C          -0.7306    1.1747    0.0001 C.ar    1  LIG1       -0.0617
      4 C           2.0619    1.1846   -0.0002 C.ar    1  LIG1        0.0173
      5 H           1.9037   -0.9632    0.0003 H       1  LIG1        0.0625
      6 C          -0.0351    2.3808   -0.0002 C.ar    1  LIG1       -0.0611
      7 C           1.3554    2.3902   -0.0003 C.ar    1  LIG1       -0.0511
      8 H          -0.5756    3.3185   -0.0003 H       1  LIG1        0.0618
      9 H          -1.8124    1.1703    0.0002 H       1  LIG1        0.0618
     10 H          -0.5607   -0.9694    0.0006 H       1  LIG1        0.0618
     11 H           1.9022    3.3236   -0.0006 H       1  LIG1        0.0625
     12 C           3.5328    1.1993   -0.0003 C.ar    1  LIG1        0.1358
     13 C           4.4867    0.2258   -0.0005 C.ar    1  LIG1       -0.0151
     14 C           5.7511    0.8991   -0.0006 C.ar    1  LIG1       -0.0122
     15 C           5.4625    2.2290   -0.0007 C.ar    1  LIG1        0.1705
     16 O           4.1286    2.4134   -0.0005 O.2     1  LIG1       -0.4517
     17 H           4.3223   -0.8381   -0.0005 H       1  LIG1        0.0656
     18 H           6.7325    0.4567   -0.0007 H       1  LIG1        0.0657
     19 C           6.3024    3.4197   -0.0008 C.ar    1  LIG1        0.1697
     20 C           7.6526    3.5890   -0.0009 C.ar    1  LIG1       -0.0128
     21 C           7.8669    5.0099   -0.0013 C.ar    1  LIG1       -0.0232
     22 C           6.6332    5.5709   -0.0009 C.ar    1  LIG1        0.0927
     23 O           5.6816    4.6161   -0.0009 O.2     1  LIG1       -0.4598
     24 H           6.2869    6.5889   -0.0009 H       1  LIG1        0.1029
     25 H           8.3968    2.8110   -0.0009 H       1  LIG1        0.0656
     26 H           8.8094    5.5294   -0.0015 H       1  LIG1        0.0649
@<TRIPOS>BOND
     1    26    21    1
     2    21    20   ar
     3    21    22   ar
     4    20    25    1
     5    20    19   ar
     6    23    22   ar
     7    23    19   ar
     8    22    24    1
     9    19    15    1
    10    18    14    1
    11    15    14   ar
    12    15    16   ar
    13    14    13   ar
    14    11     7    1
    15    16    12   ar
    16    13    17    1
    17    13    12   ar
    18    12     4    1
    19     7     6   ar
    20     7     4   ar
    21     8     6    1
    22     6     3   ar
    23     4     2   ar
    24     3     9    1
    25     3     1   ar
    26     2     1   ar
    27     2     5    1
    28     1    10    1
