@<TRIPOS>MOLECULE
mol_data/opt/m06hf/geoms/mol2/41213.out
 27 29 0 0 0
SMALL
GASTEIGER

@<TRIPOS>ATOM
      1 C          -0.0375   -0.0006    0.0005 C.ar    1  LIG1       -0.0611
      2 C           1.3512   -0.0146    0.0005 C.ar    1  LIG1       -0.0511
      3 C          -0.7288    1.2098   -0.0001 C.ar    1  LIG1       -0.0617
      4 C           2.0675    1.1867   -0.0002 C.ar    1  LIG1        0.0173
      5 H           1.8805   -0.9586    0.0010 H       1  LIG1        0.0625
      6 C          -0.0186    2.4070   -0.0008 C.ar    1  LIG1       -0.0611
      7 C           1.3719    2.3985   -0.0008 C.ar    1  LIG1       -0.0511
      8 H          -0.5476    3.3513   -0.0013 H       1  LIG1        0.0618
      9 H          -1.8105    1.2181   -0.0001 H       1  LIG1        0.0618
     10 H          -0.5822   -0.9358    0.0010 H       1  LIG1        0.0618
     11 H           1.9252    3.3277   -0.0014 H       1  LIG1        0.0625
     12 C           3.5378    1.1768   -0.0003 C.ar    1  LIG1        0.1358
     13 C           4.4708    0.1864   -0.0005 C.ar    1  LIG1       -0.0152
     14 C           5.7531    0.8294   -0.0005 C.ar    1  LIG1       -0.0138
     15 C           5.5016    2.1651   -0.0005 C.ar    1  LIG1        0.1517
     16 O           4.1653    2.3815   -0.0003 O.2     1  LIG1       -0.4534
     17 H           4.2823   -0.8737   -0.0006 H       1  LIG1        0.0656
     18 H           6.7231    0.3631   -0.0006 H       1  LIG1        0.0656
     19 C           6.3462    3.3512   -0.0005 C.ar    1  LIG1        0.0821
     20 C           7.7172    3.5003   -0.0012 C.ar    1  LIG1       -0.0334
     21 C           7.9835    4.8962   -0.0011 C.ar    1  LIG1       -0.0437
     22 C           6.7695    5.5440    0.0003 C.ar    1  LIG1        0.0023
     23 N           5.7897    4.5979    0.0003 N.ar    1  LIG1       -0.3583
     24 H           4.7954    4.7637    0.0011 H       1  LIG1        0.1654
     25 H           6.5313    6.5934    0.0010 H       1  LIG1        0.0807
     26 H           8.4371    2.6987   -0.0020 H       1  LIG1        0.0640
     27 H           8.9509    5.3687   -0.0017 H       1  LIG1        0.0633
@<TRIPOS>BOND
     1    26    20    1
     2    27    21    1
     3    11     7    1
     4     8     6    1
     5    20    21   ar
     6    20    19   ar
     7    21    22   ar
     8     7     6   ar
     9     7     4   ar
    10     6     3   ar
    11    18    14    1
    12    17    13    1
    13    14    13   ar
    14    14    15   ar
    15    19    15    1
    16    19    23   ar
    17    13    12   ar
    18    15    16   ar
    19    16    12   ar
    20    12     4    1
    21     4     2   ar
    22     3     9    1
    23     3     1   ar
    24    22    23   ar
    25    22    25    1
    26    23    24    1
    27     2     1   ar
    28     2     5    1
    29     1    10    1
