@<TRIPOS>MOLECULE
mol_data/opt/m06hf/geoms/mol2/41213-5.out
 34 37 0 0 0
SMALL
GASTEIGER

@<TRIPOS>ATOM
      1 C          -0.0966   -0.0334    0.1562 C.ar    1  LIG1       -0.0611
      2 C           1.2906   -0.0421    0.0872 C.ar    1  LIG1       -0.0511
      3 C          -0.7919    1.1741    0.1647 C.ar    1  LIG1       -0.0617
      4 C           1.9976    1.1617    0.0221 C.ar    1  LIG1        0.0173
      5 H           1.8252   -0.9834    0.0889 H       1  LIG1        0.0625
      6 C          -0.0892    2.3742    0.1048 C.ar    1  LIG1       -0.0611
      7 C           1.2995    2.3717    0.0336 C.ar    1  LIG1       -0.0511
      8 H          -0.6229    3.3159    0.1117 H       1  LIG1        0.0618
      9 H          -1.8724    1.1780    0.2195 H       1  LIG1        0.0618
     10 H          -0.6362   -0.9703    0.2061 H       1  LIG1        0.0618
     11 H           1.8505    3.3013   -0.0147 H       1  LIG1        0.0625
     12 C           3.4657    1.1597   -0.0643 C.ar    1  LIG1        0.1358
     13 C           4.3985    0.1749   -0.1848 C.ar    1  LIG1       -0.0152
     14 C           5.6733    0.8294   -0.2381 C.ar    1  LIG1       -0.0138
     15 C           5.4139    2.1631   -0.1403 C.ar    1  LIG1        0.1518
     16 O           4.0848    2.3642   -0.0344 O.2     1  LIG1       -0.4534
     17 H           4.2147   -0.8840   -0.2445 H       1  LIG1        0.0656
     18 H           6.6375    0.3652   -0.3590 H       1  LIG1        0.0656
     19 C           6.2539    3.3507   -0.1322 C.ar    1  LIG1        0.0826
     20 C           5.9147    4.6801   -0.2784 C.ar    1  LIG1       -0.0328
     21 C           7.1161    5.4291   -0.2035 C.ar    1  LIG1       -0.0352
     22 C           8.1492    4.5332   -0.0144 C.ar    1  LIG1        0.0536
     23 N           7.6085    3.2784    0.0250 N.ar    1  LIG1       -0.3514
     24 H           8.1267    2.4484    0.2656 H       1  LIG1        0.1660
     25 H           4.9168    5.0506   -0.4391 H       1  LIG1        0.0640
     26 H           7.2270    6.4955   -0.3068 H       1  LIG1        0.0639
     27 C           9.5929    4.7346    0.1185 C.ar    1  LIG1        0.0355
     28 C          10.5998    3.9338   -0.3421 C.ar    1  LIG1       -0.0455
     29 C          11.9008    4.4450   -0.0258 C.ar    1  LIG1       -0.0541
     30 C          11.8443    5.6206    0.6549 C.ar    1  LIG1       -0.0237
     31 S          10.2211    6.1154    0.9466 S.2     1  LIG1       -0.0952
     32 H          12.6648    6.2256    1.0046 H       1  LIG1        0.0693
     33 H          10.4241    3.0366   -0.9188 H       1  LIG1        0.0629
     34 H          12.8239    3.9623   -0.3100 H       1  LIG1        0.0623
@<TRIPOS>BOND
     1    33    28    1
     2    25    20    1
     3    18    14    1
     4    28    29   ar
     5    28    27   ar
     6    34    29    1
     7    26    21    1
     8    20    21   ar
     9    20    19   ar
    10    17    13    1
    11    14    13   ar
    12    14    15   ar
    13    21    22   ar
    14    13    12   ar
    15    15    19    1
    16    15    16   ar
    17    19    23   ar
    18    12    16   ar
    19    12     4    1
    20    29    30   ar
    21    11     7    1
    22    22    23   ar
    23    22    27    1
    24     4     7   ar
    25     4     2   ar
    26    23    24    1
    27     7     6   ar
    28     2     5    1
    29     2     1   ar
    30     6     8    1
    31     6     3   ar
    32    27    31   ar
    33     1     3   ar
    34     1    10    1
    35     3     9    1
    36    30    31   ar
    37    30    32    1
