@<TRIPOS>MOLECULE
mol_data/opt/m06hf/geoms/mol2/4121312.out
 34 37 0 0 0
SMALL
GASTEIGER

@<TRIPOS>ATOM
      1 C          -0.0471   -0.0585    0.0000 C.ar    1  LIG1       -0.0611
      2 C           1.3418   -0.0605   -0.0001 C.ar    1  LIG1       -0.0511
      3 C          -0.7475    1.1466    0.0000 C.ar    1  LIG1       -0.0617
      4 C           2.0477    1.1466   -0.0002 C.ar    1  LIG1        0.0173
      5 H           1.8783   -1.0002   -0.0001 H       1  LIG1        0.0625
      6 C          -0.0474    2.3497   -0.0001 C.ar    1  LIG1       -0.0611
      7 C           1.3436    2.3533   -0.0002 C.ar    1  LIG1       -0.0511
      8 H          -0.5834    3.2897   -0.0001 H       1  LIG1        0.0618
      9 H          -1.8294    1.1462    0.0001 H       1  LIG1        0.0618
     10 H          -0.5832   -0.9984    0.0001 H       1  LIG1        0.0618
     11 H           1.8894    3.2868   -0.0003 H       1  LIG1        0.0625
     12 C           3.5177    1.1457   -0.0004 C.ar    1  LIG1        0.1358
     13 C           4.4542    0.1575   -0.0007 C.ar    1  LIG1       -0.0152
     14 C           5.7336    0.8040   -0.0006 C.ar    1  LIG1       -0.0138
     15 C           5.4769    2.1395   -0.0005 C.ar    1  LIG1        0.1518
     16 O           4.1404    2.3521   -0.0003 O.2     1  LIG1       -0.4534
     17 H           4.2680   -0.9025   -0.0009 H       1  LIG1        0.0656
     18 H           6.7052    0.3404   -0.0008 H       1  LIG1        0.0656
     19 C           6.3207    3.3241   -0.0004 C.ar    1  LIG1        0.0826
     20 C           7.6958    3.4650   -0.0003 C.ar    1  LIG1       -0.0327
     21 C           7.9738    4.8529   -0.0007 C.ar    1  LIG1       -0.0327
     22 C           6.7588    5.5115   -0.0001 C.ar    1  LIG1        0.0826
     23 N           5.7732    4.5714   -0.0000 N.ar    1  LIG1       -0.3494
     24 H           4.7845    4.7736    0.0002 H       1  LIG1        0.1661
     25 H           8.4092    2.6584   -0.0004 H       1  LIG1        0.0640
     26 H           8.9427    5.3221   -0.0010 H       1  LIG1        0.0640
     27 C           6.4265    6.9294    0.0001 C.ar    1  LIG1        0.1509
     28 C           7.1654    8.0699   -0.0001 C.ar    1  LIG1       -0.0144
     29 C           6.2182    9.1532    0.0009 C.ar    1  LIG1       -0.0233
     30 C           4.9920    8.5803    0.0002 C.ar    1  LIG1        0.0926
     31 O           5.1067    7.2319    0.0004 O.2     1  LIG1       -0.4615
     32 H           3.9912    8.9734    0.0003 H       1  LIG1        0.1029
     33 H           8.2395    8.1342   -0.0004 H       1  LIG1        0.0656
     34 H           6.4329   10.2076    0.0014 H       1  LIG1        0.0649
@<TRIPOS>BOND
     1    26    21    1
     2    17    13    1
     3    18    14    1
     4    13    14   ar
     5    13    12   ar
     6    21    20   ar
     7    21    22   ar
     8    14    15   ar
     9    15    19    1
    10    15    16   ar
    11    25    20    1
    12    33    28    1
    13    19    20   ar
    14    19    23   ar
    15    12    16   ar
    16    12     4    1
    17    11     7    1
    18     4     7   ar
    19     4     2   ar
    20     7     6   ar
    21    22    23   ar
    22    22    27    1
    23    28    27   ar
    24    28    29   ar
    25     2     5    1
    26     2     1   ar
    27     6     8    1
    28     6     3   ar
    29    23    24    1
    30     1     3   ar
    31     1    10    1
    32     3     9    1
    33    27    31   ar
    34    30    32    1
    35    30    31   ar
    36    30    29   ar
    37    29    34    1
