@<TRIPOS>MOLECULE
mol_data/opt/m06hf/geoms/mol2/41248-.out
 35 38 0 0 0
SMALL
GASTEIGER

@<TRIPOS>ATOM
      1 C          -0.0784   -0.1069   -0.0011 C.ar    1  LIG1       -0.0611
      2 C           1.3109   -0.0980   -0.0009 C.ar    1  LIG1       -0.0511
      3 C          -0.7887    1.0922   -0.0008 C.ar    1  LIG1       -0.0617
      4 C           2.0038    1.1159   -0.0004 C.ar    1  LIG1        0.0173
      5 H           1.8557   -1.0329   -0.0011 H       1  LIG1        0.0625
      6 C          -0.1002    2.3022   -0.0003 C.ar    1  LIG1       -0.0611
      7 C           1.2904    2.3171   -0.0001 C.ar    1  LIG1       -0.0511
      8 H          -0.6447    3.2372   -0.0001 H       1  LIG1        0.0618
      9 H          -1.8706    1.0821   -0.0009 H       1  LIG1        0.0618
     10 H          -0.6070   -1.0510   -0.0015 H       1  LIG1        0.0618
     11 H           1.8294    3.2548    0.0002 H       1  LIG1        0.0625
     12 C           3.4748    1.1343   -0.0003 C.ar    1  LIG1        0.1357
     13 C           4.4283    0.1598   -0.0007 C.ar    1  LIG1       -0.0153
     14 C           5.6912    0.8329   -0.0003 C.ar    1  LIG1       -0.0153
     15 C           5.4130    2.1674    0.0004 C.ar    1  LIG1        0.1357
     16 O           4.0728    2.3460    0.0004 O.2     1  LIG1       -0.4548
     17 H           4.2635   -0.9037   -0.0013 H       1  LIG1        0.0656
     18 H           6.6662    0.3773   -0.0004 H       1  LIG1        0.0656
     19 C           7.6428    3.2731    0.0011 C.ar    1  LIG1       -0.0504
     20 C           8.4286    4.4146    0.0016 C.ar    1  LIG1       -0.0503
     21 C           6.2475    3.3746    0.0010 C.ar    1  LIG1        0.0173
     22 C           7.8237    5.6741    0.0022 C.ar    1  LIG1        0.0227
     23 H           9.5081    4.3448    0.0016 H       1  LIG1        0.0625
     24 C           5.6487    4.6387    0.0016 C.ar    1  LIG1       -0.0504
     25 C           6.4328    5.7832    0.0022 C.ar    1  LIG1       -0.0503
     26 H           4.5701    4.7162    0.0016 H       1  LIG1        0.0625
     27 H           8.1152    2.2997    0.0006 H       1  LIG1        0.0625
     28 H           5.9787    6.7651    0.0027 H       1  LIG1        0.0625
     29 C           8.6605    6.8974    0.0028 C.ar    1  LIG1        0.2033
     30 N           8.0438    8.0839    0.0032 N.ar    1  LIG1       -0.1258
     31 C          10.0960    9.0026    0.0032 C.ar    1  LIG1        0.1605
     32 N           9.9894    6.7565    0.0026 N.ar    1  LIG1       -0.1258
     33 N           8.7750    9.1572    0.0035 N.ar    1  LIG1       -0.1339
     34 N          10.7223    7.8294    0.0028 N.ar    1  LIG1       -0.1339
     35 H          10.7040    9.8950    0.0036 H       1  LIG1        0.1085
@<TRIPOS>BOND
     1    10     1    1
     2    17    13    1
     3     5     2    1
     4     1     2   ar
     5     1     3   ar
     6     9     3    1
     7     2     4   ar
     8     3     6   ar
     9    13    12   ar
    10    13    14   ar
    11     4    12    1
    12     4     7   ar
    13    18    14    1
    14     6     7   ar
    15     6     8    1
    16    12    16   ar
    17    14    15   ar
    18     7    11    1
    19    15    16   ar
    20    15    21    1
    21    27    19    1
    22    21    19   ar
    23    21    24   ar
    24    19    20   ar
    25    26    24    1
    26    24    25   ar
    27    20    23    1
    28    20    22   ar
    29    22    25   ar
    30    22    29    1
    31    25    28    1
    32    32    29   ar
    33    32    34   ar
    34    29    30   ar
    35    34    31   ar
    36    30    33   ar
    37    31    33   ar
    38    31    35    1
