@<TRIPOS>MOLECULE
mol_data/opt/m06hf/geoms/mol2/4124-.out
 29 31 0 0 0
SMALL
GASTEIGER

@<TRIPOS>ATOM
      1 C          -0.0587   -0.0146    0.0008 C.ar    1  LIG1       -0.0611
      2 C           1.3303   -0.0316    0.0006 C.ar    1  LIG1       -0.0511
      3 C          -0.7463    1.1979    0.0003 C.ar    1  LIG1       -0.0617
      4 C           2.0479    1.1681   -0.0002 C.ar    1  LIG1        0.0173
      5 H           1.8578   -0.9767    0.0010 H       1  LIG1        0.0625
      6 C          -0.0336    2.3938   -0.0004 C.ar    1  LIG1       -0.0611
      7 C           1.3569    2.3826   -0.0007 C.ar    1  LIG1       -0.0511
      8 H          -0.5604    3.3392   -0.0008 H       1  LIG1        0.0618
      9 H          -1.8280    1.2087    0.0005 H       1  LIG1        0.0618
     10 H          -0.6059   -0.9482    0.0014 H       1  LIG1        0.0618
     11 H           1.9146    3.3093   -0.0012 H       1  LIG1        0.0625
     12 C           3.5191    1.1602   -0.0005 C.ar    1  LIG1        0.1357
     13 C           4.4559    0.1716   -0.0004 C.ar    1  LIG1       -0.0153
     14 C           5.7308    0.8252   -0.0008 C.ar    1  LIG1       -0.0153
     15 C           5.4750    2.1629   -0.0012 C.ar    1  LIG1        0.1357
     16 O           4.1378    2.3623   -0.0009 O.2     1  LIG1       -0.4548
     17 H           4.2735   -0.8894   -0.0001 H       1  LIG1        0.0656
     18 H           6.6987    0.3540   -0.0009 H       1  LIG1        0.0656
     19 C           5.7447    4.6320   -0.0022 C.ar    1  LIG1       -0.0511
     20 C           6.5473    5.7675   -0.0027 C.ar    1  LIG1       -0.0611
     21 C           6.3273    3.3620   -0.0017 C.ar    1  LIG1        0.0173
     22 C           7.9343    5.6482   -0.0028 C.ar    1  LIG1       -0.0617
     23 H           6.0872    6.7472   -0.0031 H       1  LIG1        0.0618
     24 C           7.7203    3.2444   -0.0018 C.ar    1  LIG1       -0.0511
     25 C           8.5173    4.3821   -0.0023 C.ar    1  LIG1       -0.0611
     26 H           8.1798    2.2644   -0.0014 H       1  LIG1        0.0625
     27 H           8.5569    6.5328   -0.0032 H       1  LIG1        0.0618
     28 H           4.6666    4.7202   -0.0021 H       1  LIG1        0.0625
     29 H           9.5948    4.2814   -0.0024 H       1  LIG1        0.0618
@<TRIPOS>BOND
     1    27    22    1
     2    23    20    1
     3    22    20   ar
     4    22    25   ar
     5    20    19   ar
     6    29    25    1
     7    25    24   ar
     8    19    28    1
     9    19    21   ar
    10    24    21   ar
    11    24    26    1
    12    21    15    1
    13    11     7    1
    14    15    16   ar
    15    15    14   ar
    16    16    12   ar
    17    18    14    1
    18    14    13   ar
    19     8     6    1
    20     7     6   ar
    21     7     4   ar
    22    12    13   ar
    23    12     4    1
    24     6     3   ar
    25    13    17    1
    26     4     2   ar
    27     3     9    1
    28     3     1   ar
    29     2     1   ar
    30     2     5    1
    31     1    10    1
