@<TRIPOS>MOLECULE
mol_data/opt/m06hf/geoms/mol2/412812.out
 32 35 0 0 0
SMALL
GASTEIGER

@<TRIPOS>ATOM
      1 C          -0.0123   -0.1560    0.0001 C.ar    1  LIG1       -0.0611
      2 C           1.3758   -0.0985   -0.0001 C.ar    1  LIG1       -0.0511
      3 C          -0.7626    1.0184    0.0001 C.ar    1  LIG1       -0.0617
      4 C           2.0231    1.1395   -0.0002 C.ar    1  LIG1        0.0173
      5 H           1.9531   -1.0139   -0.0000 H       1  LIG1        0.0625
      6 C          -0.1177    2.2523   -0.0001 C.ar    1  LIG1       -0.0611
      7 C           1.2716    2.3173   -0.0002 C.ar    1  LIG1       -0.0511
      8 H          -0.6947    3.1676   -0.0001 H       1  LIG1        0.0618
      9 H          -1.8436    0.9701    0.0002 H       1  LIG1        0.0618
     10 H          -0.5087   -1.1173    0.0002 H       1  LIG1        0.0618
     11 H           1.7808    3.2719   -0.0003 H       1  LIG1        0.0625
     12 C           3.4922    1.2115   -0.0003 C.ar    1  LIG1        0.1358
     13 C           4.4825    0.2683   -0.0004 C.ar    1  LIG1       -0.0151
     14 C           5.7182    0.9842   -0.0005 C.ar    1  LIG1       -0.0120
     15 C           5.3773    2.3029   -0.0005 C.ar    1  LIG1        0.1760
     16 O           4.0391    2.4428   -0.0004 O.2     1  LIG1       -0.4516
     17 H           4.3542   -0.8000   -0.0004 H       1  LIG1        0.0656
     18 H           6.7207    0.5927   -0.0006 H       1  LIG1        0.0657
     19 C           6.1971    3.5103   -0.0006 C.ar    1  LIG1        0.2381
     20 N           7.5259    3.3336   -0.0007 N.ar    1  LIG1       -0.1219
     21 C           7.6717    5.5831   -0.0008 C.ar    1  LIG1        0.2381
     22 N           5.5972    4.7006   -0.0007 N.ar    1  LIG1       -0.1219
     23 N           8.2739    4.3852   -0.0008 N.ar    1  LIG1       -0.1219
     24 N           6.3517    5.7601   -0.0008 N.ar    1  LIG1       -0.1219
     25 C           8.5492    6.7521   -0.0010 C.ar    1  LIG1        0.1751
     26 C           9.9063    6.8499   -0.0012 C.ar    1  LIG1       -0.0126
     27 C          10.1896    8.2545   -0.0015 C.ar    1  LIG1       -0.0232
     28 C           8.9803    8.8749   -0.0012 C.ar    1  LIG1        0.0927
     29 O           7.9847    7.9735   -0.0011 O.2     1  LIG1       -0.4597
     30 H           8.6853    9.9091   -0.0011 H       1  LIG1        0.1029
     31 H          10.5971    6.0243   -0.0012 H       1  LIG1        0.0656
     32 H          11.1554    8.7294   -0.0018 H       1  LIG1        0.0649
@<TRIPOS>BOND
     1    32    27    1
     2    27    26   ar
     3    27    28   ar
     4    31    26    1
     5    26    25   ar
     6    28    30    1
     7    28    29   ar
     8    29    25   ar
     9    25    21    1
    10    21    23   ar
    11    21    24   ar
    12    23    20   ar
    13    24    22   ar
    14    20    19   ar
    15    22    19   ar
    16    19    15    1
    17    18    14    1
    18    15    14   ar
    19    15    16   ar
    20    14    13   ar
    21    16    12   ar
    22    13    17    1
    23    13    12   ar
    24    11     7    1
    25    12     4    1
    26     7     4   ar
    27     7     6   ar
    28     4     2   ar
    29     8     6    1
    30     6     3   ar
    31     2     5    1
    32     2     1   ar
    33     3     1   ar
    34     3     9    1
    35     1    10    1
