@<TRIPOS>MOLECULE
mol_data/opt/m06hf/geoms/mol2/4128.out
 25 27 0 0 0
SMALL
GASTEIGER

@<TRIPOS>ATOM
      1 C          -0.0198   -0.0174    0.0003 C.ar    1  LIG1       -0.0611
      2 C           1.3693   -0.0164    0.0001 C.ar    1  LIG1       -0.0511
      3 C          -0.7216    1.1867    0.0001 C.ar    1  LIG1       -0.0617
      4 C           2.0667    1.1944   -0.0002 C.ar    1  LIG1        0.0173
      5 H           1.9099   -0.9541    0.0003 H       1  LIG1        0.0625
      6 C          -0.0265    2.3934   -0.0002 C.ar    1  LIG1       -0.0611
      7 C           1.3637    2.4020   -0.0003 C.ar    1  LIG1       -0.0511
      8 H          -0.5668    3.3310   -0.0003 H       1  LIG1        0.0618
      9 H          -1.8034    1.1833    0.0003 H       1  LIG1        0.0618
     10 H          -0.5556   -0.9576    0.0005 H       1  LIG1        0.0618
     11 H           1.9115    3.3351   -0.0005 H       1  LIG1        0.0625
     12 C           3.5384    1.2092   -0.0003 C.ar    1  LIG1        0.1358
     13 C           4.4939    0.2308   -0.0005 C.ar    1  LIG1       -0.0151
     14 C           5.7545    0.9024   -0.0007 C.ar    1  LIG1       -0.0120
     15 C           5.4611    2.2315   -0.0006 C.ar    1  LIG1        0.1760
     16 O           4.1290    2.4191   -0.0004 O.2     1  LIG1       -0.4516
     17 H           4.3277   -0.8326   -0.0004 H       1  LIG1        0.0656
     18 H           6.7430    0.4760   -0.0008 H       1  LIG1        0.0657
     19 C           6.3189    3.4130   -0.0008 C.ar    1  LIG1        0.2381
     20 N           7.6403    3.1970   -0.0010 N.ar    1  LIG1       -0.1226
     21 C           7.8466    5.4370   -0.0012 C.ar    1  LIG1        0.1605
     22 N           5.7477    4.6189   -0.0008 N.ar    1  LIG1       -0.1226
     23 N           8.4189    4.2331   -0.0012 N.ar    1  LIG1       -0.1338
     24 N           6.5355    5.6544   -0.0010 N.ar    1  LIG1       -0.1338
     25 H           8.4973    6.2983   -0.0012 H       1  LIG1        0.1085
@<TRIPOS>BOND
     1    21    25    1
     2    21    23   ar
     3    21    24   ar
     4    23    20   ar
     5    20    19   ar
     6    24    22   ar
     7    18    14    1
     8    19    22   ar
     9    19    15    1
    10    14    15   ar
    11    14    13   ar
    12    15    16   ar
    13    11     7    1
    14    13    17    1
    15    13    12   ar
    16    16    12   ar
    17    12     4    1
    18     7     4   ar
    19     7     6   ar
    20     8     6    1
    21     4     2   ar
    22     6     3   ar
    23     2     5    1
    24     2     1   ar
    25     3     9    1
    26     3     1   ar
    27     1    10    1
