@<TRIPOS>MOLECULE
mol_data/opt/m06hf/geoms/mol2/413-13-8.out
 34 37 0 0 0
SMALL
GASTEIGER

@<TRIPOS>ATOM
      1 C          -0.0829    0.7134    1.1016 C.ar    1  LIG1       -0.0611
      2 C           1.3025    0.6154    1.0193 C.ar    1  LIG1       -0.0526
      3 C          -0.7807    1.5259    0.2121 C.ar    1  LIG1       -0.0617
      4 C           2.0041    1.3168    0.0339 C.ar    1  LIG1       -0.0017
      5 H           1.8431    0.0186    1.7446 H       1  LIG1        0.0624
      6 C          -0.0855    2.2373   -0.7637 C.ar    1  LIG1       -0.0611
      7 C           1.2972    2.1273   -0.8589 C.ar    1  LIG1       -0.0526
      8 H          -0.6226    2.8676   -1.4604 H       1  LIG1        0.0618
      9 H          -1.8574    1.6064    0.2805 H       1  LIG1        0.0618
     10 H          -0.6142    0.1669    1.8698 H       1  LIG1        0.0618
     11 H           1.8371    2.6526   -1.6362 H       1  LIG1        0.0624
     12 C           3.4733    1.2159   -0.0673 C.ar    1  LIG1        0.0469
     13 C           4.4229    2.1635   -0.3938 C.ar    1  LIG1       -0.0358
     14 C           5.6951    1.5395   -0.3159 C.ar    1  LIG1       -0.0344
     15 C           5.4852    0.2289    0.0544 C.ar    1  LIG1        0.0633
     16 N           4.1361    0.0508    0.2017 N.ar    1  LIG1       -0.3530
     17 H           3.6921   -0.8093    0.4840 H       1  LIG1        0.1659
     18 H           4.2155    3.1930   -0.6334 H       1  LIG1        0.0639
     19 H           6.6574    1.9775   -0.5208 H       1  LIG1        0.0639
     20 C           6.4381   -0.8596    0.2764 C.ar    1  LIG1        0.0634
     21 C           7.6565   -0.8597    0.9373 C.ar    1  LIG1       -0.0343
     22 C           8.1764   -2.1714    0.8670 C.ar    1  LIG1       -0.0326
     23 C           7.2559   -2.9293    0.1694 C.ar    1  LIG1        0.0880
     24 N           6.2113   -2.1210   -0.1794 N.ar    1  LIG1       -0.3505
     25 H           5.4474   -2.4227   -0.7683 H       1  LIG1        0.1660
     26 H           8.0888   -0.0065    1.4314 H       1  LIG1        0.0639
     27 H           9.0989   -2.5442    1.2783 H       1  LIG1        0.0640
     28 C           7.2564   -4.3314   -0.2070 C.ar    1  LIG1        0.2193
     29 N           6.2118   -4.7775   -0.9118 N.ar    1  LIG1       -0.1243
     30 C           7.2252   -6.7825   -0.8824 C.ar    1  LIG1        0.1605
     31 N           8.2920   -5.0967    0.1678 N.ar    1  LIG1       -0.1243
     32 N           6.1964   -6.0310   -1.2571 N.ar    1  LIG1       -0.1338
     33 N           8.2708   -6.3447   -0.1785 N.ar    1  LIG1       -0.1338
     34 H           7.2165   -7.8233   -1.1677 H       1  LIG1        0.1085
@<TRIPOS>BOND
     1    11     7    1
     2     8     6    1
     3    32    29   ar
     4    32    30   ar
     5    34    30    1
     6    29    28   ar
     7    30    33   ar
     8     7     6   ar
     9     7     4   ar
    10    25    24    1
    11     6     3   ar
    12    18    13    1
    13    19    14    1
    14    13    14   ar
    15    13    12   ar
    16    14    15   ar
    17    28    31   ar
    18    28    23    1
    19    24    23   ar
    20    24    20   ar
    21    33    31   ar
    22    12     4    1
    23    12    16   ar
    24     4     2   ar
    25    15    16   ar
    26    15    20    1
    27    23    22   ar
    28    16    17    1
    29     3     9    1
    30     3     1   ar
    31    20    21   ar
    32    22    21   ar
    33    22    27    1
    34    21    26    1
    35     2     1   ar
    36     2     5    1
    37     1    10    1
