@<TRIPOS>MOLECULE
mol_data/opt/m06hf/geoms/mol2/413-12-.out
 27 29 0 0 0
SMALL
GASTEIGER

@<TRIPOS>ATOM
      1 C          -0.0901    0.1843    0.3983 C.ar    1  LIG1       -0.0611
      2 C           1.2978    0.1441    0.4853 C.ar    1  LIG1       -0.0526
      3 C          -0.7269    1.3157   -0.1043 C.ar    1  LIG1       -0.0617
      4 C           2.0657    1.2302    0.0543 C.ar    1  LIG1       -0.0017
      5 H           1.7863   -0.7207    0.9184 H       1  LIG1        0.0624
      6 C           0.0328    2.4052   -0.5253 C.ar    1  LIG1       -0.0611
      7 C           1.4205    2.3610   -0.4551 C.ar    1  LIG1       -0.0526
      8 H          -0.4563    3.2857   -0.9212 H       1  LIG1        0.0618
      9 H          -1.8064    1.3490   -0.1670 H       1  LIG1        0.0618
     10 H          -0.6735   -0.6620    0.7369 H       1  LIG1        0.0618
     11 H           2.0150    3.1923   -0.8113 H       1  LIG1        0.0624
     12 C           3.5378    1.1973    0.1406 C.ar    1  LIG1        0.0470
     13 C           4.4486    2.2021    0.4061 C.ar    1  LIG1       -0.0357
     14 C           5.7426    1.6229    0.3921 C.ar    1  LIG1       -0.0328
     15 C           5.5806    0.2810    0.1146 C.ar    1  LIG1        0.0825
     16 N           4.2453    0.0413   -0.0267 N.ar    1  LIG1       -0.3518
     17 H           3.8608   -0.8482   -0.3086 H       1  LIG1        0.1660
     18 H           4.1987    3.2266    0.6263 H       1  LIG1        0.0639
     19 H           6.6812    2.1177    0.5764 H       1  LIG1        0.0640
     20 C           6.5453   -0.7996   -0.0380 C.ar    1  LIG1        0.1509
     21 C           7.9027   -0.8594   -0.0111 C.ar    1  LIG1       -0.0144
     22 C           8.2406   -2.2421   -0.2242 C.ar    1  LIG1       -0.0233
     23 C           7.0660   -2.8988   -0.3642 C.ar    1  LIG1        0.0926
     24 O           6.0309   -2.0339   -0.2520 O.2     1  LIG1       -0.4615
     25 H           6.8110   -3.9282   -0.5408 H       1  LIG1        0.1029
     26 H           8.5750   -0.0329    0.1393 H       1  LIG1        0.0656
     27 H           9.2254   -2.6745   -0.2675 H       1  LIG1        0.0649
@<TRIPOS>BOND
     1     8     6    1
     2    11     7    1
     3    25    23    1
     4     6     7   ar
     5     6     3   ar
     6     7     4   ar
     7    23    24   ar
     8    23    22   ar
     9    17    16    1
    10    27    22    1
    11    24    20   ar
    12    22    21   ar
    13     9     3    1
    14     3     1   ar
    15    20    21   ar
    16    20    15    1
    17    16    15   ar
    18    16    12   ar
    19    21    26    1
    20     4    12    1
    21     4     2   ar
    22    15    14   ar
    23    12    13   ar
    24    14    13   ar
    25    14    19    1
    26     1     2   ar
    27     1    10    1
    28    13    18    1
    29     2     5    1
