@<TRIPOS>MOLECULE
mol_data/opt/m06hf/geoms/mol2/413-4-.out
 30 32 0 0 0
SMALL
GASTEIGER

@<TRIPOS>ATOM
      1 C          -0.0735    0.3314    0.8086 C.ar    1  LIG1       -0.0611
      2 C           1.3171    0.3020    0.7845 C.ar    1  LIG1       -0.0526
      3 C          -0.7641    1.3349    0.1343 C.ar    1  LIG1       -0.0617
      4 C           2.0339    1.2669    0.0697 C.ar    1  LIG1       -0.0017
      5 H           1.8494   -0.4544    1.3490 H       1  LIG1        0.0624
      6 C          -0.0550    2.3083   -0.5670 C.ar    1  LIG1       -0.0611
      7 C           1.3340    2.2710   -0.6065 C.ar    1  LIG1       -0.0526
      8 H          -0.5860    3.0895   -1.0954 H       1  LIG1        0.0618
      9 H          -1.8454    1.3600    0.1568 H       1  LIG1        0.0618
     10 H          -0.6168   -0.4213    1.3647 H       1  LIG1        0.0618
     11 H           1.8877    3.0058   -1.1764 H       1  LIG1        0.0624
     12 C           3.5088    1.2354    0.0226 C.ar    1  LIG1        0.0469
     13 C           4.4367    2.2572    0.0139 C.ar    1  LIG1       -0.0358
     14 C           5.7250    1.6625   -0.0113 C.ar    1  LIG1       -0.0358
     15 C           5.5493    0.2936   -0.0239 C.ar    1  LIG1        0.0469
     16 N           4.2029    0.0580   -0.0018 N.ar    1  LIG1       -0.3542
     17 H           3.7803   -0.8575   -0.0034 H       1  LIG1        0.1659
     18 H           4.2050    3.3089    0.0516 H       1  LIG1        0.0639
     19 H           6.6757    2.1686   -0.0465 H       1  LIG1        0.0639
     20 C           7.7475   -0.6914    0.6053 C.ar    1  LIG1       -0.0526
     21 C           8.6770   -1.7242    0.5642 C.ar    1  LIG1       -0.0611
     22 C           6.5301   -0.8083   -0.0727 C.ar    1  LIG1       -0.0017
     23 C           8.3970   -2.8934   -0.1405 C.ar    1  LIG1       -0.0617
     24 H           9.6153   -1.6229    1.0940 H       1  LIG1        0.0618
     25 C           6.2617   -1.9779   -0.7909 C.ar    1  LIG1       -0.0526
     26 C           7.1863   -3.0170   -0.8167 C.ar    1  LIG1       -0.0611
     27 H           5.3415   -2.0620   -1.3569 H       1  LIG1        0.0624
     28 H           9.1177   -3.6999   -0.1643 H       1  LIG1        0.0618
     29 H           7.9468    0.2052    1.1778 H       1  LIG1        0.0624
     30 H           6.9665   -3.9173   -1.3754 H       1  LIG1        0.0618
@<TRIPOS>BOND
     1    30    26    1
     2    27    25    1
     3    11     7    1
     4     8     6    1
     5    26    25   ar
     6    26    23   ar
     7    25    22   ar
     8     7     6   ar
     9     7     4   ar
    10     6     3   ar
    11    28    23    1
    12    23    21   ar
    13    22    15    1
    14    22    20   ar
    15    19    14    1
    16    15    14   ar
    17    15    16   ar
    18    14    13   ar
    19    17    16    1
    20    16    12   ar
    21    13    12   ar
    22    13    18    1
    23    12     4    1
    24     4     2   ar
    25     3     9    1
    26     3     1   ar
    27    21    20   ar
    28    21    24    1
    29    20    29    1
    30     2     1   ar
    31     2     5    1
    32     1    10    1
