@<TRIPOS>MOLECULE
mol_data/opt/m06hf/geoms/mol2/413-12.out
 27 29 0 0 0
SMALL
GASTEIGER

@<TRIPOS>ATOM
      1 C          -0.0981    0.1703    0.3222 C.ar    1  LIG1       -0.0611
      2 C           1.2866    0.1323    0.4518 C.ar    1  LIG1       -0.0526
      3 C          -0.7231    1.3095   -0.1780 C.ar    1  LIG1       -0.0617
      4 C           2.0633    1.2293    0.0661 C.ar    1  LIG1       -0.0017
      5 H           1.7663   -0.7383    0.8830 H       1  LIG1        0.0624
      6 C           0.0451    2.4100   -0.5528 C.ar    1  LIG1       -0.0611
      7 C           1.4302    2.3686   -0.4391 C.ar    1  LIG1       -0.0526
      8 H          -0.4345    3.2967   -0.9463 H       1  LIG1        0.0618
      9 H          -1.8002    1.3398   -0.2746 H       1  LIG1        0.0618
     10 H          -0.6893   -0.6836    0.6259 H       1  LIG1        0.0618
     11 H           2.0336    3.2083   -0.7586 H       1  LIG1        0.0624
     12 C           3.5328    1.1940    0.1919 C.ar    1  LIG1        0.0470
     13 C           4.4368    2.1794    0.5338 C.ar    1  LIG1       -0.0357
     14 C           5.7320    1.5996    0.5100 C.ar    1  LIG1       -0.0328
     15 C           5.5769    0.2777    0.1521 C.ar    1  LIG1        0.0825
     16 N           4.2429    0.0461   -0.0284 N.ar    1  LIG1       -0.3518
     17 H           3.8522   -0.7959   -0.4213 H       1  LIG1        0.1660
     18 H           4.1822    3.1895    0.8093 H       1  LIG1        0.0639
     19 H           6.6711    2.0719    0.7428 H       1  LIG1        0.0640
     20 C           6.5668   -0.7752   -0.0284 C.ar    1  LIG1        0.1509
     21 C           6.4844   -2.1330   -0.0835 C.ar    1  LIG1       -0.0144
     22 C           7.8287   -2.6018   -0.2892 C.ar    1  LIG1       -0.0233
     23 C           8.6046   -1.4931   -0.3318 C.ar    1  LIG1        0.0926
     24 O           7.8495   -0.3844   -0.1779 O.2     1  LIG1       -0.4615
     25 H           9.6605   -1.3370   -0.4597 H       1  LIG1        0.1029
     26 H           5.5965   -2.7310    0.0340 H       1  LIG1        0.0656
     27 H           8.1594   -3.6217   -0.3824 H       1  LIG1        0.0649
@<TRIPOS>BOND
     1     8     6    1
     2    11     7    1
     3     6     7   ar
     4     6     3   ar
     5    25    23    1
     6     7     4   ar
     7    17    16    1
     8    27    22    1
     9    23    22   ar
    10    23    24   ar
    11    22    21   ar
    12     9     3    1
    13     3     1   ar
    14    24    20   ar
    15    21    20   ar
    16    21    26    1
    17    20    15    1
    18    16    15   ar
    19    16    12   ar
    20     4    12    1
    21     4     2   ar
    22    15    14   ar
    23    12    13   ar
    24     1     2   ar
    25     1    10    1
    26     2     5    1
    27    14    13   ar
    28    14    19    1
    29    13    18    1
