@<TRIPOS>MOLECULE
mol_data/opt/m06hf/geoms/mol2/413-55.out
 34 37 0 0 0
SMALL
GASTEIGER

@<TRIPOS>ATOM
      1 C          -0.1096    0.1908    0.7800 C.ar    1  LIG1       -0.0611
      2 C           1.2809    0.1849    0.7407 C.ar    1  LIG1       -0.0526
      3 C          -0.8202    1.2591    0.2396 C.ar    1  LIG1       -0.0617
      4 C           1.9763    1.2405    0.1424 C.ar    1  LIG1       -0.0017
      5 H           1.8301   -0.6267    1.2033 H       1  LIG1        0.0624
      6 C          -0.1321    2.3203   -0.3453 C.ar    1  LIG1       -0.0611
      7 C           1.2569    2.3089   -0.4004 C.ar    1  LIG1       -0.0526
      8 H          -0.6792    3.1520   -0.7698 H       1  LIG1        0.0618
      9 H          -1.9015    1.2659    0.2753 H       1  LIG1        0.0618
     10 H          -0.6366   -0.6313    1.2465 H       1  LIG1        0.0618
     11 H           1.7943    3.1156   -0.8817 H       1  LIG1        0.0624
     12 C           3.4511    1.2404    0.0824 C.ar    1  LIG1        0.0469
     13 C           4.3597    2.2741    0.1982 C.ar    1  LIG1       -0.0358
     14 C           5.6583    1.7161    0.0806 C.ar    1  LIG1       -0.0353
     15 C           5.5044    0.3570   -0.1075 C.ar    1  LIG1        0.0536
     16 N           4.1642    0.0895   -0.0970 N.ar    1  LIG1       -0.3537
     17 H           3.7618   -0.8262   -0.2243 H       1  LIG1        0.1659
     18 H           4.1086    3.3062    0.3773 H       1  LIG1        0.0639
     19 H           6.6004    2.2383    0.1093 H       1  LIG1        0.0639
     20 C           6.4897   -0.7050   -0.3094 C.ar    1  LIG1        0.0361
     21 C           6.3801   -1.8281   -1.0808 C.ar    1  LIG1       -0.0449
     22 C           7.5550   -2.6425   -1.0415 C.ar    1  LIG1       -0.0458
     23 C           8.5326   -2.1219   -0.2436 C.ar    1  LIG1        0.0265
     24 S           8.0181   -0.6402    0.4919 S.2     1  LIG1       -0.0863
     25 H           5.5173   -2.0428   -1.6951 H       1  LIG1        0.0630
     26 H           7.6889   -3.5521   -1.6086 H       1  LIG1        0.0629
     27 C           9.8529   -2.7017    0.0295 C.ar    1  LIG1        0.0259
     28 C          10.1380   -4.0129    0.2796 C.ar    1  LIG1       -0.0464
     29 C          11.5368   -4.2456    0.4829 C.ar    1  LIG1       -0.0541
     30 C          12.2711   -3.1042    0.3901 C.ar    1  LIG1       -0.0237
     31 S          11.2899   -1.7360    0.0355 S.2     1  LIG1       -0.0961
     32 H          13.3360   -2.9892    0.5091 H       1  LIG1        0.0693
     33 H           9.3728   -4.7724    0.3426 H       1  LIG1        0.0629
     34 H          11.9628   -5.2135    0.7003 H       1  LIG1        0.0623
@<TRIPOS>BOND
     1    25    21    1
     2    26    22    1
     3    21    22   ar
     4    21    20   ar
     5    22    23   ar
     6    11     7    1
     7     8     6    1
     8     7     6   ar
     9     7     4   ar
    10     6     3   ar
    11    20    15    1
    12    20    24   ar
    13    23    27    1
    14    23    24   ar
    15    17    16    1
    16    15    16   ar
    17    15    14   ar
    18    16    12   ar
    19    27    31   ar
    20    27    28   ar
    21    31    30   ar
    22    14    19    1
    23    14    13   ar
    24    12     4    1
    25    12    13   ar
    26     4     2   ar
    27    13    18    1
    28     3     9    1
    29     3     1   ar
    30    28    33    1
    31    28    29   ar
    32    30    29   ar
    33    30    32    1
    34    29    34    1
    35     2     1   ar
    36     2     5    1
    37     1    10    1
