@<TRIPOS>MOLECULE
mol_data/opt/m06hf/geoms/mol2/413-.out
 20 21 0 0 0
SMALL
GASTEIGER

@<TRIPOS>ATOM
      1 C          -0.0195    0.0933    0.2936 C.ar    1  LIG1       -0.0611
      2 C           1.3715    0.0588    0.3113 C.ar    1  LIG1       -0.0526
      3 C          -0.6862    1.2785   -0.0054 C.ar    1  LIG1       -0.0617
      4 C           2.1129    1.2059    0.0116 C.ar    1  LIG1       -0.0017
      5 H           1.8842   -0.8539    0.5905 H       1  LIG1        0.0624
      6 C           0.0468    2.4280   -0.2933 C.ar    1  LIG1       -0.0611
      7 C           1.4367    2.3911   -0.2935 C.ar    1  LIG1       -0.0526
      8 H          -0.4642    3.3519   -0.5308 H       1  LIG1        0.0618
      9 H          -1.7679    1.3069   -0.0128 H       1  LIG1        0.0618
     10 H          -0.5810   -0.8011    0.5293 H       1  LIG1        0.0618
     11 H           2.0094    3.2734   -0.5477 H       1  LIG1        0.0624
     12 C           3.5887    1.1805    0.0225 C.ar    1  LIG1        0.0465
     13 C           4.5039    2.1331    0.4167 C.ar    1  LIG1       -0.0364
     14 C           5.8020    1.5809    0.2322 C.ar    1  LIG1       -0.0438
     15 C           5.6350    0.3131   -0.2700 C.ar    1  LIG1        0.0022
     16 N           4.2956    0.0809   -0.3842 N.ar    1  LIG1       -0.3607
     17 H           3.8788   -0.7360   -0.8003 H       1  LIG1        0.1653
     18 H           6.3567   -0.4320   -0.5565 H       1  LIG1        0.0807
     19 H           4.2585    3.0985    0.8272 H       1  LIG1        0.0639
     20 H           6.7446    2.0527    0.4508 H       1  LIG1        0.0633
@<TRIPOS>BOND
     1    17    16    1
     2    18    15    1
     3    11     7    1
     4     8     6    1
     5    16    15   ar
     6    16    12   ar
     7     7     6   ar
     8     7     4   ar
     9     6     3   ar
    10    15    14   ar
    11     9     3    1
    12     3     1   ar
    13     4    12    1
    14     4     2   ar
    15    12    13   ar
    16    14    13   ar
    17    14    20    1
    18     1     2   ar
    19     1    10    1
    20     2     5    1
    21    13    19    1
