@<TRIPOS>MOLECULE
mol_data/opt/m06hf/geoms/mol2/413-13.out
 28 30 0 0 0
SMALL
GASTEIGER

@<TRIPOS>ATOM
      1 C          -0.0588    0.2686    0.7184 C.ar    1  LIG1       -0.0611
      2 C           1.3321    0.2392    0.7052 C.ar    1  LIG1       -0.0526
      3 C          -0.7420    1.3170    0.1082 C.ar    1  LIG1       -0.0617
      4 C           2.0560    1.2496    0.0647 C.ar    1  LIG1       -0.0017
      5 H           1.8590   -0.5553    1.2205 H       1  LIG1        0.0624
      6 C          -0.0259    2.3333   -0.5208 C.ar    1  LIG1       -0.0611
      7 C           1.3636    2.2972   -0.5499 C.ar    1  LIG1       -0.0526
      8 H          -0.5514    3.1488   -1.0009 H       1  LIG1        0.0618
      9 H          -1.8235    1.3423    0.1228 H       1  LIG1        0.0618
     10 H          -0.6071   -0.5192    1.2182 H       1  LIG1        0.0618
     11 H           1.9223    3.0674   -1.0653 H       1  LIG1        0.0624
     12 C           3.5315    1.2246    0.0372 C.ar    1  LIG1        0.0469
     13 C           4.4527    2.2501    0.1075 C.ar    1  LIG1       -0.0358
     14 C           5.7464    1.6668    0.0526 C.ar    1  LIG1       -0.0344
     15 C           5.5753    0.3007   -0.0478 C.ar    1  LIG1        0.0633
     16 N           4.2333    0.0543   -0.0479 N.ar    1  LIG1       -0.3530
     17 H           3.8277   -0.8648   -0.1367 H       1  LIG1        0.1659
     18 H           4.2140    3.2954    0.2130 H       1  LIG1        0.0639
     19 H           6.6942    2.1795    0.0523 H       1  LIG1        0.0639
     20 C           6.5454   -0.7910   -0.1467 C.ar    1  LIG1        0.0629
     21 C           6.5389   -1.9514   -0.8915 C.ar    1  LIG1       -0.0350
     22 C           7.7401   -2.6528   -0.5902 C.ar    1  LIG1       -0.0438
     23 C           8.4359   -1.8950    0.3206 C.ar    1  LIG1        0.0022
     24 N           7.7017   -0.7748    0.5806 N.ar    1  LIG1       -0.3595
     25 H           7.9307   -0.0565    1.2491 H       1  LIG1        0.1654
     26 H           9.3839   -2.0648    0.8001 H       1  LIG1        0.0807
     27 H           5.7777   -2.2360   -1.5991 H       1  LIG1        0.0639
     28 H           8.0600   -3.5949   -1.0019 H       1  LIG1        0.0633
@<TRIPOS>BOND
     1    27    21    1
     2    11     7    1
     3    28    22    1
     4     8     6    1
     5    21    22   ar
     6    21    20   ar
     7    22    23   ar
     8     7     6   ar
     9     7     4   ar
    10     6     3   ar
    11    20    15    1
    12    20    24   ar
    13    17    16    1
    14    16    15   ar
    15    16    12   ar
    16    15    14   ar
    17    12     4    1
    18    12    13   ar
    19    19    14    1
    20    14    13   ar
    21     4     2   ar
    22    13    18    1
    23     3     9    1
    24     3     1   ar
    25    23    24   ar
    26    23    26    1
    27    24    25    1
    28     2     1   ar
    29     2     5    1
    30     1    10    1
