@<TRIPOS>MOLECULE
mol_data/opt/m06hf/geoms/mol2/413.out
 20 21 0 0 0
SMALL
GASTEIGER

@<TRIPOS>ATOM
      1 C          -0.0082    0.0939    0.2947 C.ar    1  LIG1       -0.0611
      2 C           1.3817    0.0643    0.2936 C.ar    1  LIG1       -0.0526
      3 C          -0.6857    1.2772    0.0076 C.ar    1  LIG1       -0.0617
      4 C           2.1137    1.2159   -0.0120 C.ar    1  LIG1       -0.0017
      5 H           1.9120   -0.8442    0.5474 H       1  LIG1        0.0624
      6 C           0.0365    2.4291   -0.2920 C.ar    1  LIG1       -0.0611
      7 C           1.4276    2.3971   -0.3110 C.ar    1  LIG1       -0.0526
      8 H          -0.4816    3.3494   -0.5274 H       1  LIG1        0.0618
      9 H          -1.7675    1.3004    0.0160 H       1  LIG1        0.0618
     10 H          -0.5625   -0.8044    0.5328 H       1  LIG1        0.0618
     11 H           1.9832    3.2841   -0.5910 H       1  LIG1        0.0624
     12 C           3.5889    1.1708   -0.0243 C.ar    1  LIG1        0.0465
     13 C           4.4572    0.1754   -0.4188 C.ar    1  LIG1       -0.0364
     14 C           5.7803    0.6650   -0.2351 C.ar    1  LIG1       -0.0438
     15 C           5.6745    1.9395    0.2670 C.ar    1  LIG1        0.0022
     16 N           4.3478    2.2353    0.3820 N.ar    1  LIG1       -0.3607
     17 H           3.9706    3.0707    0.7994 H       1  LIG1        0.1653
     18 H           6.4309    2.6493    0.5531 H       1  LIG1        0.0807
     19 H           4.1657   -0.7768   -0.8298 H       1  LIG1        0.0639
     20 H           6.6992    0.1487   -0.4545 H       1  LIG1        0.0633
@<TRIPOS>BOND
     1    19    13    1
     2    11     7    1
     3     8     6    1
     4    20    14    1
     5    13    14   ar
     6    13    12   ar
     7     7     6   ar
     8     7     4   ar
     9     6     3   ar
    10    14    15   ar
    11    12     4    1
    12    12    16   ar
    13     4     2   ar
    14     3     9    1
    15     3     1   ar
    16    15    16   ar
    17    15    18    1
    18     2     1   ar
    19     2     5    1
    20     1    10    1
    21    16    17    1
