@<TRIPOS>MOLECULE
mol_data/opt/m06hf/geoms/mol2/41312.out
 27 29 0 0 0
SMALL
GASTEIGER

@<TRIPOS>ATOM
      1 C          -0.0212    0.1246    0.5266 C.ar    1  LIG1       -0.0611
      2 C           1.3669    0.0973    0.4556 C.ar    1  LIG1       -0.0526
      3 C          -0.7240    1.2517    0.1059 C.ar    1  LIG1       -0.0617
      4 C           2.0692    1.1933   -0.0542 C.ar    1  LIG1       -0.0017
      5 H           1.9179   -0.7635    0.8116 H       1  LIG1        0.0624
      6 C          -0.0300    2.3488   -0.3972 C.ar    1  LIG1       -0.0611
      7 C           1.3580    2.3175   -0.4849 C.ar    1  LIG1       -0.0526
      8 H          -0.5692    3.2240   -0.7355 H       1  LIG1        0.0618
      9 H          -1.8038    1.2741    0.1691 H       1  LIG1        0.0618
     10 H          -0.5548   -0.7295    0.9228 H       1  LIG1        0.0618
     11 H           1.8902    3.1560   -0.9183 H       1  LIG1        0.0624
     12 C           3.5410    1.1503   -0.1413 C.ar    1  LIG1        0.0470
     13 C           4.3986    0.0999   -0.4073 C.ar    1  LIG1       -0.0357
     14 C           5.7208    0.6116   -0.3940 C.ar    1  LIG1       -0.0328
     15 C           5.6283    1.9601   -0.1165 C.ar    1  LIG1        0.0825
     16 N           4.3072    2.2683    0.0256 N.ar    1  LIG1       -0.3518
     17 H           3.9692    3.1765    0.3076 H       1  LIG1        0.1660
     18 H           4.0962   -0.9104   -0.6272 H       1  LIG1        0.0639
     19 H           6.6326    0.0692   -0.5788 H       1  LIG1        0.0640
     20 C           6.6474    2.9896    0.0355 C.ar    1  LIG1        0.1509
     21 C           8.0061    2.9795    0.0073 C.ar    1  LIG1       -0.0144
     22 C           8.4150    4.3429    0.2205 C.ar    1  LIG1       -0.0233
     23 C           7.2758    5.0591    0.3618 C.ar    1  LIG1        0.0926
     24 O           6.1974    4.2486    0.2504 O.2     1  LIG1       -0.4615
     25 H           7.0742    6.1002    0.5390 H       1  LIG1        0.1029
     26 H           8.6348    2.1196   -0.1441 H       1  LIG1        0.0656
     27 H           9.4207    4.7241    0.2629 H       1  LIG1        0.0649
@<TRIPOS>BOND
     1    11     7    1
     2     8     6    1
     3    18    13    1
     4    19    14    1
     5     7     6   ar
     6     7     4   ar
     7    13    14   ar
     8    13    12   ar
     9     6     3   ar
    10    14    15   ar
    11    26    21    1
    12    12     4    1
    13    12    16   ar
    14    15    16   ar
    15    15    20    1
    16     4     2   ar
    17    21    20   ar
    18    21    22   ar
    19    16    17    1
    20    20    24   ar
    21     3     9    1
    22     3     1   ar
    23    22    27    1
    24    22    23   ar
    25    24    23   ar
    26    23    25    1
    27     2     1   ar
    28     2     5    1
    29     1    10    1
