@<TRIPOS>MOLECULE
mol_data/opt/m06hf/geoms/mol2/41313-5-.out
 35 38 0 0 0
SMALL
GASTEIGER

@<TRIPOS>ATOM
      1 C          -0.1938    0.3042    0.1996 C.ar    1  LIG1       -0.0611
      2 C           1.1791    0.2218    0.4022 C.ar    1  LIG1       -0.0526
      3 C          -0.7343    1.3675   -0.5208 C.ar    1  LIG1       -0.0617
      4 C           2.0310    1.1947   -0.1281 C.ar    1  LIG1       -0.0017
      5 H           1.6006   -0.5849    0.9879 H       1  LIG1        0.0624
      6 C           0.1082    2.3423   -1.0479 C.ar    1  LIG1       -0.0611
      7 C           1.4840    2.2528   -0.8607 C.ar    1  LIG1       -0.0526
      8 H          -0.3034    3.1656   -1.6168 H       1  LIG1        0.0618
      9 H          -1.8035    1.4346   -0.6716 H       1  LIG1        0.0618
     10 H          -0.8441   -0.4543    0.6155 H       1  LIG1        0.0618
     11 H           2.1384    2.9894   -1.3117 H       1  LIG1        0.0624
     12 C           3.4883    1.0929    0.0837 C.ar    1  LIG1        0.0469
     13 C           4.3181   -0.0091    0.1316 C.ar    1  LIG1       -0.0358
     14 C           5.6407    0.4607    0.3439 C.ar    1  LIG1       -0.0344
     15 C           5.5780    1.8379    0.4168 C.ar    1  LIG1        0.0633
     16 N           4.2729    2.1998    0.2510 N.ar    1  LIG1       -0.3530
     17 H           3.9377    3.1506    0.2840 H       1  LIG1        0.1659
     18 H           4.0046   -1.0313    0.0013 H       1  LIG1        0.0639
     19 H           6.5329   -0.1320    0.4618 H       1  LIG1        0.0639
     20 C           6.6251    2.8365    0.6278 C.ar    1  LIG1        0.0633
     21 C           6.6250    4.0301    1.3221 C.ar    1  LIG1       -0.0344
     22 C           7.9195    4.5974    1.1854 C.ar    1  LIG1       -0.0353
     23 C           8.6672    3.7339    0.4121 C.ar    1  LIG1        0.0536
     24 N           7.8671    2.6729    0.0876 N.ar    1  LIG1       -0.3526
     25 H           8.1092    1.9388   -0.5611 H       1  LIG1        0.1660
     26 H           5.8038    4.4170    1.9027 H       1  LIG1        0.0639
     27 H           8.2869    5.5070    1.6302 H       1  LIG1        0.0639
     28 C          10.0550    3.8269   -0.0438 C.ar    1  LIG1        0.0355
     29 C          10.7367    4.9482   -0.4161 C.ar    1  LIG1       -0.0455
     30 C          12.0919    4.6725   -0.7950 C.ar    1  LIG1       -0.0541
     31 C          12.3993    3.3512   -0.7119 C.ar    1  LIG1       -0.0237
     32 S          11.0638    2.4208   -0.1426 S.2     1  LIG1       -0.0952
     33 H          13.3330    2.8679   -0.9479 H       1  LIG1        0.0693
     34 H          10.2787    5.9257   -0.4435 H       1  LIG1        0.0629
     35 H          12.7907    5.4258   -1.1269 H       1  LIG1        0.0623
@<TRIPOS>BOND
     1     8     6    1
     2    11     7    1
     3    35    30    1
     4     6     7   ar
     5     6     3   ar
     6    33    31    1
     7     7     4   ar
     8    30    31   ar
     9    30    29   ar
    10    31    32   ar
    11     9     3    1
    12    25    24    1
    13     3     1   ar
    14    34    29    1
    15    29    28   ar
    16    32    28   ar
    17     4    12    1
    18     4     2   ar
    19    28    23    1
    20    18    13    1
    21    12    13   ar
    22    12    16   ar
    23    24    23   ar
    24    24    20   ar
    25    13    14   ar
    26     1     2   ar
    27     1    10    1
    28    16    17    1
    29    16    15   ar
    30    14    15   ar
    31    14    19    1
    32     2     5    1
    33    23    22   ar
    34    15    20    1
    35    20    21   ar
    36    22    21   ar
    37    22    27    1
    38    21    26    1
