@<TRIPOS>MOLECULE
mol_data/opt/m06hf/geoms/mol2/41313.out
 28 30 0 0 0
SMALL
GASTEIGER

@<TRIPOS>ATOM
      1 C           0.0007    0.0210   -0.5003 C.ar    1  LIG1       -0.0611
      2 C           1.3802    0.0208   -0.3277 C.ar    1  LIG1       -0.0526
      3 C          -0.7309    1.1913   -0.3074 C.ar    1  LIG1       -0.0617
      4 C           2.0447    1.1886    0.0589 C.ar    1  LIG1       -0.0017
      5 H           1.9565   -0.8771   -0.5100 H       1  LIG1        0.0624
      6 C          -0.0749    2.3594    0.0718 C.ar    1  LIG1       -0.0611
      7 C           1.3034    2.3572    0.2620 C.ar    1  LIG1       -0.0526
      8 H          -0.6377    3.2696    0.2335 H       1  LIG1        0.0618
      9 H          -1.8033    1.1926   -0.4506 H       1  LIG1        0.0618
     10 H          -0.5022   -0.8892   -0.7997 H       1  LIG1        0.0618
     11 H           1.8036    3.2571    0.5987 H       1  LIG1        0.0624
     12 C           3.5071    1.1748    0.2491 C.ar    1  LIG1        0.0469
     13 C           4.3473    0.1850    0.7150 C.ar    1  LIG1       -0.0358
     14 C           5.6706    0.7032    0.6991 C.ar    1  LIG1       -0.0344
     15 C           5.6008    1.9911    0.2170 C.ar    1  LIG1        0.0633
     16 N           4.2828    2.2662   -0.0385 N.ar    1  LIG1       -0.3530
     17 H           3.9631    3.0715   -0.5548 H       1  LIG1        0.1659
     18 H           4.0312   -0.7808    1.0729 H       1  LIG1        0.0639
     19 H           6.5725    0.2170    1.0303 H       1  LIG1        0.0639
     20 C           6.6507    2.9831   -0.0277 C.ar    1  LIG1        0.0629
     21 C           7.8679    2.8718   -0.6598 C.ar    1  LIG1       -0.0350
     22 C           8.4921    4.1504   -0.6065 C.ar    1  LIG1       -0.0438
     23 C           7.6328    4.9961    0.0518 C.ar    1  LIG1        0.0022
     24 N           6.5205    4.2816    0.3929 N.ar    1  LIG1       -0.3595
     25 H           5.7643    4.6121    0.9709 H       1  LIG1        0.1654
     26 H           7.7251    6.0383    0.3032 H       1  LIG1        0.0807
     27 H           8.2419    1.9749   -1.1236 H       1  LIG1        0.0639
     28 H           9.4520    4.4195   -1.0134 H       1  LIG1        0.0633
@<TRIPOS>BOND
     1    27    21    1
     2    28    22    1
     3    10     1    1
     4    21    22   ar
     5    21    20   ar
     6    22    23   ar
     7    17    16    1
     8     5     2    1
     9     1     2   ar
    10     1     3   ar
    11     9     3    1
    12     2     4   ar
    13     3     6   ar
    14    16    15   ar
    15    16    12   ar
    16    20    15    1
    17    20    24   ar
    18    23    26    1
    19    23    24   ar
    20     4    12    1
    21     4     7   ar
    22     6     8    1
    23     6     7   ar
    24    15    14   ar
    25    12    13   ar
    26     7    11    1
    27    24    25    1
    28    14    13   ar
    29    14    19    1
    30    13    18    1
