@<TRIPOS>MOLECULE
mol_data/opt/m06hf/geoms/mol2/41313-.out
 28 30 0 0 0
SMALL
GASTEIGER

@<TRIPOS>ATOM
      1 C          -0.0789    0.2075    0.5303 C.ar    1  LIG1       -0.0611
      2 C           1.3106    0.1688    0.5545 C.ar    1  LIG1       -0.0526
      3 C          -0.7414    1.2621   -0.0946 C.ar    1  LIG1       -0.0617
      4 C           2.0564    1.1789   -0.0607 C.ar    1  LIG1       -0.0017
      5 H           1.8289   -0.6312    1.0667 H       1  LIG1        0.0624
      6 C          -0.0048    2.2734   -0.7054 C.ar    1  LIG1       -0.0611
      7 C           1.3857    2.2279   -0.6970 C.ar    1  LIG1       -0.0526
      8 H          -0.5117    3.0904   -1.2020 H       1  LIG1        0.0618
      9 H          -1.8227    1.2951   -0.1055 H       1  LIG1        0.0618
     10 H          -0.6459   -0.5793    1.0108 H       1  LIG1        0.0618
     11 H           1.9528    2.9937   -1.2128 H       1  LIG1        0.0624
     12 C           3.5312    1.1244   -0.0384 C.ar    1  LIG1        0.0469
     13 C           4.3957    0.0510   -0.1140 C.ar    1  LIG1       -0.0358
     14 C           5.7190    0.5639   -0.0629 C.ar    1  LIG1       -0.0344
     15 C           5.6219    1.9370    0.0409 C.ar    1  LIG1        0.0633
     16 N           4.2950    2.2552    0.0462 N.ar    1  LIG1       -0.3530
     17 H           3.9396    3.1945    0.1379 H       1  LIG1        0.1659
     18 H           4.1008   -0.9797   -0.2203 H       1  LIG1        0.0639
     19 H           6.6379    0.0011   -0.0674 H       1  LIG1        0.0639
     20 C           6.6498    2.9747    0.1385 C.ar    1  LIG1        0.0629
     21 C           6.7084    4.1320    0.8857 C.ar    1  LIG1       -0.0350
     22 C           7.9447    4.7683    0.5818 C.ar    1  LIG1       -0.0438
     23 C           8.5957    3.9759   -0.3326 C.ar    1  LIG1        0.0022
     24 N           7.8014    2.8976   -0.5924 N.ar    1  LIG1       -0.3595
     25 H           7.9892    2.1694   -1.2630 H       1  LIG1        0.1654
     26 H           9.5501    4.0952   -0.8147 H       1  LIG1        0.0807
     27 H           5.9657    4.4559    1.5961 H       1  LIG1        0.0639
     28 H           8.3163    5.6909    0.9943 H       1  LIG1        0.0633
@<TRIPOS>BOND
     1    25    24    1
     2    11     7    1
     3     8     6    1
     4    26    23    1
     5     6     7   ar
     6     6     3   ar
     7     7     4   ar
     8    24    23   ar
     9    24    20   ar
    10    23    22   ar
    11    18    13    1
    12    13    14   ar
    13    13    12   ar
    14     9     3    1
    15     3     1   ar
    16    19    14    1
    17    14    15   ar
    18     4    12    1
    19     4     2   ar
    20    12    16   ar
    21    15    16   ar
    22    15    20    1
    23    16    17    1
    24    20    21   ar
    25     1     2   ar
    26     1    10    1
    27     2     5    1
    28    22    21   ar
    29    22    28    1
    30    21    27    1
