@<TRIPOS>MOLECULE
mol_data/opt/m06hf/geoms/mol2/41312-5-.out
 34 37 0 0 0
SMALL
GASTEIGER

@<TRIPOS>ATOM
      1 C          -0.0357    0.0833    0.6131 C.ar    1  LIG1       -0.0611
      2 C           1.3452    0.0728    0.4531 C.ar    1  LIG1       -0.0526
      3 C          -0.7722    1.2184    0.2807 C.ar    1  LIG1       -0.0617
      4 C           2.0046    1.1950   -0.0575 C.ar    1  LIG1       -0.0017
      5 H           1.9256   -0.7946    0.7393 H       1  LIG1        0.0624
      6 C          -0.1207    2.3408   -0.2239 C.ar    1  LIG1       -0.0611
      7 C           1.2594    2.3272   -0.4003 C.ar    1  LIG1       -0.0526
      8 H          -0.6879    3.2219   -0.4942 H       1  LIG1        0.0618
      9 H          -1.8459    1.2277    0.4132 H       1  LIG1        0.0618
     10 H          -0.5360   -0.7907    1.0091 H       1  LIG1        0.0618
     11 H           1.7570    3.1857   -0.8352 H       1  LIG1        0.0624
     12 C           3.4692    1.1701   -0.2334 C.ar    1  LIG1        0.0470
     13 C           4.3147    0.1467   -0.6127 C.ar    1  LIG1       -0.0357
     14 C           5.6352    0.6644   -0.6261 C.ar    1  LIG1       -0.0328
     15 C           5.5539    1.9891   -0.2520 C.ar    1  LIG1        0.0825
     16 N           4.2382    2.2821   -0.0268 N.ar    1  LIG1       -0.3518
     17 H           3.8958    3.1396    0.3774 H       1  LIG1        0.1660
     18 H           4.0042   -0.8474   -0.8870 H       1  LIG1        0.0639
     19 H           6.5434    0.1512   -0.8922 H       1  LIG1        0.0640
     20 C           6.6035    2.9840   -0.0984 C.ar    1  LIG1        0.1518
     21 C           6.6052    4.3410    0.0265 C.ar    1  LIG1       -0.0138
     22 C           7.9813    4.7288    0.1444 C.ar    1  LIG1       -0.0147
     23 C           8.7050    3.5785    0.0695 C.ar    1  LIG1        0.1423
     24 O           7.8715    2.5221   -0.0728 O.2     1  LIG1       -0.4528
     25 H           5.7469    4.9912    0.0162 H       1  LIG1        0.0656
     26 H           8.3710    5.7242    0.2686 H       1  LIG1        0.0656
     27 C          10.1321    3.2848    0.1150 C.ar    1  LIG1        0.0544
     28 C          11.1739    4.1686    0.1125 C.ar    1  LIG1       -0.0440
     29 C          12.4453    3.5143    0.1756 C.ar    1  LIG1       -0.0540
     30 C          12.3296    2.1596    0.2194 C.ar    1  LIG1       -0.0236
     31 S          10.6863    1.6506    0.1903 S.2     1  LIG1       -0.0936
     32 H          13.1186    1.4265    0.2648 H       1  LIG1        0.0693
     33 H          11.0438    5.2396    0.0591 H       1  LIG1        0.0630
     34 H          13.3905    4.0360    0.1822 H       1  LIG1        0.0623
@<TRIPOS>BOND
     1    19    14    1
     2    18    13    1
     3    11     7    1
     4    14    13   ar
     5    14    15   ar
     6    13    12   ar
     7     8     6    1
     8     7     6   ar
     9     7     4   ar
    10    15    20    1
    11    15    16   ar
    12    12     4    1
    13    12    16   ar
    14     6     3   ar
    15    20    24   ar
    16    20    21   ar
    17    24    23   ar
    18     4     2   ar
    19    16    17    1
    20    25    21    1
    21    21    22   ar
    22    33    28    1
    23    23    27    1
    24    23    22   ar
    25    28    27   ar
    26    28    29   ar
    27    27    31   ar
    28    22    26    1
    29    29    34    1
    30    29    30   ar
    31    31    30   ar
    32    30    32    1
    33     3     9    1
    34     3     1   ar
    35     2     1   ar
    36     2     5    1
    37     1    10    1
