@<TRIPOS>MOLECULE
mol_data/opt/m06hf/geoms/mol2/413512-.out
 34 37 0 0 0
SMALL
GASTEIGER

@<TRIPOS>ATOM
      1 C          -0.1102    0.2212    0.7262 C.ar    1  LIG1       -0.0611
      2 C           1.2790    0.2273    0.7783 C.ar    1  LIG1       -0.0526
      3 C          -0.7849    1.0987   -0.1200 C.ar    1  LIG1       -0.0617
      4 C           2.0116    1.1015   -0.0298 C.ar    1  LIG1       -0.0017
      5 H           1.8066   -0.4304    1.4572 H       1  LIG1        0.0624
      6 C          -0.0611    1.9755   -0.9234 C.ar    1  LIG1       -0.0611
      7 C           1.3296    1.9718   -0.8854 C.ar    1  LIG1       -0.0526
      8 H          -0.5779    2.6525   -1.5913 H       1  LIG1        0.0618
      9 H          -1.8665    1.0968   -0.1543 H       1  LIG1        0.0618
     10 H          -0.6670   -0.4604    1.3560 H       1  LIG1        0.0618
     11 H           1.8879    2.6238   -1.5465 H       1  LIG1        0.0624
     12 C           3.4869    1.0898    0.0206 C.ar    1  LIG1        0.0469
     13 C           4.3754    0.0437    0.1744 C.ar    1  LIG1       -0.0358
     14 C           5.6856    0.5854    0.1254 C.ar    1  LIG1       -0.0353
     15 C           5.5587    1.9469   -0.0599 C.ar    1  LIG1        0.0536
     16 N           4.2224    2.2320   -0.1208 N.ar    1  LIG1       -0.3537
     17 H           3.8353    3.1562   -0.2387 H       1  LIG1        0.1659
     18 H           4.1028   -0.9930    0.2817 H       1  LIG1        0.0639
     19 H           6.6196    0.0599    0.2328 H       1  LIG1        0.0639
     20 C           6.5850    2.9825   -0.1808 C.ar    1  LIG1        0.0362
     21 C           7.7818    2.8958   -0.8286 C.ar    1  LIG1       -0.0448
     22 C           8.5557    4.0954   -0.7321 C.ar    1  LIG1       -0.0433
     23 C           7.9227    5.0727   -0.0222 C.ar    1  LIG1        0.0550
     24 S           6.3885    4.5342    0.5714 S.2     1  LIG1       -0.0837
     25 H           8.0844    2.0148   -1.3747 H       1  LIG1        0.0630
     26 H           9.5276    4.2400   -1.1793 H       1  LIG1        0.0630
     27 C           8.4105    6.4203    0.2492 C.ar    1  LIG1        0.1413
     28 C           7.9151    7.4731    0.9544 C.ar    1  LIG1       -0.0154
     29 C           8.8898    8.5228    0.8335 C.ar    1  LIG1       -0.0233
     30 C           9.8870    8.0165    0.0695 C.ar    1  LIG1        0.0926
     31 O           9.6059    6.7459   -0.2889 O.2     1  LIG1       -0.4624
     32 H          10.8176    8.4174   -0.2899 H       1  LIG1        0.1029
     33 H           6.9827    7.5015    1.4925 H       1  LIG1        0.0655
     34 H           8.8439    9.5099    1.2598 H       1  LIG1        0.0649
@<TRIPOS>BOND
     1     8     6    1
     2    11     7    1
     3    25    21    1
     4    26    22    1
     5     6     7   ar
     6     6     3   ar
     7     7     4   ar
     8    21    22   ar
     9    21    20   ar
    10    22    23   ar
    11    32    30    1
    12    31    30   ar
    13    31    27   ar
    14    17    16    1
    15    20    15    1
    16    20    24   ar
    17     9     3    1
    18    16    15   ar
    19    16    12   ar
    20     3     1   ar
    21    15    14   ar
    22     4    12    1
    23     4     2   ar
    24    23    27    1
    25    23    24   ar
    26    12    13   ar
    27    30    29   ar
    28    14    13   ar
    29    14    19    1
    30    13    18    1
    31    27    28   ar
    32     1     2   ar
    33     1    10    1
    34     2     5    1
    35    29    28   ar
    36    29    34    1
    37    28    33    1
