@<TRIPOS>MOLECULE
mol_data/opt/m06hf/geoms/mol2/4135.out
 27 29 0 0 0
SMALL
GASTEIGER

@<TRIPOS>ATOM
      1 C          -0.0652    0.1994    0.5517 C.ar    1  LIG1       -0.0611
      2 C           1.3239    0.1464    0.5493 C.ar    1  LIG1       -0.0526
      3 C          -0.7273    1.2821   -0.0236 C.ar    1  LIG1       -0.0617
      4 C           2.0686    1.1696   -0.0444 C.ar    1  LIG1       -0.0017
      5 H           1.8436   -0.6763    1.0233 H       1  LIG1        0.0624
      6 C           0.0086    2.3054   -0.6147 C.ar    1  LIG1       -0.0611
      7 C           1.3983    2.2464   -0.6331 C.ar    1  LIG1       -0.0526
      8 H          -0.4992    3.1443   -1.0725 H       1  LIG1        0.0618
      9 H          -1.8082    1.3264   -0.0131 H       1  LIG1        0.0618
     10 H          -0.6316   -0.5977    1.0155 H       1  LIG1        0.0618
     11 H           1.9639    3.0236   -1.1332 H       1  LIG1        0.0624
     12 C           3.5434    1.1036   -0.0447 C.ar    1  LIG1        0.0469
     13 C           4.4002    0.0284   -0.1715 C.ar    1  LIG1       -0.0358
     14 C           5.7262    0.5301   -0.1184 C.ar    1  LIG1       -0.0353
     15 C           5.6407    1.8982    0.0370 C.ar    1  LIG1        0.0536
     16 N           4.3135    2.2254    0.0783 N.ar    1  LIG1       -0.3537
     17 H           3.9552    3.1596    0.2084 H       1  LIG1        0.1659
     18 H           4.0966   -0.9954   -0.3139 H       1  LIG1        0.0639
     19 H           6.6442   -0.0314   -0.1667 H       1  LIG1        0.0639
     20 C           6.6934    2.9099    0.1516 C.ar    1  LIG1        0.0355
     21 C           7.8757    2.9615   -0.5259 C.ar    1  LIG1       -0.0455
     22 C           8.6795    4.0897   -0.1546 C.ar    1  LIG1       -0.0541
     23 C           8.0819    4.8702    0.7840 C.ar    1  LIG1       -0.0237
     24 S           6.5537    4.2340    1.2632 S.2     1  LIG1       -0.0952
     25 H           8.4519    5.7793    1.2291 H       1  LIG1        0.0693
     26 H           8.1468    2.2353   -1.2780 H       1  LIG1        0.0629
     27 H           9.6458    4.3086   -0.5835 H       1  LIG1        0.0623
@<TRIPOS>BOND
     1    26    21    1
     2    11     7    1
     3     8     6    1
     4     7     6   ar
     5     7     4   ar
     6     6     3   ar
     7    27    22    1
     8    21    22   ar
     9    21    20   ar
    10    18    13    1
    11    13    14   ar
    12    13    12   ar
    13    19    14    1
    14    22    23   ar
    15    14    15   ar
    16    12     4    1
    17    12    16   ar
    18     4     2   ar
    19     3     9    1
    20     3     1   ar
    21    15    16   ar
    22    15    20    1
    23    16    17    1
    24    20    24   ar
    25     2     1   ar
    26     2     5    1
    27     1    10    1
    28    23    25    1
    29    23    24   ar
