@<TRIPOS>MOLECULE
mol_data/opt/m06hf/geoms/mol2/4135-.out
 27 29 0 0 0
SMALL
GASTEIGER

@<TRIPOS>ATOM
      1 C          -0.0139    0.0514    0.5396 C.ar    1  LIG1       -0.0611
      2 C           1.3698    0.0475    0.4053 C.ar    1  LIG1       -0.0526
      3 C          -0.7451    1.1986    0.2377 C.ar    1  LIG1       -0.0617
      4 C           2.0388    1.1875   -0.0500 C.ar    1  LIG1       -0.0017
      5 H           1.9449   -0.8304    0.6702 H       1  LIG1        0.0624
      6 C          -0.0841    2.3389   -0.2113 C.ar    1  LIG1       -0.0611
      7 C           1.2988    2.3321   -0.3627 C.ar    1  LIG1       -0.0526
      8 H          -0.6465    3.2301   -0.4584 H       1  LIG1        0.0618
      9 H          -1.8211    1.2034    0.3502 H       1  LIG1        0.0618
     10 H          -0.5209   -0.8370    0.8930 H       1  LIG1        0.0618
     11 H           1.8042    3.2069   -0.7541 H       1  LIG1        0.0624
     12 C           3.5063    1.1709   -0.2004 C.ar    1  LIG1        0.0469
     13 C           4.3633    0.1599   -0.5861 C.ar    1  LIG1       -0.0358
     14 C           5.6813    0.6859   -0.5664 C.ar    1  LIG1       -0.0353
     15 C           5.5898    2.0032   -0.1668 C.ar    1  LIG1        0.0536
     16 N           4.2675    2.2804    0.0423 N.ar    1  LIG1       -0.3537
     17 H           3.9284    3.1262    0.4743 H       1  LIG1        0.1659
     18 H           4.0626   -0.8284   -0.8922 H       1  LIG1        0.0639
     19 H           6.5913    0.1816   -0.8461 H       1  LIG1        0.0639
     20 C           6.6163    3.0266    0.0356 C.ar    1  LIG1        0.0355
     21 C           6.5288    4.3678   -0.2085 C.ar    1  LIG1       -0.0455
     22 C           7.7339    5.0695    0.1229 C.ar    1  LIG1       -0.0541
     23 C           8.7012    4.2406    0.5999 C.ar    1  LIG1       -0.0237
     24 S           8.1626    2.6075    0.6778 S.2     1  LIG1       -0.0952
     25 H           9.7013    4.4956    0.9099 H       1  LIG1        0.0693
     26 H           5.6548    4.8323   -0.6427 H       1  LIG1        0.0629
     27 H           7.8680    6.1330   -0.0064 H       1  LIG1        0.0623
@<TRIPOS>BOND
     1    18    13    1
     2    19    14    1
     3    11     7    1
     4    26    21    1
     5    13    14   ar
     6    13    12   ar
     7    14    15   ar
     8     8     6    1
     9     7     6   ar
    10     7     4   ar
    11     6     3   ar
    12    21    20   ar
    13    21    22   ar
    14    12     4    1
    15    12    16   ar
    16    15    20    1
    17    15    16   ar
    18     4     2   ar
    19    27    22    1
    20    20    24   ar
    21    16    17    1
    22    22    23   ar
    23     3     9    1
    24     3     1   ar
    25     2     1   ar
    26     2     5    1
    27     1    10    1
    28    23    24   ar
    29    23    25    1
