@<TRIPOS>MOLECULE
mol_data/opt/m06hf/geoms/mol2/4138-.out
 26 28 0 0 0
SMALL
GASTEIGER

@<TRIPOS>ATOM
      1 C          -0.0059    0.1418    0.5398 C.ar    1  LIG1       -0.0611
      2 C           1.3816    0.1083    0.4587 C.ar    1  LIG1       -0.0526
      3 C          -0.7061    1.2705    0.1193 C.ar    1  LIG1       -0.0617
      4 C           2.0818    1.2019   -0.0573 C.ar    1  LIG1       -0.0017
      5 H           1.9314   -0.7544    0.8122 H       1  LIG1        0.0624
      6 C          -0.0126    2.3642   -0.3920 C.ar    1  LIG1       -0.0611
      7 C           1.3747    2.3285   -0.4871 C.ar    1  LIG1       -0.0526
      8 H          -0.5511    3.2398   -0.7300 H       1  LIG1        0.0618
      9 H          -1.7854    1.2970    0.1891 H       1  LIG1        0.0618
     10 H          -0.5406   -0.7085    0.9423 H       1  LIG1        0.0618
     11 H           1.9078    3.1646   -0.9239 H       1  LIG1        0.0624
     12 C           3.5545    1.1558   -0.1512 C.ar    1  LIG1        0.0470
     13 C           4.4081    0.0981   -0.4346 C.ar    1  LIG1       -0.0357
     14 C           5.7282    0.5994   -0.4178 C.ar    1  LIG1       -0.0326
     15 C           5.6376    1.9463   -0.1222 C.ar    1  LIG1        0.0879
     16 N           4.3190    2.2631    0.0296 N.ar    1  LIG1       -0.3516
     17 H           3.9964    3.1767    0.3180 H       1  LIG1        0.1660
     18 H           4.0971   -0.9073   -0.6634 H       1  LIG1        0.0639
     19 H           6.6449    0.0665   -0.6051 H       1  LIG1        0.0640
     20 C           6.6594    2.9653    0.0399 C.ar    1  LIG1        0.2193
     21 N           6.2495    4.1995    0.3499 N.ar    1  LIG1       -0.1243
     22 C           8.4209    4.7753    0.3336 C.ar    1  LIG1        0.1605
     23 N           7.9443    2.6202   -0.1270 N.ar    1  LIG1       -0.1243
     24 N           7.1505    5.1243    0.5011 N.ar    1  LIG1       -0.1338
     25 N           8.8377    3.5464    0.0236 N.ar    1  LIG1       -0.1338
     26 H           9.1721    5.5401    0.4576 H       1  LIG1        0.1085
@<TRIPOS>BOND
     1    11     7    1
     2     8     6    1
     3    18    13    1
     4    19    14    1
     5     7     6   ar
     6     7     4   ar
     7    13    14   ar
     8    13    12   ar
     9    14    15   ar
    10     6     3   ar
    11    12     4    1
    12    12    16   ar
    13    23    25   ar
    14    23    20   ar
    15    15    16   ar
    16    15    20    1
    17     4     2   ar
    18    25    22   ar
    19    16    17    1
    20    20    21   ar
    21     3     9    1
    22     3     1   ar
    23    22    26    1
    24    22    24   ar
    25    21    24   ar
    26     2     1   ar
    27     2     5    1
    28     1    10    1
