@<TRIPOS>MOLECULE
mol_data/opt/m06hf/geoms/mol2/4138-8-.out
 32 35 0 0 0
SMALL
GASTEIGER

@<TRIPOS>ATOM
      1 C           0.0065    0.1423    0.6948 C.ar    1  LIG1       -0.0611
      2 C           1.3896    0.1185    0.5584 C.ar    1  LIG1       -0.0526
      3 C          -0.7222    1.2431    0.2486 C.ar    1  LIG1       -0.0617
      4 C           2.0556    1.1932   -0.0367 C.ar    1  LIG1       -0.0017
      5 H           1.9642   -0.7200    0.9301 H       1  LIG1        0.0624
      6 C          -0.0623    2.3171   -0.3431 C.ar    1  LIG1       -0.0611
      7 C           1.3204    2.2912   -0.4924 C.ar    1  LIG1       -0.0526
      8 H          -0.6249    3.1690   -0.7014 H       1  LIG1        0.0618
      9 H          -1.7982    1.2616    0.3597 H       1  LIG1        0.0618
     10 H          -0.5019   -0.6927    1.1581 H       1  LIG1        0.0618
     11 H           1.8265    3.1104   -0.9889 H       1  LIG1        0.0624
     12 C           3.5245    1.1537   -0.1813 C.ar    1  LIG1        0.0470
     13 C           4.3722    0.0859   -0.4531 C.ar    1  LIG1       -0.0357
     14 C           5.6891    0.5874   -0.4926 C.ar    1  LIG1       -0.0326
     15 C           5.6054    1.9457   -0.2420 C.ar    1  LIG1        0.0879
     16 N           4.2898    2.2670   -0.0621 N.ar    1  LIG1       -0.3516
     17 H           3.9714    3.1908    0.1970 H       1  LIG1        0.1660
     18 H           4.0553   -0.9271   -0.6356 H       1  LIG1        0.0639
     19 H           6.6011    0.0493   -0.6873 H       1  LIG1        0.0640
     20 C           6.6335    2.9591   -0.1502 C.ar    1  LIG1        0.2194
     21 N           6.2452    4.2157    0.1025 N.ar    1  LIG1       -0.1236
     22 C           8.4208    4.7560    0.0205 C.ar    1  LIG1        0.2435
     23 N           7.9141    2.5902   -0.3212 N.ar    1  LIG1       -0.1236
     24 N           7.1582    5.1332    0.1899 N.ar    1  LIG1       -0.1218
     25 N           8.8197    3.5077   -0.2338 N.ar    1  LIG1       -0.1218
     26 C           9.4762    5.8033    0.1214 C.ar    1  LIG1        0.2434
     27 N           9.1500    7.0394   -0.2491 N.ar    1  LIG1       -0.1224
     28 C          11.2689    7.5753    0.2852 C.ar    1  LIG1        0.1605
     29 N          10.6703    5.4255    0.5736 N.ar    1  LIG1       -0.1224
     30 N          10.0732    7.9518   -0.1609 N.ar    1  LIG1       -0.1338
     31 N          11.5931    6.3386    0.6538 N.ar    1  LIG1       -0.1338
     32 H          12.0354    8.3331    0.3549 H       1  LIG1        0.1085
@<TRIPOS>BOND
     1    11     7    1
     2     8     6    1
     3    19    14    1
     4    18    13    1
     5    14    13   ar
     6    14    15   ar
     7     7     6   ar
     8     7     4   ar
     9    13    12   ar
    10     6     3   ar
    11    23    25   ar
    12    23    20   ar
    13    27    30   ar
    14    27    26   ar
    15    15    20    1
    16    15    16   ar
    17    25    22   ar
    18    12    16   ar
    19    12     4    1
    20    30    28   ar
    21    20    21   ar
    22    16    17    1
    23     4     2   ar
    24    22    26    1
    25    22    24   ar
    26    21    24   ar
    27    26    29   ar
    28     3     9    1
    29     3     1   ar
    30    28    32    1
    31    28    31   ar
    32     2     1   ar
    33     2     5    1
    34    29    31   ar
    35     1    10    1
