@<TRIPOS>MOLECULE
mol_data/opt/m06hf/geoms/mol2/44-.out
 22 23 0 0 0
SMALL
GASTEIGER

@<TRIPOS>ATOM
      1 C          -0.0426    0.1634    0.4784 C.ar    1  LIG1       -0.0612
      2 C           1.3483    0.1206    0.4744 C.ar    1  LIG1       -0.0540
      3 C          -0.7084    1.2931    0.0099 C.ar    1  LIG1       -0.0617
      4 C           2.0898    1.2064    0.0013 C.ar    1  LIG1       -0.0179
      5 H           1.8671   -0.7487    0.8596 H       1  LIG1        0.0624
      6 C           0.0233    2.3795   -0.4629 C.ar    1  LIG1       -0.0612
      7 C           1.4141    2.3361   -0.4674 C.ar    1  LIG1       -0.0540
      8 H          -0.4877    3.2579   -0.8353 H       1  LIG1        0.0618
      9 H          -1.7901    1.3267    0.0132 H       1  LIG1        0.0618
     10 H          -0.6047   -0.6817    0.8541 H       1  LIG1        0.0618
     11 H           1.9834    3.1716   -0.8560 H       1  LIG1        0.0624
     12 C           4.3269    2.2460    0.4648 C.ar    1  LIG1       -0.0540
     13 C           5.7177    2.2031    0.4603 C.ar    1  LIG1       -0.0612
     14 C           3.5825    1.1601   -0.0033 C.ar    1  LIG1       -0.0179
     15 C           6.3806    1.0733   -0.0119 C.ar    1  LIG1       -0.0617
     16 H           6.2822    3.0484    0.8322 H       1  LIG1        0.0618
     17 C           4.2553    0.0301   -0.4757 C.ar    1  LIG1       -0.0540
     18 C           5.6461   -0.0133   -0.4798 C.ar    1  LIG1       -0.0612
     19 H           3.6836   -0.8055   -0.8605 H       1  LIG1        0.0624
     20 H           7.4624    1.0397   -0.0152 H       1  LIG1        0.0618
     21 H           3.8105    3.1154    0.8529 H       1  LIG1        0.0624
     22 H           6.1548   -0.8918   -0.8551 H       1  LIG1        0.0618
@<TRIPOS>BOND
     1    19    17    1
     2    11     7    1
     3    22    18    1
     4     8     6    1
     5    18    17   ar
     6    18    15   ar
     7    17    14   ar
     8     7     6   ar
     9     7     4   ar
    10     6     3   ar
    11    20    15    1
    12    15    13   ar
    13    14     4    1
    14    14    12   ar
    15     4     2   ar
    16     3     9    1
    17     3     1   ar
    18    13    12   ar
    19    13    16    1
    20    12    21    1
    21     2     1   ar
    22     2     5    1
    23     1    10    1
