@<TRIPOS>MOLECULE
mol_data/opt/m06hf/geoms/mol2/44-12.out
 29 31 0 0 0
SMALL
GASTEIGER

@<TRIPOS>ATOM
      1 C          -0.1146    0.1842    0.5226 C.ar    1  LIG1       -0.0612
      2 C           1.2760    0.1393    0.5238 C.ar    1  LIG1       -0.0540
      3 C          -0.7780    1.2963    0.0105 C.ar    1  LIG1       -0.0617
      4 C           2.0212    1.2039    0.0093 C.ar    1  LIG1       -0.0179
      5 H           1.7907   -0.7144    0.9472 H       1  LIG1        0.0624
      6 C          -0.0431    2.3622   -0.5021 C.ar    1  LIG1       -0.0612
      7 C           1.3474    2.3155   -0.5044 C.ar    1  LIG1       -0.0540
      8 H          -0.5515    3.2267   -0.9087 H       1  LIG1        0.0618
      9 H          -1.8596    1.3321    0.0110 H       1  LIG1        0.0618
     10 H          -0.6787   -0.6448    0.9301 H       1  LIG1        0.0618
     11 H           1.9173    3.1334   -0.9281 H       1  LIG1        0.0624
     12 C           4.2636    2.2785    0.3663 C.ar    1  LIG1       -0.0534
     13 C           5.6523    2.2387    0.3601 C.ar    1  LIG1       -0.0505
     14 C           3.5125    1.1561    0.0071 C.ar    1  LIG1       -0.0178
     15 C           6.3207    1.0677   -0.0054 C.ar    1  LIG1        0.0173
     16 H           6.2261    3.1100    0.6455 H       1  LIG1        0.0625
     17 C           4.1885   -0.0127   -0.3578 C.ar    1  LIG1       -0.0534
     18 C           5.5756   -0.0592   -0.3635 C.ar    1  LIG1       -0.0505
     19 H           3.6208   -0.8826   -0.6636 H       1  LIG1        0.0624
     20 H           3.7544    3.1826    0.6755 H       1  LIG1        0.0624
     21 H           6.0791   -0.9704   -0.6586 H       1  LIG1        0.0625
     22 C           7.7916    1.0287   -0.0125 C.ar    1  LIG1        0.1348
     23 C           8.7036    0.0575   -0.2923 C.ar    1  LIG1       -0.0159
     24 C           9.9975    0.6582   -0.1164 C.ar    1  LIG1       -0.0233
     25 C           9.7619    1.9390    0.2548 C.ar    1  LIG1        0.0926
     26 O           8.4357    2.1709    0.3200 O.2     1  LIG1       -0.4629
     27 H          10.4040    2.7675    0.4963 H       1  LIG1        0.1029
     28 H           8.4951   -0.9572   -0.5846 H       1  LIG1        0.0655
     29 H          10.9592    0.1935   -0.2496 H       1  LIG1        0.0649
@<TRIPOS>BOND
     1    11     7    1
     2     8     6    1
     3    19    17    1
     4    21    18    1
     5    28    23    1
     6     7     6   ar
     7     7     4   ar
     8     6     3   ar
     9    18    17   ar
    10    18    15   ar
    11    17    14   ar
    12    23    24   ar
    13    23    22   ar
    14    29    24    1
    15    24    25   ar
    16    22    15    1
    17    22    26   ar
    18    15    13   ar
    19    14     4    1
    20    14    12   ar
    21     4     2   ar
    22     3     9    1
    23     3     1   ar
    24    25    26   ar
    25    25    27    1
    26    13    12   ar
    27    13    16    1
    28    12    20    1
    29     1     2   ar
    30     1    10    1
    31     2     5    1
