@<TRIPOS>MOLECULE
mol_data/opt/m06hf/geoms/mol2/44-124.out
 39 42 0 0 0
SMALL
GASTEIGER

@<TRIPOS>ATOM
      1 C          -0.1802    0.2552    0.8151 C.ar    1  LIG1       -0.0612
      2 C           1.2106    0.2364    0.7846 C.ar    1  LIG1       -0.0540
      3 C          -0.8838    1.1846    0.0530 C.ar    1  LIG1       -0.0617
      4 C           1.9152    1.1450   -0.0098 C.ar    1  LIG1       -0.0179
      5 H           1.7580   -0.4691    1.3973 H       1  LIG1        0.0624
      6 C          -0.1893    2.0941   -0.7403 C.ar    1  LIG1       -0.0612
      7 C           1.2014    2.0736   -0.7727 C.ar    1  LIG1       -0.0540
      8 H          -0.7300    2.8136   -1.3413 H       1  LIG1        0.0618
      9 H          -1.9658    1.2001    0.0775 H       1  LIG1        0.0618
     10 H          -0.7136   -0.4492    1.4401 H       1  LIG1        0.0618
     11 H           1.7407    2.7631   -1.4106 H       1  LIG1        0.0624
     12 C           4.1393    2.3110    0.0146 C.ar    1  LIG1       -0.0534
     13 C           5.5278    2.2945   -0.0247 C.ar    1  LIG1       -0.0505
     14 C           3.4060    1.1237   -0.0459 C.ar    1  LIG1       -0.0178
     15 C           6.2137    1.0812   -0.1222 C.ar    1  LIG1        0.0173
     16 H           6.0875    3.2190    0.0253 H       1  LIG1        0.0625
     17 C           4.0994   -0.0874   -0.1428 C.ar    1  LIG1       -0.0534
     18 C           5.4860   -0.1105   -0.1783 C.ar    1  LIG1       -0.0505
     19 H           3.5434   -1.0142   -0.2128 H       1  LIG1        0.0624
     20 H           3.6157    3.2538    0.1153 H       1  LIG1        0.0624
     21 H           6.0039   -1.0578   -0.2558 H       1  LIG1        0.0625
     22 C           7.6821    1.0616   -0.1674 C.ar    1  LIG1        0.1357
     23 C           8.6017    0.0700   -0.3329 C.ar    1  LIG1       -0.0153
     24 C           9.8862    0.7021   -0.2912 C.ar    1  LIG1       -0.0153
     25 C           9.6526    2.0312   -0.1072 C.ar    1  LIG1        0.1357
     26 O           8.3195    2.2466   -0.0322 O.2     1  LIG1       -0.4548
     27 H           8.4008   -0.9785   -0.4697 H       1  LIG1        0.0656
     28 H          10.8470    0.2233   -0.3701 H       1  LIG1        0.0656
     29 C          11.8875    3.1094   -0.2904 C.ar    1  LIG1       -0.0511
     30 C          12.7175    4.2137   -0.1412 C.ar    1  LIG1       -0.0611
     31 C          10.5310    3.2023    0.0328 C.ar    1  LIG1        0.0173
     32 C          12.2014    5.4221    0.3225 C.ar    1  LIG1       -0.0617
     33 H          13.7664    4.1328   -0.3943 H       1  LIG1        0.0618
     34 C          10.0144    4.4152    0.4949 C.ar    1  LIG1       -0.0511
     35 C          10.8485    5.5191    0.6366 C.ar    1  LIG1       -0.0611
     36 H           8.9642    4.4836    0.7447 H       1  LIG1        0.0625
     37 H          12.8490    6.2816    0.4351 H       1  LIG1        0.0618
     38 H          12.2886    2.1787   -0.6699 H       1  LIG1        0.0625
     39 H          10.4408    6.4545    0.9967 H       1  LIG1        0.0618
@<TRIPOS>BOND
     1    11     7    1
     2     8     6    1
     3     7     6   ar
     4     7     4   ar
     5     6     3   ar
     6    38    29    1
     7    27    23    1
     8    33    30    1
     9    28    24    1
    10    23    24   ar
    11    23    22   ar
    12    24    25   ar
    13    29    30   ar
    14    29    31   ar
    15    21    18    1
    16    19    17    1
    17    18    17   ar
    18    18    15   ar
    19    22    15    1
    20    22    26   ar
    21    17    14   ar
    22    30    32   ar
    23    15    13   ar
    24    25    26   ar
    25    25    31    1
    26    14     4    1
    27    14    12   ar
    28    13    12   ar
    29    13    16    1
    30     4     2   ar
    31    12    20    1
    32    31    34   ar
    33     3     9    1
    34     3     1   ar
    35    32    37    1
    36    32    35   ar
    37    34    35   ar
    38    34    36    1
    39    35    39    1
    40     2     1   ar
    41     2     5    1
    42     1    10    1
