@<TRIPOS>MOLECULE
mol_data/opt/m06hf/geoms/mol2/44-13.out
 30 32 0 0 0
SMALL
GASTEIGER

@<TRIPOS>ATOM
      1 C          -0.1202    0.3242    0.7462 C.ar    1  LIG1       -0.0612
      2 C           1.2704    0.2816    0.7390 C.ar    1  LIG1       -0.0540
      3 C          -0.7939    1.2961    0.0105 C.ar    1  LIG1       -0.0617
      4 C           2.0046    1.2096   -0.0047 C.ar    1  LIG1       -0.0179
      5 H           1.7954   -0.4595    1.3291 H       1  LIG1        0.0624
      6 C          -0.0696    2.2246   -0.7329 C.ar    1  LIG1       -0.0612
      7 C           1.3210    2.1813   -0.7409 C.ar    1  LIG1       -0.0540
      8 H          -0.5871    2.9776   -1.3130 H       1  LIG1        0.0618
      9 H          -1.8756    1.3294    0.0163 H       1  LIG1        0.0618
     10 H          -0.6769   -0.3961    1.3315 H       1  LIG1        0.0618
     11 H           1.8842    2.8873   -1.3385 H       1  LIG1        0.0624
     12 C           4.2466    2.3306    0.1461 C.ar    1  LIG1       -0.0534
     13 C           5.6360    2.2890    0.1287 C.ar    1  LIG1       -0.0521
     14 C           3.4964    1.1631   -0.0140 C.ar    1  LIG1       -0.0178
     15 C           6.3091    1.0744   -0.0340 C.ar    1  LIG1       -0.0017
     16 H           6.2016    3.2087    0.2183 H       1  LIG1        0.0624
     17 C           4.1714   -0.0491   -0.1864 C.ar    1  LIG1       -0.0534
     18 C           5.5596   -0.0952   -0.1889 C.ar    1  LIG1       -0.0521
     19 H           3.6014   -0.9585   -0.3304 H       1  LIG1        0.0624
     20 H           3.7366    3.2745    0.2934 H       1  LIG1        0.0624
     21 H           6.0746   -1.0403   -0.3016 H       1  LIG1        0.0624
     22 C           7.7836    1.0177   -0.0525 C.ar    1  LIG1        0.0465
     23 C           8.6469    0.2578   -0.8123 C.ar    1  LIG1       -0.0364
     24 C           9.9724    0.6129   -0.4358 C.ar    1  LIG1       -0.0438
     25 C           9.8725    1.5730    0.5418 C.ar    1  LIG1        0.0022
     26 N           8.5471    1.8147    0.7575 N.ar    1  LIG1       -0.3607
     27 H           8.1710    2.4106    1.4774 H       1  LIG1        0.1653
     28 H          10.6321    2.0938    1.0982 H       1  LIG1        0.0807
     29 H           8.3505   -0.4411   -1.5768 H       1  LIG1        0.0639
     30 H          10.8887    0.2176   -0.8404 H       1  LIG1        0.0633
@<TRIPOS>BOND
     1    29    23    1
     2    11     7    1
     3     8     6    1
     4    30    24    1
     5    23    24   ar
     6    23    22   ar
     7     7     6   ar
     8     7     4   ar
     9     6     3   ar
    10    24    25   ar
    11    19    17    1
    12    21    18    1
    13    18    17   ar
    14    18    15   ar
    15    17    14   ar
    16    22    15    1
    17    22    26   ar
    18    15    13   ar
    19    14     4    1
    20    14    12   ar
    21     4     2   ar
    22     3     9    1
    23     3     1   ar
    24    13    12   ar
    25    13    16    1
    26    12    20    1
    27    25    26   ar
    28    25    28    1
    29     2     1   ar
    30     2     5    1
    31     1    10    1
    32    26    27    1
