@<TRIPOS>MOLECULE
mol_data/opt/m06hf/geoms/mol2/44-4.out
 32 34 0 0 0
SMALL
GASTEIGER

@<TRIPOS>ATOM
      1 C          -0.1461    0.3964    0.8275 C.ar    1  LIG1       -0.0612
      2 C           1.2446    0.3535    0.8278 C.ar    1  LIG1       -0.0540
      3 C          -0.8178    1.2935    0.0010 C.ar    1  LIG1       -0.0617
      4 C           1.9808    1.2051   -0.0006 C.ar    1  LIG1       -0.0179
      5 H           1.7676   -0.3258    1.4898 H       1  LIG1        0.0624
      6 C          -0.0918    2.1465   -0.8263 C.ar    1  LIG1       -0.0612
      7 C           1.2989    2.1015   -0.8281 C.ar    1  LIG1       -0.0540
      8 H          -0.6079    2.8410   -1.4764 H       1  LIG1        0.0618
      9 H          -1.8994    1.3277    0.0017 H       1  LIG1        0.0618
     10 H          -0.7043   -0.2641    1.4783 H       1  LIG1        0.0618
     11 H           1.8629    2.7465   -1.4907 H       1  LIG1        0.0624
     12 C           4.2232    2.3368   -0.0007 C.ar    1  LIG1       -0.0535
     13 C           5.6125    2.2930   -0.0044 C.ar    1  LIG1       -0.0535
     14 C           3.4727    1.1580   -0.0014 C.ar    1  LIG1       -0.0178
     15 C           6.2871    1.0691   -0.0030 C.ar    1  LIG1       -0.0178
     16 H           6.1812    3.2143   -0.0238 H       1  LIG1        0.0624
     17 C           4.1473   -0.0659   -0.0030 C.ar    1  LIG1       -0.0535
     18 C           5.5366   -0.1098   -0.0009 C.ar    1  LIG1       -0.0535
     19 H           3.5786   -0.9873   -0.0214 H       1  LIG1        0.0624
     20 H           3.7138    3.2923    0.0183 H       1  LIG1        0.0624
     21 H           6.0460   -1.0652    0.0180 H       1  LIG1        0.0624
     22 C           8.4600    0.1252   -0.8318 C.ar    1  LIG1       -0.0540
     23 C           9.8506    0.0802   -0.8316 C.ar    1  LIG1       -0.0612
     24 C           7.7790    1.0219   -0.0039 C.ar    1  LIG1       -0.0179
     25 C          10.5776    0.9335   -0.0055 C.ar    1  LIG1       -0.0617
     26 H          10.3659   -0.6146   -1.4820 H       1  LIG1        0.0618
     27 C           8.5162    1.8739    0.8232 C.ar    1  LIG1       -0.0540
     28 C           9.9068    1.8310    0.8214 C.ar    1  LIG1       -0.0612
     29 H           7.9939    2.5535    1.4855 H       1  LIG1        0.0624
     30 H          11.6592    0.8994   -0.0061 H       1  LIG1        0.0618
     31 H           7.8951   -0.5201   -1.4935 H       1  LIG1        0.0624
     32 H          10.4658    2.4918    1.4712 H       1  LIG1        0.0618
@<TRIPOS>BOND
     1    31    22    1
     2    11     7    1
     3    26    23    1
     4     8     6    1
     5    22    23   ar
     6    22    24   ar
     7    23    25   ar
     8     7     6   ar
     9     7     4   ar
    10     6     3   ar
    11    16    13    1
    12    19    17    1
    13    30    25    1
    14    25    28   ar
    15    13    15   ar
    16    13    12   ar
    17    24    15    1
    18    24    27   ar
    19    15    18   ar
    20    17    14   ar
    21    17    18   ar
    22    14    12   ar
    23    14     4    1
    24    18    21    1
    25    12    20    1
    26     4     2   ar
    27     3     9    1
    28     3     1   ar
    29    28    27   ar
    30    28    32    1
    31    27    29    1
    32     1     2   ar
    33     1    10    1
    34     2     5    1
