@<TRIPOS>MOLECULE
mol_data/opt/m06hf/geoms/mol2/44-4-12-.out
 39 42 0 0 0
SMALL
GASTEIGER

@<TRIPOS>ATOM
      1 C          -0.2225    0.5042    0.8850 C.ar    1  LIG1       -0.0612
      2 C           1.1673    0.4418    0.8803 C.ar    1  LIG1       -0.0540
      3 C          -0.8877    1.3538    0.0047 C.ar    1  LIG1       -0.0617
      4 C           1.9102    1.2251   -0.0076 C.ar    1  LIG1       -0.0179
      5 H           1.6842   -0.1982    1.5848 H       1  LIG1        0.0624
      6 C          -0.1551    2.1392   -0.8818 C.ar    1  LIG1       -0.0612
      7 C           1.2346    2.0735   -0.8893 C.ar    1  LIG1       -0.0540
      8 H          -0.6654    2.7956   -1.5747 H       1  LIG1        0.0618
      9 H          -1.9687    1.4034    0.0095 H       1  LIG1        0.0618
     10 H          -0.7849   -0.1028    1.5826 H       1  LIG1        0.0618
     11 H           1.8020    2.6636   -1.5984 H       1  LIG1        0.0624
     12 C           4.1685    2.3213   -0.1003 C.ar    1  LIG1       -0.0535
     13 C           5.5568    2.2576   -0.1060 C.ar    1  LIG1       -0.0535
     14 C           3.4011    1.1567   -0.0129 C.ar    1  LIG1       -0.0178
     15 C           6.2152    1.0279   -0.0164 C.ar    1  LIG1       -0.0178
     16 H           6.1368    3.1675   -0.1960 H       1  LIG1        0.0624
     17 C           4.0593   -0.0732    0.0711 C.ar    1  LIG1       -0.0535
     18 C           5.4477   -0.1367    0.0732 C.ar    1  LIG1       -0.0535
     19 H           3.4783   -0.9856    0.1222 H       1  LIG1        0.0624
     20 H           3.6734    3.2831   -0.1497 H       1  LIG1        0.0624
     21 H           5.9422   -1.0959    0.1620 H       1  LIG1        0.0624
     22 C           8.4577    1.8858    0.7187 C.ar    1  LIG1       -0.0534
     23 C           9.8440    1.8266    0.7261 C.ar    1  LIG1       -0.0505
     24 C           7.7049    0.9611   -0.0132 C.ar    1  LIG1       -0.0178
     25 C          10.5126    0.8384   -0.0014 C.ar    1  LIG1        0.0173
     26 H          10.4072    2.5397    1.3141 H       1  LIG1        0.0625
     27 C           8.3799   -0.0263   -0.7360 C.ar    1  LIG1       -0.0534
     28 C           9.7675   -0.0911   -0.7314 C.ar    1  LIG1       -0.0505
     29 H           7.8129   -0.7343   -1.3277 H       1  LIG1        0.0624
     30 H           7.9496    2.6378    1.3095 H       1  LIG1        0.0624
     31 H          10.2815   -0.8543   -1.3002 H       1  LIG1        0.0625
     32 C          11.9824    0.7733   -0.0016 C.ar    1  LIG1        0.1348
     33 C          12.9569    1.5930    0.4802 C.ar    1  LIG1       -0.0159
     34 C          14.2078    0.9643    0.1556 C.ar    1  LIG1       -0.0233
     35 C          13.8877   -0.1788   -0.4966 C.ar    1  LIG1        0.0926
     36 O          12.5489   -0.3015   -0.5960 O.2     1  LIG1       -0.4629
     37 H          14.4729   -0.9703   -0.9293 H       1  LIG1        0.1029
     38 H          12.8155    2.5293    0.9919 H       1  LIG1        0.0655
     39 H          15.1981    1.3220    0.3785 H       1  LIG1        0.0649
@<TRIPOS>BOND
     1    11     7    1
     2     8     6    1
     3    29    27    1
     4    31    28    1
     5    37    35    1
     6     7     6   ar
     7     7     4   ar
     8     6     3   ar
     9    27    28   ar
    10    27    24   ar
    11    28    25   ar
    12    36    35   ar
    13    36    32   ar
    14    35    34   ar
    15    16    13    1
    16    20    12    1
    17    13    12   ar
    18    13    15   ar
    19    12    14   ar
    20    15    24    1
    21    15    18   ar
    22    24    22   ar
    23    14     4    1
    24    14    17   ar
    25     4     2   ar
    26    32    25    1
    27    32    33   ar
    28    25    23   ar
    29     3     9    1
    30     3     1   ar
    31    17    18   ar
    32    17    19    1
    33    18    21    1
    34    34    39    1
    35    34    33   ar
    36    33    38    1
    37    22    23   ar
    38    22    30    1
    39    23    26    1
    40     2     1   ar
    41     2     5    1
    42     1    10    1
