@<TRIPOS>MOLECULE
mol_data/opt/m06hf/geoms/mol2/44-5-12-.out
 36 39 0 0 0
SMALL
GASTEIGER

@<TRIPOS>ATOM
      1 C          -0.2525    0.5530    0.6967 C.ar    1  LIG1       -0.0612
      2 C           1.1341    0.4876    0.7904 C.ar    1  LIG1       -0.0540
      3 C          -0.8515    1.3859   -0.2448 C.ar    1  LIG1       -0.0617
      4 C           1.9392    1.2525   -0.0585 C.ar    1  LIG1       -0.0179
      5 H           1.5987   -0.1411    1.5402 H       1  LIG1        0.0624
      6 C          -0.0563    2.1535   -1.0923 C.ar    1  LIG1       -0.0612
      7 C           1.3304    2.0863   -1.0003 C.ar    1  LIG1       -0.0540
      8 H          -0.5145    2.7967   -1.8323 H       1  LIG1        0.0618
      9 H          -1.9299    1.4356   -0.3185 H       1  LIG1        0.0618
     10 H          -0.8641   -0.0396    1.3647 H       1  LIG1        0.0618
     11 H           1.9482    2.6620   -1.6786 H       1  LIG1        0.0624
     12 C           4.2051    2.3366   -0.0114 C.ar    1  LIG1       -0.0534
     13 C           5.5902    2.2656    0.0638 C.ar    1  LIG1       -0.0530
     14 C           3.4263    1.1768    0.0367 C.ar    1  LIG1       -0.0178
     15 C           6.2301    1.0307    0.2069 C.ar    1  LIG1       -0.0113
     16 H           6.1853    3.1674   -0.0009 H       1  LIG1        0.0624
     17 C           4.0694   -0.0568    0.1682 C.ar    1  LIG1       -0.0534
     18 C           5.4537   -0.1306    0.2575 C.ar    1  LIG1       -0.0530
     19 H           3.4799   -0.9650    0.1852 H       1  LIG1        0.0624
     20 H           3.7188    3.3003   -0.0988 H       1  LIG1        0.0624
     21 H           5.9359   -1.0928    0.3783 H       1  LIG1        0.0624
     22 C           7.7048    0.9678    0.3070 C.ar    1  LIG1        0.0200
     23 C           8.5390    1.8332    0.9566 C.ar    1  LIG1       -0.0462
     24 C           9.9143    1.4597    0.8583 C.ar    1  LIG1       -0.0434
     25 C          10.0950    0.3176    0.1311 C.ar    1  LIG1        0.0550
     26 S           8.5921   -0.3104   -0.4466 S.2     1  LIG1       -0.0852
     27 H           8.1822    2.6854    1.5164 H       1  LIG1        0.0629
     28 H          10.7251    2.0032    1.3207 H       1  LIG1        0.0630
     29 C          11.3500   -0.3545   -0.1865 C.ar    1  LIG1        0.1413
     30 C          12.6574   -0.0175   -0.0152 C.ar    1  LIG1       -0.0154
     31 C          13.4205   -1.1162   -0.5407 C.ar    1  LIG1       -0.0233
     32 C          12.5143   -2.0182   -0.9891 C.ar    1  LIG1        0.0926
     33 O          11.2607   -1.5657   -0.7788 O.2     1  LIG1       -0.4624
     34 H          12.6008   -2.9815   -1.4591 H       1  LIG1        0.1029
     35 H          13.0317    0.8939    0.4184 H       1  LIG1        0.0655
     36 H          14.4923   -1.2083   -0.5788 H       1  LIG1        0.0649
@<TRIPOS>BOND
     1     8     6    1
     2    11     7    1
     3    34    32    1
     4     6     7   ar
     5     6     3   ar
     6     7     4   ar
     7    32    33   ar
     8    32    31   ar
     9    33    29   ar
    10    36    31    1
    11    31    30   ar
    12    26    25   ar
    13    26    22   ar
    14     9     3    1
    15     3     1   ar
    16    29    30   ar
    17    29    25    1
    18    20    12    1
    19     4    14    1
    20     4     2   ar
    21    30    35    1
    22    12    14   ar
    23    12    13   ar
    24    16    13    1
    25    14    17   ar
    26    13    15   ar
    27    25    24   ar
    28    17    19    1
    29    17    18   ar
    30    15    18   ar
    31    15    22    1
    32    18    21    1
    33    22    23   ar
    34     1     2   ar
    35     1    10    1
    36     2     5    1
    37    24    23   ar
    38    24    28    1
    39    23    27    1
