@<TRIPOS>MOLECULE
mol_data/opt/m06hf/geoms/mol2/44-813.out
 36 39 0 0 0
SMALL
GASTEIGER

@<TRIPOS>ATOM
      1 C          -0.1625    0.2697    0.6241 C.ar    1  LIG1       -0.0612
      2 C           1.2276    0.2130    0.6268 C.ar    1  LIG1       -0.0540
      3 C          -0.8176    1.3266   -0.0029 C.ar    1  LIG1       -0.0617
      4 C           1.9778    1.2139    0.0039 C.ar    1  LIG1       -0.0179
      5 H           1.7386   -0.5968    1.1329 H       1  LIG1        0.0624
      6 C          -0.0764    2.3274   -0.6262 C.ar    1  LIG1       -0.0612
      7 C           1.3137    2.2720   -0.6225 C.ar    1  LIG1       -0.0540
      8 H          -0.5801    3.1473   -1.1213 H       1  LIG1        0.0618
      9 H          -1.8989    1.3703   -0.0056 H       1  LIG1        0.0618
     10 H          -0.7329   -0.5070    1.1165 H       1  LIG1        0.0618
     11 H           1.8905    3.0374   -1.1269 H       1  LIG1        0.0624
     12 C           4.2250    2.2912    0.3061 C.ar    1  LIG1       -0.0534
     13 C           5.6127    2.2408    0.3064 C.ar    1  LIG1       -0.0504
     14 C           3.4689    1.1538    0.0055 C.ar    1  LIG1       -0.0178
     15 C           6.2625    1.0435    0.0014 C.ar    1  LIG1        0.0227
     16 H           6.1988    3.1172    0.5473 H       1  LIG1        0.0625
     17 C           4.1319   -0.0398   -0.2958 C.ar    1  LIG1       -0.0534
     18 C           5.5194   -0.0990   -0.3003 C.ar    1  LIG1       -0.0504
     19 H           3.5549   -0.9190   -0.5522 H       1  LIG1        0.0624
     20 H           3.7194    3.2131    0.5635 H       1  LIG1        0.0624
     21 H           6.0345   -1.0181   -0.5440 H       1  LIG1        0.0625
     22 C           7.7445    0.9850   -0.0051 C.ar    1  LIG1        0.2034
     23 N           8.3331   -0.1609   -0.3750 N.ar    1  LIG1       -0.1252
     24 C          10.3052    0.8726   -0.0297 C.ar    1  LIG1        0.2194
     25 N           8.4287    2.0719    0.3554 N.ar    1  LIG1       -0.1252
     26 N           9.6232   -0.2238   -0.3895 N.ar    1  LIG1       -0.1237
     27 N           9.7242    2.0160    0.3431 N.ar    1  LIG1       -0.1237
     28 C          11.7580    0.8280   -0.0427 C.ar    1  LIG1        0.0875
     29 C          12.6353   -0.1788   -0.3931 C.ar    1  LIG1       -0.0333
     30 C          13.9410    0.3393   -0.2150 C.ar    1  LIG1       -0.0437
     31 C          13.8082    1.6383    0.2365 C.ar    1  LIG1        0.0023
     32 N          12.4860    1.9194    0.3347 N.ar    1  LIG1       -0.3582
     33 H          12.0640    2.7850    0.6372 H       1  LIG1        0.1654
     34 H          14.5545    2.3706    0.4918 H       1  LIG1        0.0807
     35 H          12.3490   -1.1592   -0.7340 H       1  LIG1        0.0640
     36 H          14.8704   -0.1729   -0.3945 H       1  LIG1        0.0633
@<TRIPOS>BOND
     1    11     7    1
     2     8     6    1
     3    35    29    1
     4     6     7   ar
     5     6     3   ar
     6     7     4   ar
     7    19    17    1
     8    21    18    1
     9    36    30    1
    10    29    30   ar
    11    29    28   ar
    12    26    23   ar
    13    26    24   ar
    14    23    22   ar
    15    18    17   ar
    16    18    15   ar
    17    17    14   ar
    18    30    31   ar
    19    28    24    1
    20    28    32   ar
    21    24    27   ar
    22     9     3    1
    23    22    15    1
    24    22    25   ar
    25     3     1   ar
    26    15    13   ar
    27     4    14    1
    28     4     2   ar
    29    14    12   ar
    30    31    32   ar
    31    31    34    1
    32    12    13   ar
    33    12    20    1
    34    13    16    1
    35    32    33    1
    36    27    25   ar
    37     1     2   ar
    38     1    10    1
    39     2     5    1
