@<TRIPOS>MOLECULE
mol_data/opt/m06hf/geoms/mol2/44-84.out
 38 41 0 0 0
SMALL
GASTEIGER

@<TRIPOS>ATOM
      1 C          -0.1794    0.2427    0.6143 C.ar    1  LIG1       -0.0612
      2 C           1.2109    0.1946    0.6135 C.ar    1  LIG1       -0.0540
      3 C          -0.8428    1.3028    0.0014 C.ar    1  LIG1       -0.0617
      4 C           1.9540    1.2068   -0.0006 C.ar    1  LIG1       -0.0179
      5 H           1.7272   -0.6173    1.1107 H       1  LIG1        0.0624
      6 C          -0.1091    2.3150   -0.6125 C.ar    1  LIG1       -0.0612
      7 C           1.2813    2.2675   -0.6137 C.ar    1  LIG1       -0.0540
      8 H          -0.6187    3.1380   -1.0965 H       1  LIG1        0.0618
      9 H          -1.9243    1.3400    0.0022 H       1  LIG1        0.0618
     10 H          -0.7436   -0.5434    1.0991 H       1  LIG1        0.0618
     11 H           1.8513    3.0421   -1.1117 H       1  LIG1        0.0624
     12 C           4.1954    2.3010    0.2830 C.ar    1  LIG1       -0.0534
     13 C           5.5833    2.2583    0.2822 C.ar    1  LIG1       -0.0504
     14 C           3.4453    1.1555   -0.0017 C.ar    1  LIG1       -0.0178
     15 C           6.2387    1.0596   -0.0037 C.ar    1  LIG1        0.0227
     16 H           6.1658    3.1407    0.5096 H       1  LIG1        0.0625
     17 C           4.1146   -0.0387   -0.2874 C.ar    1  LIG1       -0.0534
     18 C           5.5022   -0.0913   -0.2886 C.ar    1  LIG1       -0.0504
     19 H           3.5424   -0.9238   -0.5339 H       1  LIG1        0.0624
     20 H           3.6856    3.2233    0.5303 H       1  LIG1        0.0624
     21 H           6.0224   -1.0116   -0.5168 H       1  LIG1        0.0625
     22 C           7.7207    1.0087   -0.0048 C.ar    1  LIG1        0.2034
     23 N           8.3181   -0.1545   -0.2796 N.ar    1  LIG1       -0.1252
     24 C          10.2887    0.9205   -0.0067 C.ar    1  LIG1        0.2034
     25 N           8.3970    2.1281    0.2691 N.ar    1  LIG1       -0.1252
     26 N           9.6124   -0.1987   -0.2808 N.ar    1  LIG1       -0.1252
     27 N           9.6911    2.0834    0.2683 N.ar    1  LIG1       -0.1252
     28 C          12.4240   -0.3297   -0.3000 C.ar    1  LIG1       -0.0509
     29 C          13.8136   -0.3728   -0.3001 C.ar    1  LIG1       -0.0611
     30 C          11.7721    0.8696   -0.0078 C.ar    1  LIG1        0.0226
     31 C          14.5494    0.7742   -0.0099 C.ar    1  LIG1       -0.0617
     32 H          14.3207   -1.3008   -0.5271 H       1  LIG1        0.0618
     33 C          12.5052    2.0212    0.2833 C.ar    1  LIG1       -0.0509
     34 C          13.8944    1.9690    0.2813 C.ar    1  LIG1       -0.0611
     35 H          11.9815    2.9404    0.5076 H       1  LIG1        0.0625
     36 H          15.6311    0.7371   -0.0107 H       1  LIG1        0.0618
     37 H          11.8381   -1.2108   -0.5235 H       1  LIG1        0.0625
     38 H          14.4643    2.8600    0.5075 H       1  LIG1        0.0618
@<TRIPOS>BOND
     1    11     7    1
     2     8     6    1
     3     7     6   ar
     4     7     4   ar
     5     6     3   ar
     6    19    17    1
     7    32    29    1
     8    37    28    1
     9    21    18    1
    10    29    28   ar
    11    29    31   ar
    12    28    30   ar
    13    18    17   ar
    14    18    15   ar
    15    17    14   ar
    16    26    23   ar
    17    26    24   ar
    18    23    22   ar
    19    36    31    1
    20    31    34   ar
    21    30    24    1
    22    30    33   ar
    23    24    27   ar
    24    22    15    1
    25    22    25   ar
    26    15    13   ar
    27    14     4    1
    28    14    12   ar
    29     4     2   ar
    30     3     9    1
    31     3     1   ar
    32    27    25   ar
    33    34    33   ar
    34    34    38    1
    35    13    12   ar
    36    13    16    1
    37    12    20    1
    38    33    35    1
    39     2     1   ar
    40     2     5    1
    41     1    10    1
