@<TRIPOS>MOLECULE
mol_data/opt/m06hf/geoms/mol2/44-8-.out
 28 30 0 0 0
SMALL
GASTEIGER

@<TRIPOS>ATOM
      1 C          -0.1037    0.1754    0.4835 C.ar    1  LIG1       -0.0612
      2 C           1.2867    0.1275    0.4826 C.ar    1  LIG1       -0.0540
      3 C          -0.7647    1.3032    0.0036 C.ar    1  LIG1       -0.0617
      4 C           2.0322    1.2067    0.0004 C.ar    1  LIG1       -0.0179
      5 H           1.7997   -0.7395    0.8805 H       1  LIG1        0.0624
      6 C          -0.0287    2.3828   -0.4778 C.ar    1  LIG1       -0.0612
      7 C           1.3617    2.3348   -0.4802 C.ar    1  LIG1       -0.0540
      8 H          -0.5358    3.2593   -0.8595 H       1  LIG1        0.0618
      9 H          -1.8462    1.3405    0.0049 H       1  LIG1        0.0618
     10 H          -0.6691   -0.6641    0.8665 H       1  LIG1        0.0618
     11 H           1.9323    3.1644   -0.8794 H       1  LIG1        0.0624
     12 C           4.2731    2.2688    0.3922 C.ar    1  LIG1       -0.0534
     13 C           5.6610    2.2262    0.3907 C.ar    1  LIG1       -0.0504
     14 C           3.5235    1.1553   -0.0014 C.ar    1  LIG1       -0.0178
     15 C           6.3162    1.0590   -0.0047 C.ar    1  LIG1        0.0227
     16 H           6.2432    3.0833    0.7005 H       1  LIG1        0.0625
     17 C           4.1936   -0.0072   -0.3966 C.ar    1  LIG1       -0.0534
     18 C           5.5812   -0.0603   -0.3983 C.ar    1  LIG1       -0.0504
     19 H           3.6227   -0.8653   -0.7272 H       1  LIG1        0.0624
     20 H           3.7634    3.1641    0.7241 H       1  LIG1        0.0624
     21 H           6.1022   -0.9554   -0.7095 H       1  LIG1        0.0625
     22 C           7.7990    1.0079   -0.0065 C.ar    1  LIG1        0.2033
     23 N           8.4702    2.0966    0.3816 N.ar    1  LIG1       -0.1258
     24 C          10.3457    0.9199   -0.0093 C.ar    1  LIG1        0.1605
     25 N           8.3927   -0.1247   -0.3958 N.ar    1  LIG1       -0.1258
     26 N           9.7680    2.0525    0.3810 N.ar    1  LIG1       -0.1339
     27 N           9.6904   -0.1702   -0.3979 N.ar    1  LIG1       -0.1339
     28 H          11.4247    0.8825   -0.0100 H       1  LIG1        0.1085
@<TRIPOS>BOND
     1    11     7    1
     2     8     6    1
     3    19    17    1
     4    21    18    1
     5     7     6   ar
     6     7     4   ar
     7     6     3   ar
     8    18    17   ar
     9    18    15   ar
    10    27    25   ar
    11    27    24   ar
    12    17    14   ar
    13    25    22   ar
    14    28    24    1
    15    24    26   ar
    16    22    15    1
    17    22    23   ar
    18    15    13   ar
    19    14     4    1
    20    14    12   ar
    21     4     2   ar
    22     3     9    1
    23     3     1   ar
    24    26    23   ar
    25    13    12   ar
    26    13    16    1
    27    12    20    1
    28     2     1   ar
    29     2     5    1
    30     1    10    1
