@<TRIPOS>MOLECULE
mol_data/opt/m06hf/geoms/mol2/44.out
 22 23 0 0 0
SMALL
GASTEIGER

@<TRIPOS>ATOM
      1 C          -0.0300    0.1457    0.4705 C.ar    1  LIG1       -0.0612
      2 C           1.3613    0.1210    0.4710 C.ar    1  LIG1       -0.0540
      3 C          -0.7090    1.2666   -0.0003 C.ar    1  LIG1       -0.0617
      4 C           2.0901    1.2163    0.0002 C.ar    1  LIG1       -0.0179
      5 H           1.8901   -0.7414    0.8580 H       1  LIG1        0.0624
      6 C           0.0100    2.3624   -0.4709 C.ar    1  LIG1       -0.0612
      7 C           1.4013    2.3371   -0.4708 C.ar    1  LIG1       -0.0540
      8 H          -0.5112    3.2340   -0.8451 H       1  LIG1        0.0618
      9 H          -1.7910    1.2860   -0.0006 H       1  LIG1        0.0618
     10 H          -0.5823   -0.7066    0.8445 H       1  LIG1        0.0618
     11 H           1.9609    3.1799   -0.8576 H       1  LIG1        0.0624
     12 C           4.2723    0.0684   -0.4696 C.ar    1  LIG1       -0.0540
     13 C           5.6636    0.0431   -0.4691 C.ar    1  LIG1       -0.0612
     14 C           3.5833    1.1895    0.0005 C.ar    1  LIG1       -0.0179
     15 C           6.3824    1.1392    0.0011 C.ar    1  LIG1       -0.0617
     16 H           6.1849   -0.8287   -0.8426 H       1  LIG1        0.0618
     17 C           4.3119    2.2851    0.4709 C.ar    1  LIG1       -0.0540
     18 C           5.7032    2.2604    0.4710 C.ar    1  LIG1       -0.0612
     19 H           3.7829    3.1477    0.8572 H       1  LIG1        0.0624
     20 H           7.4644    1.1197    0.0013 H       1  LIG1        0.0618
     21 H           3.7128   -0.7747   -0.8561 H       1  LIG1        0.0624
     22 H           6.2554    3.1129    0.8447 H       1  LIG1        0.0618
@<TRIPOS>BOND
     1    11     7    1
     2    21    12    1
     3     8     6    1
     4    16    13    1
     5     6     7   ar
     6     6     3   ar
     7     7     4   ar
     8    12    13   ar
     9    12    14   ar
    10    13    15   ar
    11     9     3    1
    12     3     1   ar
    13     4    14    1
    14     4     2   ar
    15    14    17   ar
    16    15    20    1
    17    15    18   ar
    18     1     2   ar
    19     1    10    1
    20    17    18   ar
    21    17    19    1
    22     2     5    1
    23    18    22    1
