@<TRIPOS>MOLECULE
mol_data/opt/m06hf/geoms/mol2/4412-.out
 29 31 0 0 0
SMALL
GASTEIGER

@<TRIPOS>ATOM
      1 C          -0.0997    0.1736    0.5074 C.ar    1  LIG1       -0.0612
      2 C           1.2913    0.1474    0.5080 C.ar    1  LIG1       -0.0540
      3 C          -0.7784    1.2761   -0.0051 C.ar    1  LIG1       -0.0617
      4 C           2.0217    1.2219   -0.0073 C.ar    1  LIG1       -0.0179
      5 H           1.8182   -0.6988    0.9317 H       1  LIG1        0.0624
      6 C          -0.0584    2.3516   -0.5189 C.ar    1  LIG1       -0.0612
      7 C           1.3326    2.3237   -0.5217 C.ar    1  LIG1       -0.0540
      8 H          -0.5789    3.2087   -0.9263 H       1  LIG1        0.0618
      9 H          -1.8604    1.2969   -0.0044 H       1  LIG1        0.0618
     10 H          -0.6521   -0.6629    0.9153 H       1  LIG1        0.0618
     11 H           1.8908    3.1490   -0.9464 H       1  LIG1        0.0624
     12 C           4.2044    0.0312   -0.3662 C.ar    1  LIG1       -0.0534
     13 C           5.5934   -0.0017   -0.3616 C.ar    1  LIG1       -0.0505
     14 C           3.5135    1.1916   -0.0069 C.ar    1  LIG1       -0.0178
     15 C           6.3225    1.1330    0.0021 C.ar    1  LIG1        0.0173
     16 H           6.1204   -0.9020   -0.6471 H       1  LIG1        0.0625
     17 C           4.2501    2.3237    0.3563 C.ar    1  LIG1       -0.0534
     18 C           5.6378    2.2976    0.3603 C.ar    1  LIG1       -0.0505
     19 H           3.7291    3.2223    0.6621 H       1  LIG1        0.0624
     20 H           3.6482   -0.8453   -0.6741 H       1  LIG1        0.0624
     21 H           6.1886    3.1814    0.6541 H       1  LIG1        0.0625
     22 C           7.7934    1.0950    0.0075 C.ar    1  LIG1        0.1348
     23 C           8.7553    2.0174    0.2855 C.ar    1  LIG1       -0.0159
     24 C          10.0158    1.3497    0.1085 C.ar    1  LIG1       -0.0233
     25 C           9.7131    0.0827   -0.2615 C.ar    1  LIG1        0.0926
     26 O           8.3764   -0.0796   -0.3249 O.2     1  LIG1       -0.4629
     27 H          10.3106   -0.7784   -0.5032 H       1  LIG1        0.1029
     28 H           8.6005    3.0418    0.5773 H       1  LIG1        0.0655
     29 H          11.0007    1.7636    0.2402 H       1  LIG1        0.0649
@<TRIPOS>BOND
     1    11     7    1
     2     8     6    1
     3    20    12    1
     4    16    13    1
     5     7     6   ar
     6     7     4   ar
     7     6     3   ar
     8    27    25    1
     9    12    13   ar
    10    12    14   ar
    11    13    15   ar
    12    26    25   ar
    13    26    22   ar
    14    25    24   ar
    15     4    14    1
    16     4     2   ar
    17    14    17   ar
    18     3     9    1
    19     3     1   ar
    20    15    22    1
    21    15    18   ar
    22    22    23   ar
    23    24    29    1
    24    24    23   ar
    25    23    28    1
    26    17    18   ar
    27    17    19    1
    28    18    21    1
    29     1     2   ar
    30     1    10    1
    31     2     5    1
