@<TRIPOS>MOLECULE
mol_data/opt/m06hf/geoms/mol2/441212-.out
 36 39 0 0 0
SMALL
GASTEIGER

@<TRIPOS>ATOM
      1 C          -0.1233    0.1520    0.7079 C.ar    1  LIG1       -0.0612
      2 C           1.2673    0.1575    0.6659 C.ar    1  LIG1       -0.0540
      3 C          -0.8453    1.1739    0.0967 C.ar    1  LIG1       -0.0617
      4 C           1.9539    1.1826    0.0093 C.ar    1  LIG1       -0.0179
      5 H           1.8286   -0.6236    1.1639 H       1  LIG1        0.0624
      6 C          -0.1689    2.2003   -0.5576 C.ar    1  LIG1       -0.0612
      7 C           1.2217    2.2040   -0.6025 C.ar    1  LIG1       -0.0540
      8 H          -0.7237    2.9943   -1.0403 H       1  LIG1        0.0618
      9 H          -1.9270    1.1708    0.1306 H       1  LIG1        0.0618
     10 H          -0.6419   -0.6446    1.2254 H       1  LIG1        0.0618
     11 H           1.7460    2.9882   -1.1346 H       1  LIG1        0.0624
     12 C           4.1519    0.0057   -0.2923 C.ar    1  LIG1       -0.0534
     13 C           5.5385    0.0034   -0.3333 C.ar    1  LIG1       -0.0505
     14 C           3.4447    1.1854   -0.0371 C.ar    1  LIG1       -0.0178
     15 C           6.2533    1.1858   -0.1193 C.ar    1  LIG1        0.0173
     16 H           6.0664   -0.9172   -0.5449 H       1  LIG1        0.0625
     17 C           4.1651    2.3641    0.1740 C.ar    1  LIG1       -0.0534
     18 C           5.5538    2.3686    0.1327 C.ar    1  LIG1       -0.0505
     19 H           3.6317    3.2795    0.3978 H       1  LIG1        0.0624
     20 H           3.6070   -0.9098   -0.4859 H       1  LIG1        0.0624
     21 H           6.1034    3.2840    0.3058 H       1  LIG1        0.0625
     22 C           7.7217    1.1858   -0.1579 C.ar    1  LIG1        0.1358
     23 C           8.6552    0.2063   -0.3218 C.ar    1  LIG1       -0.0151
     24 C           9.9349    0.8494   -0.2619 C.ar    1  LIG1       -0.0122
     25 C           9.6731    2.1687   -0.0650 C.ar    1  LIG1        0.1705
     26 O           8.3427    2.3798   -0.0015 O.2     1  LIG1       -0.4517
     27 H           8.4667   -0.8439   -0.4633 H       1  LIG1        0.0656
     28 H          10.9103    0.4036   -0.3507 H       1  LIG1        0.0657
     29 C          10.5331    3.3299    0.0799 C.ar    1  LIG1        0.1697
     30 C          10.2757    4.6501    0.2734 C.ar    1  LIG1       -0.0128
     31 C          11.5624    5.2904    0.3310 C.ar    1  LIG1       -0.0232
     32 C          12.4771    4.3045    0.1683 C.ar    1  LIG1        0.0927
     33 O          11.8629    3.1117    0.0157 O.2     1  LIG1       -0.4598
     34 H          13.5523    4.2929    0.1390 H       1  LIG1        0.1029
     35 H           9.3022    5.1001    0.3617 H       1  LIG1        0.0656
     36 H          11.7663    6.3374    0.4739 H       1  LIG1        0.0649
@<TRIPOS>BOND
     1    11     7    1
     2     8     6    1
     3     7     6   ar
     4     7     4   ar
     5     6     3   ar
     6    16    13    1
     7    20    12    1
     8    27    23    1
     9    28    24    1
    10    13    12   ar
    11    13    15   ar
    12    23    24   ar
    13    23    22   ar
    14    12    14   ar
    15    24    25   ar
    16    22    15    1
    17    22    26   ar
    18    15    18   ar
    19    25    26   ar
    20    25    29    1
    21    14     4    1
    22    14    17   ar
    23     4     2   ar
    24    33    29   ar
    25    33    32   ar
    26    29    30   ar
    27     3     9    1
    28     3     1   ar
    29    18    17   ar
    30    18    21    1
    31    34    32    1
    32    32    31   ar
    33    17    19    1
    34    30    31   ar
    35    30    35    1
    36    31    36    1
    37     2     1   ar
    38     2     5    1
    39     1    10    1
