@<TRIPOS>MOLECULE
mol_data/opt/m06hf/geoms/mol2/4413-.out
 30 32 0 0 0
SMALL
GASTEIGER

@<TRIPOS>ATOM
      1 C          -0.1197    0.3110    0.7306 C.ar    1  LIG1       -0.0612
      2 C           1.2712    0.2819    0.7392 C.ar    1  LIG1       -0.0540
      3 C          -0.7945    1.2754   -0.0137 C.ar    1  LIG1       -0.0617
      4 C           2.0048    1.2162    0.0026 C.ar    1  LIG1       -0.0179
      5 H           1.7968   -0.4521    1.3375 H       1  LIG1        0.0624
      6 C          -0.0709    2.2104   -0.7498 C.ar    1  LIG1       -0.0612
      7 C           1.3201    2.1807   -0.7420 C.ar    1  LIG1       -0.0540
      8 H          -0.5891    2.9583   -1.3357 H       1  LIG1        0.0618
      9 H          -1.8764    1.2984   -0.0199 H       1  LIG1        0.0618
     10 H          -0.6759   -0.4137    1.3110 H       1  LIG1        0.0618
     11 H           1.8832    2.8930   -1.3323 H       1  LIG1        0.0624
     12 C           4.1855   -0.0200   -0.1465 C.ar    1  LIG1       -0.0534
     13 C           5.5751   -0.0507   -0.1285 C.ar    1  LIG1       -0.0521
     14 C           3.4969    1.1850    0.0126 C.ar    1  LIG1       -0.0178
     15 C           6.3104    1.1274    0.0337 C.ar    1  LIG1       -0.0017
     16 H           6.0922   -0.9986   -0.2172 H       1  LIG1        0.0624
     17 C           4.2340    2.3607    0.1845 C.ar    1  LIG1       -0.0534
     18 C           5.6227    2.3345    0.1876 C.ar    1  LIG1       -0.0521
     19 H           3.7120    3.2986    0.3277 H       1  LIG1        0.0624
     20 H           3.6272   -0.9361   -0.2934 H       1  LIG1        0.0624
     21 H           6.1861    3.2516    0.2999 H       1  LIG1        0.0624
     22 C           7.7859    1.1074    0.0529 C.ar    1  LIG1        0.0465
     23 C           8.6872    1.8218    0.8126 C.ar    1  LIG1       -0.0364
     24 C           9.9926    1.3981    0.4369 C.ar    1  LIG1       -0.0438
     25 C           9.8433    0.4438   -0.5402 C.ar    1  LIG1        0.0022
     26 N           8.5072    0.2712   -0.7563 N.ar    1  LIG1       -0.3607
     27 H           8.1010   -0.3048   -1.4760 H       1  LIG1        0.1653
     28 H          10.5750   -0.1162   -1.0959 H       1  LIG1        0.0807
     29 H           8.4273    2.5357    1.5765 H       1  LIG1        0.0639
     30 H          10.9280    1.7454    0.8416 H       1  LIG1        0.0633
@<TRIPOS>BOND
     1    27    26    1
     2     8     6    1
     3    11     7    1
     4    28    25    1
     5    26    25   ar
     6    26    22   ar
     7     6     7   ar
     8     6     3   ar
     9     7     4   ar
    10    25    24   ar
    11    20    12    1
    12    16    13    1
    13    12    13   ar
    14    12    14   ar
    15    13    15   ar
    16     9     3    1
    17     3     1   ar
    18     4    14    1
    19     4     2   ar
    20    14    17   ar
    21    15    22    1
    22    15    18   ar
    23    22    23   ar
    24    17    18   ar
    25    17    19    1
    26    18    21    1
    27    24    23   ar
    28    24    30    1
    29     1     2   ar
    30     1    10    1
    31     2     5    1
    32    23    29    1
