@<TRIPOS>MOLECULE
mol_data/opt/m06hf/geoms/mol2/4413-13.out
 38 41 0 0 0
SMALL
GASTEIGER

@<TRIPOS>ATOM
      1 C          -0.2727    0.5591    0.5966 C.ar    1  LIG1       -0.0612
      2 C           1.1087    0.5031    0.7537 C.ar    1  LIG1       -0.0540
      3 C          -0.8333    1.3777   -0.3803 C.ar    1  LIG1       -0.0617
      4 C           1.9474    1.2627   -0.0668 C.ar    1  LIG1       -0.0179
      5 H           1.5420   -0.1131    1.5319 H       1  LIG1        0.0624
      6 C          -0.0048    2.1405   -1.1996 C.ar    1  LIG1       -0.0612
      7 C           1.3766    2.0817   -1.0448 C.ar    1  LIG1       -0.0540
      8 H          -0.4325    2.7733   -1.9664 H       1  LIG1        0.0618
      9 H          -1.9075    1.4209   -0.5028 H       1  LIG1        0.0618
     10 H          -0.9105   -0.0296    1.2431 H       1  LIG1        0.0618
     11 H           2.0212    2.6539   -1.7006 H       1  LIG1        0.0624
     12 C           4.0748   -0.0273    0.2771 C.ar    1  LIG1       -0.0534
     13 C           5.4549   -0.0876    0.4279 C.ar    1  LIG1       -0.0521
     14 C           3.4294    1.1983    0.0947 C.ar    1  LIG1       -0.0178
     15 C           6.2268    1.0773    0.3797 C.ar    1  LIG1       -0.0017
     16 H           5.9340   -1.0431    0.6044 H       1  LIG1        0.0624
     17 C           4.2023    2.3633    0.0620 C.ar    1  LIG1       -0.0534
     18 C           5.5833    2.3042    0.1932 C.ar    1  LIG1       -0.0521
     19 H           3.7128    3.3217   -0.0588 H       1  LIG1        0.0624
     20 H           3.4906   -0.9391    0.2908 H       1  LIG1        0.0624
     21 H           6.1755    3.2086    0.1402 H       1  LIG1        0.0624
     22 C           7.6925    1.0235    0.5281 C.ar    1  LIG1        0.0469
     23 C           8.5719    1.9032    1.1254 C.ar    1  LIG1       -0.0358
     24 C           9.8764    1.3555    0.9989 C.ar    1  LIG1       -0.0344
     25 C           9.7537    0.1599    0.3198 C.ar    1  LIG1        0.0633
     26 N           8.4286   -0.0265    0.0512 N.ar    1  LIG1       -0.3530
     27 H           8.0734   -0.7608   -0.5418 H       1  LIG1        0.1659
     28 H           8.2939    2.8087    1.6385 H       1  LIG1        0.0639
     29 H          10.7929    1.7566    1.3991 H       1  LIG1        0.0639
     30 C          10.7543   -0.8158   -0.1120 C.ar    1  LIG1        0.0629
     31 C          10.7130   -2.1928   -0.1760 C.ar    1  LIG1       -0.0350
     32 C          11.9677   -2.6289   -0.6865 C.ar    1  LIG1       -0.0438
     33 C          12.7282   -1.5066   -0.9096 C.ar    1  LIG1        0.0022
     34 N          11.9822   -0.4190   -0.5596 N.ar    1  LIG1       -0.3595
     35 H          12.2513    0.5455   -0.6700 H       1  LIG1        0.1654
     36 H          13.7289   -1.3981   -1.2893 H       1  LIG1        0.0807
     37 H           9.8900   -2.8091    0.1471 H       1  LIG1        0.0639
     38 H          12.2783   -3.6454   -0.8573 H       1  LIG1        0.0633
@<TRIPOS>BOND
     1     8     6    1
     2    11     7    1
     3    36    33    1
     4     6     7   ar
     5     6     3   ar
     6     7     4   ar
     7    33    32   ar
     8    33    34   ar
     9    38    32    1
    10    32    31   ar
    11    35    34    1
    12    34    30   ar
    13    27    26    1
    14     9     3    1
    15     3     1   ar
    16    31    30   ar
    17    31    37    1
    18    30    25    1
    19     4    14    1
    20     4     2   ar
    21    19    17    1
    22    26    25   ar
    23    26    22   ar
    24    17    14   ar
    25    17    18   ar
    26    14    12   ar
    27    21    18    1
    28    18    15   ar
    29    12    20    1
    30    12    13   ar
    31    25    24   ar
    32    15    13   ar
    33    15    22    1
    34    13    16    1
    35    22    23   ar
    36     1     2   ar
    37     1    10    1
    38     2     5    1
    39    24    23   ar
    40    24    29    1
    41    23    28    1
