@<TRIPOS>MOLECULE
mol_data/opt/m06hf/geoms/mol2/444-.out
 32 34 0 0 0
SMALL
GASTEIGER

@<TRIPOS>ATOM
      1 C          -0.1378    0.3894    0.8234 C.ar    1  LIG1       -0.0612
      2 C           1.2533    0.3618    0.8258 C.ar    1  LIG1       -0.0540
      3 C          -0.8180    1.2790   -0.0042 C.ar    1  LIG1       -0.0617
      4 C           1.9813    1.2214   -0.0016 C.ar    1  LIG1       -0.0179
      5 H           1.7827   -0.3116    1.4887 H       1  LIG1        0.0624
      6 C          -0.1002    2.1398   -0.8305 C.ar    1  LIG1       -0.0612
      7 C           1.2908    2.1101   -0.8302 C.ar    1  LIG1       -0.0540
      8 H          -0.6229    2.8285   -1.4816 H       1  LIG1        0.0618
      9 H          -1.9000    1.3012   -0.0053 H       1  LIG1        0.0618
     10 H          -0.6896   -0.2772    1.4734 H       1  LIG1        0.0618
     11 H           1.8488    2.7612   -1.4921 H       1  LIG1        0.0624
     12 C           4.1617   -0.0257   -0.0005 C.ar    1  LIG1       -0.0535
     13 C           5.5514   -0.0543    0.0037 C.ar    1  LIG1       -0.0535
     14 C           3.4737    1.1907   -0.0001 C.ar    1  LIG1       -0.0178
     15 C           6.2888    1.1328    0.0025 C.ar    1  LIG1       -0.0178
     16 H           6.0713   -1.0040    0.0234 H       1  LIG1        0.0624
     17 C           4.2111    2.3778    0.0016 C.ar    1  LIG1       -0.0535
     18 C           5.6009    2.3492    0.0000 C.ar    1  LIG1       -0.0535
     19 H           3.6912    3.3275    0.0197 H       1  LIG1        0.0624
     20 H           3.6032   -0.9532   -0.0197 H       1  LIG1        0.0624
     21 H           6.1593    3.2767   -0.0187 H       1  LIG1        0.0624
     22 C           8.5077    1.9622    0.8321 C.ar    1  LIG1       -0.0540
     23 C           9.8987    1.9347    0.8324 C.ar    1  LIG1       -0.0612
     24 C           7.7812    1.1021    0.0040 C.ar    1  LIG1       -0.0179
     25 C          10.5806    1.0446    0.0067 C.ar    1  LIG1       -0.0617
     26 H          10.4493    2.6016    1.4830 H       1  LIG1        0.0618
     27 C           8.4733    0.2128   -0.8228 C.ar    1  LIG1       -0.0540
     28 C           9.8643    0.1832   -0.8204 C.ar    1  LIG1       -0.0612
     29 H           7.9166   -0.4387   -1.4853 H       1  LIG1        0.0624
     30 H          11.6625    1.0223    0.0077 H       1  LIG1        0.0618
     31 H           7.9770    2.6361    1.4936 H       1  LIG1        0.0624
     32 H          10.3883   -0.5059   -1.4700 H       1  LIG1        0.0618
@<TRIPOS>BOND
     1    11     7    1
     2    29    27    1
     3     8     6    1
     4    32    28    1
     5     6     7   ar
     6     6     3   ar
     7     7     4   ar
     8    27    28   ar
     9    27    24   ar
    10    28    25   ar
    11    20    12    1
    12    21    18    1
    13     9     3    1
    14     3     1   ar
    15     4    14    1
    16     4     2   ar
    17    12    14   ar
    18    12    13   ar
    19    14    17   ar
    20    18    17   ar
    21    18    15   ar
    22    17    19    1
    23    15    13   ar
    24    15    24    1
    25    13    16    1
    26    24    22   ar
    27    25    30    1
    28    25    23   ar
    29     1     2   ar
    30     1    10    1
    31     2     5    1
    32    22    23   ar
    33    22    31    1
    34    23    26    1
