@<TRIPOS>MOLECULE
mol_data/opt/m06hf/geoms/mol2/444.out
 32 34 0 0 0
SMALL
GASTEIGER

@<TRIPOS>ATOM
      1 C          -0.1316    0.3709    0.8300 C.ar    1  LIG1       -0.0612
      2 C           1.2597    0.3522    0.8307 C.ar    1  LIG1       -0.0540
      3 C          -0.8184    1.2561    0.0032 C.ar    1  LIG1       -0.0617
      4 C           1.9812    1.2164    0.0027 C.ar    1  LIG1       -0.0179
      5 H           1.7941   -0.3179    1.4930 H       1  LIG1        0.0624
      6 C          -0.1070    2.1216   -0.8239 C.ar    1  LIG1       -0.0612
      7 C           1.2842    2.1008   -0.8252 C.ar    1  LIG1       -0.0540
      8 H          -0.6349    2.8069   -1.4743 H       1  LIG1        0.0618
      9 H          -1.9005    1.2715    0.0034 H       1  LIG1        0.0618
     10 H          -0.6784   -0.2993    1.4805 H       1  LIG1        0.0618
     11 H           1.8372    2.7555   -1.4876 H       1  LIG1        0.0624
     12 C           4.1695   -0.0167    0.0012 C.ar    1  LIG1       -0.0535
     13 C           5.5594   -0.0364    0.0038 C.ar    1  LIG1       -0.0535
     14 C           3.4738    1.1953    0.0024 C.ar    1  LIG1       -0.0178
     15 C           6.2893    1.1553    0.0019 C.ar    1  LIG1       -0.0178
     16 H           6.0853   -0.9828    0.0229 H       1  LIG1        0.0624
     17 C           4.2036    2.3870    0.0034 C.ar    1  LIG1       -0.0535
     18 C           5.5935    2.3673    0.0003 C.ar    1  LIG1       -0.0535
     19 H           3.6777    3.3334    0.0222 H       1  LIG1        0.0624
     20 H           3.6170   -0.9478   -0.0174 H       1  LIG1        0.0624
     21 H           6.1460    3.2984   -0.0190 H       1  LIG1        0.0624
     22 C           8.4786    0.2493   -0.8260 C.ar    1  LIG1       -0.0540
     23 C           9.8698    0.2286   -0.8252 C.ar    1  LIG1       -0.0612
     24 C           7.7818    1.1342    0.0016 C.ar    1  LIG1       -0.0179
     25 C          10.5815    1.0944    0.0011 C.ar    1  LIG1       -0.0617
     26 H          10.3974   -0.4572   -1.4754 H       1  LIG1        0.0618
     27 C           8.5037    1.9988    0.8290 C.ar    1  LIG1       -0.0540
     28 C           9.8949    1.9802    0.8277 C.ar    1  LIG1       -0.0612
     29 H           7.9694    2.6693    1.4911 H       1  LIG1        0.0624
     30 H          11.6635    1.0791    0.0010 H       1  LIG1        0.0618
     31 H           7.9253   -0.4057   -1.4879 H       1  LIG1        0.0624
     32 H          10.4420    2.6506    1.4777 H       1  LIG1        0.0618
@<TRIPOS>BOND
     1    31    22    1
     2    11     7    1
     3    26    23    1
     4     8     6    1
     5    22    23   ar
     6    22    24   ar
     7    23    25   ar
     8     7     6   ar
     9     7     4   ar
    10     6     3   ar
    11    21    18    1
    12    20    12    1
    13    18    15   ar
    14    18    17   ar
    15    30    25    1
    16    25    28   ar
    17    12    14   ar
    18    12    13   ar
    19    24    15    1
    20    24    27   ar
    21    15    13   ar
    22    14     4    1
    23    14    17   ar
    24     4     2   ar
    25     3     9    1
    26     3     1   ar
    27    17    19    1
    28    13    16    1
    29    28    27   ar
    30    28    32    1
    31    27    29    1
    32     1     2   ar
    33     1    10    1
    34     2     5    1
