@<TRIPOS>MOLECULE
mol_data/opt/m06hf/geoms/mol2/4445-.out
 39 42 0 0 0
SMALL
GASTEIGER

@<TRIPOS>ATOM
      1 C          -0.1774    0.5347    1.0538 C.ar    1  LIG1       -0.0612
      2 C           1.2137    0.5387    1.0258 C.ar    1  LIG1       -0.0540
      3 C          -0.8986    1.1999    0.0656 C.ar    1  LIG1       -0.0617
      4 C           1.9009    1.2062    0.0083 C.ar    1  LIG1       -0.0179
      5 H           1.7742    0.0424    1.8084 H       1  LIG1        0.0624
      6 C          -0.2214    1.8680   -0.9514 C.ar    1  LIG1       -0.0612
      7 C           1.1698    1.8703   -0.9805 C.ar    1  LIG1       -0.0540
      8 H          -0.7753    2.3807   -1.7268 H       1  LIG1        0.0618
      9 H          -1.9806    1.1973    0.0876 H       1  LIG1        0.0618
     10 H          -0.6967    0.0195    1.8512 H       1  LIG1        0.0618
     11 H           1.6954    2.3691   -1.7853 H       1  LIG1        0.0624
     12 C           4.1137    0.0360    0.2138 C.ar    1  LIG1       -0.0535
     13 C           5.5032    0.0402    0.1915 C.ar    1  LIG1       -0.0535
     14 C           3.3931    1.2103   -0.0205 C.ar    1  LIG1       -0.0178
     15 C           6.2078    1.2187   -0.0688 C.ar    1  LIG1       -0.0178
     16 H           6.0497   -0.8729    0.3924 H       1  LIG1        0.0624
     17 C           4.0983    2.3886   -0.2806 C.ar    1  LIG1       -0.0535
     18 C           5.4879    2.3927   -0.3059 C.ar    1  LIG1       -0.0535
     19 H           3.5527    3.3092   -0.4472 H       1  LIG1        0.0624
     20 H           3.5795   -0.8878    0.3988 H       1  LIG1        0.0624
     21 H           6.0217    3.3092   -0.5250 H       1  LIG1        0.0624
     22 C           8.4041    0.2168   -0.7579 C.ar    1  LIG1       -0.0534
     23 C           9.7936    0.2117   -0.7693 C.ar    1  LIG1       -0.0530
     24 C           7.6994    1.2217   -0.0900 C.ar    1  LIG1       -0.0178
     25 C          10.5113    1.2183   -0.1175 C.ar    1  LIG1       -0.0113
     26 H          10.3262   -0.5837   -1.2757 H       1  LIG1        0.0624
     27 C           8.4194    2.2292    0.5584 C.ar    1  LIG1       -0.0534
     28 C           9.8085    2.2328    0.5389 C.ar    1  LIG1       -0.0530
     29 H           7.8861    3.0063    1.0915 H       1  LIG1        0.0624
     30 H           7.8586   -0.5571   -1.2829 H       1  LIG1        0.0624
     31 H          10.3569    3.0292    1.0248 H       1  LIG1        0.0624
     32 C          11.9916    1.2183   -0.1026 C.ar    1  LIG1        0.0193
     33 C          12.8167    1.5498    0.9326 C.ar    1  LIG1       -0.0469
     34 C          14.2059    1.4374    0.5982 C.ar    1  LIG1       -0.0541
     35 C          14.3988    1.0215   -0.6817 C.ar    1  LIG1       -0.0237
     36 S          12.9069    0.7694   -1.5021 S.2     1  LIG1       -0.0967
     37 H          15.3327    0.8523   -1.1924 H       1  LIG1        0.0693
     38 H          12.4476    1.8337    1.9076 H       1  LIG1        0.0629
     39 H          15.0117    1.6483    1.2854 H       1  LIG1        0.0623
@<TRIPOS>BOND
     1    11     7    1
     2     8     6    1
     3    36    35   ar
     4    36    32   ar
     5    30    22    1
     6    26    23    1
     7    37    35    1
     8     7     6   ar
     9     7     4   ar
    10     6     3   ar
    11    23    22   ar
    12    23    25   ar
    13    22    24   ar
    14    35    34   ar
    15    21    18    1
    16    19    17    1
    17    18    17   ar
    18    18    15   ar
    19    17    14   ar
    20    25    32    1
    21    25    28   ar
    22    32    33   ar
    23    24    15    1
    24    24    27   ar
    25    15    13   ar
    26    14     4    1
    27    14    12   ar
    28     4     2   ar
    29     3     9    1
    30     3     1   ar
    31    13    12   ar
    32    13    16    1
    33    12    20    1
    34    28    27   ar
    35    28    31    1
    36    27    29    1
    37    34    33   ar
    38    34    39    1
    39    33    38    1
    40     2     1   ar
    41     2     5    1
    42     1    10    1
