@<TRIPOS>MOLECULE
mol_data/opt/m06hf/geoms/mol2/445-4-.out
 39 42 0 0 0
SMALL
GASTEIGER

@<TRIPOS>ATOM
      1 C          -0.3075    0.4919    0.5228 C.ar    1  LIG1       -0.0612
      2 C           1.0761    0.4286    0.6533 C.ar    1  LIG1       -0.0540
      3 C          -0.8877    1.4290   -0.3284 C.ar    1  LIG1       -0.0617
      4 C           1.8977    1.2985   -0.0690 C.ar    1  LIG1       -0.0179
      5 H           1.5250   -0.2828    1.3355 H       1  LIG1        0.0624
      6 C          -0.0764    2.3014   -1.0494 C.ar    1  LIG1       -0.0612
      7 C           1.3072    2.2354   -0.9220 C.ar    1  LIG1       -0.0540
      8 H          -0.5200    3.0267   -1.7189 H       1  LIG1        0.0618
      9 H          -1.9639    1.4774   -0.4307 H       1  LIG1        0.0618
     10 H          -0.9322   -0.1845    1.0916 H       1  LIG1        0.0618
     11 H           1.9380    2.8951   -1.5051 H       1  LIG1        0.0624
     12 C           4.0369   -0.0071    0.0922 C.ar    1  LIG1       -0.0534
     13 C           5.4189   -0.0757    0.2134 C.ar    1  LIG1       -0.0530
     14 C           3.3818    1.2269    0.0635 C.ar    1  LIG1       -0.0178
     15 C           6.1836    1.0915    0.2952 C.ar    1  LIG1       -0.0113
     16 H           5.9080   -1.0414    0.2524 H       1  LIG1        0.0624
     17 C           4.1483    2.3925    0.1527 C.ar    1  LIG1       -0.0534
     18 C           5.5314    2.3277    0.2554 C.ar    1  LIG1       -0.0530
     19 H           3.6540    3.3561    0.1485 H       1  LIG1        0.0624
     20 H           3.4595   -0.9185    0.0016 H       1  LIG1        0.0624
     21 H           6.1153    3.2384    0.2909 H       1  LIG1        0.0624
     22 C           7.6565    1.0374    0.4164 C.ar    1  LIG1        0.0199
     23 C           8.4777    1.8969    1.0885 C.ar    1  LIG1       -0.0463
     24 C           9.8609    1.5488    0.9811 C.ar    1  LIG1       -0.0463
     25 C          10.0723    0.4285    0.2298 C.ar    1  LIG1        0.0199
     26 S           8.5765   -0.2044   -0.3683 S.2     1  LIG1       -0.0883
     27 H           8.1081    2.7281    1.6720 H       1  LIG1        0.0629
     28 H          10.6609    2.0834    1.4732 H       1  LIG1        0.0629
     29 C          12.4857    0.5703   -0.3649 C.ar    1  LIG1       -0.0535
     30 C          13.7112   -0.0243   -0.6440 C.ar    1  LIG1       -0.0612
     31 C          11.3645   -0.2186   -0.0913 C.ar    1  LIG1       -0.0113
     32 C          13.8267   -1.4122   -0.6681 C.ar    1  LIG1       -0.0617
     33 H          14.5727    0.5958   -0.8552 H       1  LIG1        0.0618
     34 C          11.4860   -1.6108   -0.1179 C.ar    1  LIG1       -0.0535
     35 C          12.7105   -2.2029   -0.4085 C.ar    1  LIG1       -0.0612
     36 H          10.6245   -2.2266    0.1095 H       1  LIG1        0.0624
     37 H          14.7793   -1.8742   -0.8916 H       1  LIG1        0.0618
     38 H          12.3841    1.6478   -0.3779 H       1  LIG1        0.0624
     39 H          12.7940   -3.2816   -0.4225 H       1  LIG1        0.0618
@<TRIPOS>BOND
     1     8     6    1
     2    11     7    1
     3     6     7   ar
     4     6     3   ar
     5     7     4   ar
     6    37    32    1
     7    33    30    1
     8    32    30   ar
     9    32    35   ar
    10    30    29   ar
    11     9     3    1
    12    39    35    1
    13    35    34   ar
    14    38    29    1
    15    26    25   ar
    16    26    22   ar
    17    29    31   ar
    18     3     1   ar
    19    34    31   ar
    20    34    36    1
    21    31    25    1
    22     4    14    1
    23     4     2   ar
    24    20    12    1
    25    14    12   ar
    26    14    17   ar
    27    12    13   ar
    28    19    17    1
    29    17    18   ar
    30    13    16    1
    31    13    15   ar
    32    25    24   ar
    33    18    21    1
    34    18    15   ar
    35    15    22    1
    36    22    23   ar
    37     1     2   ar
    38     1    10    1
    39     2     5    1
    40    24    23   ar
    41    24    28    1
    42    23    27    1
