@<TRIPOS>MOLECULE
mol_data/opt/m06hf/geoms/mol2/445-8-.out
 35 38 0 0 0
SMALL
GASTEIGER

@<TRIPOS>ATOM
      1 C          -0.2333    0.5389    0.6781 C.ar    1  LIG1       -0.0612
      2 C           1.1532    0.4925    0.7858 C.ar    1  LIG1       -0.0540
      3 C          -0.8332    1.3505   -0.2817 C.ar    1  LIG1       -0.0617
      4 C           1.9548    1.2577   -0.0651 C.ar    1  LIG1       -0.0179
      5 H           1.6194   -0.1213    1.5465 H       1  LIG1        0.0624
      6 C          -0.0407    2.1161   -1.1329 C.ar    1  LIG1       -0.0612
      7 C           1.3458    2.0708   -1.0250 C.ar    1  LIG1       -0.0540
      8 H          -0.5003    2.7418   -1.8866 H       1  LIG1        0.0618
      9 H          -1.9114    1.3843   -0.3667 H       1  LIG1        0.0618
     10 H          -0.8438   -0.0525    1.3479 H       1  LIG1        0.0618
     11 H           1.9632    2.6467   -1.7032 H       1  LIG1        0.0624
     12 C           4.1027   -0.0233    0.1451 C.ar    1  LIG1       -0.0534
     13 C           5.4874   -0.0775    0.2436 C.ar    1  LIG1       -0.0530
     14 C           3.4420    1.2040    0.0447 C.ar    1  LIG1       -0.0178
     15 C           6.2423    1.0987    0.2391 C.ar    1  LIG1       -0.0113
     16 H           5.9852   -1.0349    0.3355 H       1  LIG1        0.0624
     17 C           4.2005    2.3784    0.0420 C.ar    1  LIG1       -0.0534
     18 C           5.5856    2.3282    0.1321 C.ar    1  LIG1       -0.0530
     19 H           3.6978    3.3353   -0.0216 H       1  LIG1        0.0624
     20 H           3.5269   -0.9401    0.1286 H       1  LIG1        0.0624
     21 H           6.1663    3.2412    0.1044 H       1  LIG1        0.0624
     22 C           7.7184    1.0589    0.3430 C.ar    1  LIG1        0.0200
     23 C           8.5296    1.9115    1.0448 C.ar    1  LIG1       -0.0462
     24 C           9.9100    1.5834    0.9187 C.ar    1  LIG1       -0.0432
     25 C          10.1067    0.4900    0.1223 C.ar    1  LIG1        0.0604
     26 S           8.6272   -0.1473   -0.4898 S.2     1  LIG1       -0.0850
     27 H           8.1497    2.7204    1.6512 H       1  LIG1        0.0629
     28 H          10.7240    2.1107    1.3939 H       1  LIG1        0.0630
     29 C          11.3890   -0.1238   -0.2198 C.ar    1  LIG1        0.2098
     30 N          12.5012    0.4162    0.2925 N.ar    1  LIG1       -0.1253
     31 C          13.6141   -1.1963   -0.8171 C.ar    1  LIG1        0.1605
     32 N          11.3762   -1.1894   -1.0249 N.ar    1  LIG1       -0.1253
     33 N          13.6354   -0.1340   -0.0139 N.ar    1  LIG1       -0.1339
     34 N          12.5136   -1.7374   -1.3303 N.ar    1  LIG1       -0.1339
     35 H          14.5599   -1.6503   -1.0703 H       1  LIG1        0.1085
@<TRIPOS>BOND
     1     8     6    1
     2    11     7    1
     3    34    32   ar
     4    34    31   ar
     5     6     7   ar
     6     6     3   ar
     7    35    31    1
     8     7     4   ar
     9    32    29   ar
    10    31    33   ar
    11    26    25   ar
    12    26    22   ar
    13     9     3    1
    14     3     1   ar
    15    29    25    1
    16    29    30   ar
    17     4    14    1
    18     4     2   ar
    19    19    17    1
    20    33    30   ar
    21    17    14   ar
    22    17    18   ar
    23    14    12   ar
    24    21    18    1
    25    25    24   ar
    26    20    12    1
    27    18    15   ar
    28    12    13   ar
    29    15    13   ar
    30    15    22    1
    31    13    16    1
    32    22    23   ar
    33     1     2   ar
    34     1    10    1
    35     2     5    1
    36    24    23   ar
    37    24    28    1
    38    23    27    1
