@<TRIPOS>MOLECULE
mol_data/opt/m06hf/geoms/mol2/445.out
 29 31 0 0 0
SMALL
GASTEIGER

@<TRIPOS>ATOM
      1 C          -0.1336    0.2617    0.6373 C.ar    1  LIG1       -0.0612
      2 C           1.2569    0.2220    0.6637 C.ar    1  LIG1       -0.0540
      3 C          -0.7910    1.2864   -0.0387 C.ar    1  LIG1       -0.0617
      4 C           2.0066    1.2052    0.0122 C.ar    1  LIG1       -0.0179
      5 H           1.7684   -0.5599    1.2115 H       1  LIG1        0.0624
      6 C          -0.0512    2.2704   -0.6896 C.ar    1  LIG1       -0.0612
      7 C           1.3392    2.2294   -0.6652 C.ar    1  LIG1       -0.0540
      8 H          -0.5563    3.0652   -1.2228 H       1  LIG1        0.0618
      9 H          -1.8726    1.3184   -0.0575 H       1  LIG1        0.0618
     10 H          -0.7031   -0.5015    1.1516 H       1  LIG1        0.0618
     11 H           1.9150    2.9802   -1.1925 H       1  LIG1        0.0624
     12 C           4.1829   -0.0384   -0.1581 C.ar    1  LIG1       -0.0534
     13 C           5.5709   -0.0787   -0.1216 C.ar    1  LIG1       -0.0530
     14 C           3.4981    1.1638    0.0412 C.ar    1  LIG1       -0.0178
     15 C           6.3093    1.0883    0.0971 C.ar    1  LIG1       -0.0113
     16 H           6.0910   -1.0189   -0.2513 H       1  LIG1        0.0624
     17 C           4.2382    2.3265    0.2729 C.ar    1  LIG1       -0.0534
     18 C           5.6272    2.2920    0.2955 C.ar    1  LIG1       -0.0530
     19 H           3.7201    3.2604    0.4511 H       1  LIG1        0.0624
     20 H           3.6228   -0.9443   -0.3538 H       1  LIG1        0.0624
     21 H           6.1866    3.2050    0.4576 H       1  LIG1        0.0624
     22 C           7.7885    1.0329    0.1087 C.ar    1  LIG1        0.0193
     23 C           8.6034    0.2765   -0.6839 C.ar    1  LIG1       -0.0469
     24 C           9.9943    0.4656   -0.3960 C.ar    1  LIG1       -0.0541
     25 C          10.1983    1.3614    0.6069 C.ar    1  LIG1       -0.0237
     26 S           8.7152    1.9793    1.2210 S.2     1  LIG1       -0.0967
     27 H          11.1362    1.6907    1.0234 H       1  LIG1        0.0693
     28 H           8.2269   -0.3687   -1.4645 H       1  LIG1        0.0629
     29 H          10.7937   -0.0373   -0.9193 H       1  LIG1        0.0623
@<TRIPOS>BOND
     1    28    23    1
     2     8     6    1
     3    11     7    1
     4    29    24    1
     5     6     7   ar
     6     6     3   ar
     7    23    24   ar
     8    23    22   ar
     9     7     4   ar
    10    24    25   ar
    11    20    12    1
    12    16    13    1
    13    12    13   ar
    14    12    14   ar
    15    13    15   ar
    16     9     3    1
    17     3     1   ar
    18     4    14    1
    19     4     2   ar
    20    14    17   ar
    21    15    22    1
    22    15    18   ar
    23    22    26   ar
    24    17    18   ar
    25    17    19    1
    26    18    21    1
    27    25    27    1
    28    25    26   ar
    29     1     2   ar
    30     1    10    1
    31     2     5    1
