@<TRIPOS>MOLECULE
mol_data/opt/m06hf/geoms/mol2/448-8-.out
 34 37 0 0 0
SMALL
GASTEIGER

@<TRIPOS>ATOM
      1 C          -0.1228    0.2056    0.5892 C.ar    1  LIG1       -0.0612
      2 C           1.2681    0.1806    0.5902 C.ar    1  LIG1       -0.0540
      3 C          -0.8020    1.2671   -0.0034 C.ar    1  LIG1       -0.0617
      4 C           1.9939    1.2182   -0.0009 C.ar    1  LIG1       -0.0179
      5 H           1.7976   -0.6327    1.0711 H       1  LIG1        0.0624
      6 C          -0.0850    2.3042   -0.5948 C.ar    1  LIG1       -0.0612
      7 C           1.3060    2.2806   -0.5932 C.ar    1  LIG1       -0.0540
      8 H          -0.6081    3.1275   -1.0632 H       1  LIG1        0.0618
      9 H          -1.8840    1.2861   -0.0044 H       1  LIG1        0.0618
     10 H          -0.6752   -0.5989    1.0566 H       1  LIG1        0.0618
     11 H           1.8644    3.0748   -1.0731 H       1  LIG1        0.0624
     12 C           4.1749    0.0153   -0.3109 C.ar    1  LIG1       -0.0534
     13 C           5.5628   -0.0145   -0.3097 C.ar    1  LIG1       -0.0504
     14 C           3.4857    1.1921    0.0005 C.ar    1  LIG1       -0.0178
     15 C           6.2779    1.1433    0.0031 C.ar    1  LIG1        0.0227
     16 H           6.0984   -0.9210   -0.5571 H       1  LIG1        0.0625
     17 C           4.2150    2.3441    0.3132 C.ar    1  LIG1       -0.0534
     18 C           5.6031    2.3254    0.3145 C.ar    1  LIG1       -0.0504
     19 H           3.6885    3.2514    0.5799 H       1  LIG1        0.0624
     20 H           3.6174   -0.8730   -0.5786 H       1  LIG1        0.0624
     21 H           6.1696    3.2126    0.5630 H       1  LIG1        0.0625
     22 C           7.7583    1.1174    0.0044 C.ar    1  LIG1        0.2034
     23 N           8.4135    2.2467    0.2984 N.ar    1  LIG1       -0.1251
     24 C          10.3040    1.0729    0.0066 C.ar    1  LIG1        0.2435
     25 N           8.3741   -0.0341   -0.2885 N.ar    1  LIG1       -0.1251
     26 N           9.7095    2.2258    0.3009 N.ar    1  LIG1       -0.1218
     27 N           9.6700   -0.0585   -0.2887 N.ar    1  LIG1       -0.1218
     28 C          11.7953    1.0469    0.0077 C.ar    1  LIG1        0.2434
     29 N          12.4185    1.8243    0.8895 N.ar    1  LIG1       -0.1224
     30 C          14.3189    1.0028    0.0096 C.ar    1  LIG1        0.1605
     31 N          12.3923    0.2481   -0.8731 N.ar    1  LIG1       -0.1224
     32 N          13.7189    1.8020    0.8880 N.ar    1  LIG1       -0.1338
     33 N          13.6927    0.2250   -0.8697 N.ar    1  LIG1       -0.1338
     34 H          15.3988    0.9840    0.0103 H       1  LIG1        0.1085
@<TRIPOS>BOND
     1    11     7    1
     2     8     6    1
     3    31    33   ar
     4    31    28   ar
     5    33    30   ar
     6     6     7   ar
     7     6     3   ar
     8     7     4   ar
     9    20    12    1
    10    16    13    1
    11    12    13   ar
    12    12    14   ar
    13    13    15   ar
    14    27    25   ar
    15    27    24   ar
    16    25    22   ar
    17     9     3    1
    18     3     1   ar
    19     4    14    1
    20     4     2   ar
    21    14    17   ar
    22    15    22    1
    23    15    18   ar
    24    22    23   ar
    25    24    28    1
    26    24    26   ar
    27    28    29   ar
    28    30    34    1
    29    30    32   ar
    30    23    26   ar
    31    17    18   ar
    32    17    19    1
    33    18    21    1
    34     1     2   ar
    35     1    10    1
    36     2     5    1
    37    32    29   ar
