@<TRIPOS>MOLECULE
mol_data/opt/m06hf/geoms/mol2/448.out
 28 30 0 0 0
SMALL
GASTEIGER

@<TRIPOS>ATOM
      1 C          -0.0859    0.1500    0.4821 C.ar    1  LIG1       -0.0612
      2 C           1.3051    0.1258    0.4827 C.ar    1  LIG1       -0.0540
      3 C          -0.7655    1.2665    0.0017 C.ar    1  LIG1       -0.0617
      4 C           2.0326    1.2177    0.0015 C.ar    1  LIG1       -0.0179
      5 H           1.8324   -0.7323    0.8811 H       1  LIG1        0.0624
      6 C          -0.0475    2.3586   -0.4788 C.ar    1  LIG1       -0.0612
      7 C           1.3435    2.3343   -0.4797 C.ar    1  LIG1       -0.0540
      8 H          -0.5691    3.2264   -0.8610 H       1  LIG1        0.0618
      9 H          -1.8475    1.2853    0.0017 H       1  LIG1        0.0618
     10 H          -0.6374   -0.6991    0.8643 H       1  LIG1        0.0618
     11 H           1.9003    3.1736   -0.8781 H       1  LIG1        0.0624
     12 C           4.2149    0.0409   -0.3933 C.ar    1  LIG1       -0.0534
     13 C           5.6031    0.0115   -0.3935 C.ar    1  LIG1       -0.0504
     14 C           3.5246    1.1917    0.0014 C.ar    1  LIG1       -0.0178
     15 C           6.3185    1.1431    0.0011 C.ar    1  LIG1        0.0227
     16 H           6.1397   -0.8746   -0.7041 H       1  LIG1        0.0625
     17 C           4.2546    2.3179    0.3959 C.ar    1  LIG1       -0.0534
     18 C           5.6430    2.2989    0.3959 C.ar    1  LIG1       -0.0504
     19 H           3.7293    3.2043    0.7273 H       1  LIG1        0.0624
     20 H           3.6590   -0.8267   -0.7246 H       1  LIG1        0.0624
     21 H           6.2102    3.1657    0.7064 H       1  LIG1        0.0625
     22 C           7.8019    1.1172    0.0010 C.ar    1  LIG1        0.2033
     23 N           8.4153   -0.0049   -0.3879 N.ar    1  LIG1       -0.1258
     24 C          10.3498    1.0729    0.0008 C.ar    1  LIG1        0.1605
     25 N           8.4541    2.2173    0.3899 N.ar    1  LIG1       -0.1258
     26 N           9.7136   -0.0282   -0.3887 N.ar    1  LIG1       -0.1339
     27 N           9.7524    2.1954    0.3906 N.ar    1  LIG1       -0.1339
     28 H          11.4293    1.0539    0.0010 H       1  LIG1        0.1085
@<TRIPOS>BOND
     1    11     7    1
     2     8     6    1
     3    20    12    1
     4    16    13    1
     5     7     6   ar
     6     7     4   ar
     7     6     3   ar
     8    13    12   ar
     9    13    15   ar
    10    12    14   ar
    11    26    23   ar
    12    26    24   ar
    13    23    22   ar
    14    24    28    1
    15    24    27   ar
    16    22    15    1
    17    22    25   ar
    18    15    18   ar
    19    14     4    1
    20    14    17   ar
    21     4     2   ar
    22     3     9    1
    23     3     1   ar
    24    25    27   ar
    25    17    18   ar
    26    17    19    1
    27    18    21    1
    28     1     2   ar
    29     1    10    1
    30     2     5    1
