@<TRIPOS>MOLECULE
mol_data/opt/m06hf/geoms/mol2/4485.out
 35 38 0 0 0
SMALL
GASTEIGER

@<TRIPOS>ATOM
      1 C          -0.1607    0.2198    0.5379 C.ar    1  LIG1       -0.0612
      2 C           1.2299    0.1789    0.5594 C.ar    1  LIG1       -0.0540
      3 C          -0.8193    1.3009   -0.0429 C.ar    1  LIG1       -0.0617
      4 C           1.9774    1.2190    0.0007 C.ar    1  LIG1       -0.0179
      5 H           1.7422   -0.6502    1.0317 H       1  LIG1        0.0624
      6 C          -0.0809    2.3408   -0.6021 C.ar    1  LIG1       -0.0612
      7 C           1.3094    2.3006   -0.5808 C.ar    1  LIG1       -0.0540
      8 H          -0.5868    3.1803   -1.0611 H       1  LIG1        0.0618
      9 H          -1.9009    1.3330   -0.0595 H       1  LIG1        0.0618
     10 H          -0.7287   -0.5879    0.9807 H       1  LIG1        0.0618
     11 H           1.8837    3.0975   -1.0370 H       1  LIG1        0.0624
     12 C           4.1542    0.0046   -0.3060 C.ar    1  LIG1       -0.0534
     13 C           5.5423   -0.0335   -0.2933 C.ar    1  LIG1       -0.0504
     14 C           3.4688    1.1786    0.0222 C.ar    1  LIG1       -0.0178
     15 C           6.2631    1.1116    0.0494 C.ar    1  LIG1        0.0227
     16 H           6.0752   -0.9370   -0.5563 H       1  LIG1        0.0625
     17 C           4.2033    2.3176    0.3673 C.ar    1  LIG1       -0.0534
     18 C           5.5913    2.2894    0.3815 C.ar    1  LIG1       -0.0504
     19 H           3.6805    3.2228    0.6482 H       1  LIG1        0.0624
     20 H           3.5946   -0.8750   -0.5977 H       1  LIG1        0.0624
     21 H           6.1608    3.1676    0.6540 H       1  LIG1        0.0625
     22 C           7.7453    1.0791    0.0563 C.ar    1  LIG1        0.2034
     23 N           8.3594   -0.0623   -0.2773 N.ar    1  LIG1       -0.1252
     24 C          10.3068    1.0246    0.0529 C.ar    1  LIG1        0.2099
     25 N           8.4048    2.1909    0.3925 N.ar    1  LIG1       -0.1252
     26 N           9.6528   -0.0932   -0.2805 N.ar    1  LIG1       -0.1247
     27 N           9.6996    2.1642    0.3915 N.ar    1  LIG1       -0.1247
     28 C          11.7702    0.9990    0.0456 C.ar    1  LIG1        0.0598
     29 C          12.5682   -0.0626   -0.2756 C.ar    1  LIG1       -0.0438
     30 C          13.9553    0.2642   -0.1814 C.ar    1  LIG1       -0.0540
     31 C          14.1530    1.5569    0.2065 C.ar    1  LIG1       -0.0236
     32 S          12.6806    2.3993    0.4644 S.2     1  LIG1       -0.0934
     33 H          15.0931    2.0628    0.3567 H       1  LIG1        0.0693
     34 H          12.1691   -1.0234   -0.5648 H       1  LIG1        0.0630
     35 H          14.7560   -0.4279   -0.3923 H       1  LIG1        0.0623
@<TRIPOS>BOND
     1     8     6    1
     2    11     7    1
     3     6     7   ar
     4     6     3   ar
     5    20    12    1
     6     7     4   ar
     7    34    29    1
     8    16    13    1
     9    35    30    1
    10    12    13   ar
    11    12    14   ar
    12    13    15   ar
    13    26    23   ar
    14    26    24   ar
    15    23    22   ar
    16    29    30   ar
    17    29    28   ar
    18    30    31   ar
    19     9     3    1
    20     3     1   ar
    21     4    14    1
    22     4     2   ar
    23    14    17   ar
    24    28    24    1
    25    28    32   ar
    26    15    22    1
    27    15    18   ar
    28    24    27   ar
    29    22    25   ar
    30    31    33    1
    31    31    32   ar
    32    17    18   ar
    33    17    19    1
    34    18    21    1
    35    27    25   ar
    36     1     2   ar
    37     1    10    1
    38     2     5    1
