@<TRIPOS>MOLECULE
mol_data/opt/m06hf/geoms/mol2/45-.out
 19 20 0 0 0
SMALL
GASTEIGER

@<TRIPOS>ATOM
      1 C           0.0004    0.0936    0.2445 C.ar    1  LIG1       -0.0612
      2 C           1.3911    0.0739    0.2262 C.ar    1  LIG1       -0.0535
      3 C          -0.6864    1.2790   -0.0053 C.ar    1  LIG1       -0.0617
      4 C           2.1102    1.2401   -0.0504 C.ar    1  LIG1       -0.0113
      5 H           1.9244   -0.8426    0.4462 H       1  LIG1        0.0624
      6 C           0.0249    2.4446   -0.2802 C.ar    1  LIG1       -0.0612
      7 C           1.4151    2.4249   -0.3112 C.ar    1  LIG1       -0.0535
      8 H          -0.5025    3.3674   -0.4840 H       1  LIG1        0.0618
      9 H          -1.7683    1.2940    0.0119 H       1  LIG1        0.0618
     10 H          -0.5452   -0.8150    0.4622 H       1  LIG1        0.0618
     11 H           1.9700    3.3211   -0.5569 H       1  LIG1        0.0624
     12 C           3.5912    1.2362   -0.0640 C.ar    1  LIG1        0.0193
     13 C           4.4353    2.2007    0.4042 C.ar    1  LIG1       -0.0469
     14 C           5.8179    1.8650    0.2310 C.ar    1  LIG1       -0.0541
     15 C           5.9861    0.6530   -0.3625 C.ar    1  LIG1       -0.0237
     16 S           4.4787   -0.0921   -0.7287 S.2     1  LIG1       -0.0967
     17 H           6.9100    0.1570   -0.6118 H       1  LIG1        0.0693
     18 H           4.0842    3.1033    0.8832 H       1  LIG1        0.0629
     19 H           6.6367    2.4954    0.5440 H       1  LIG1        0.0623
@<TRIPOS>BOND
     1    16    15   ar
     2    16    12   ar
     3    17    15    1
     4    11     7    1
     5     8     6    1
     6    15    14   ar
     7     7     6   ar
     8     7     4   ar
     9     6     3   ar
    10    12     4    1
    11    12    13   ar
    12     4     2   ar
    13     3     9    1
    14     3     1   ar
    15     2     1   ar
    16     2     5    1
    17    14    13   ar
    18    14    19    1
    19     1    10    1
    20    13    18    1
