@<TRIPOS>MOLECULE
mol_data/opt/m06hf/geoms/mol2/45-13-.out
 27 29 0 0 0
SMALL
GASTEIGER

@<TRIPOS>ATOM
      1 C          -0.1516    0.1801    0.1035 C.ar    1  LIG1       -0.0612
      2 C           1.2319    0.1141    0.2311 C.ar    1  LIG1       -0.0535
      3 C          -0.7676    1.3820   -0.2348 C.ar    1  LIG1       -0.0617
      4 C           2.0159    1.2504    0.0114 C.ar    1  LIG1       -0.0113
      5 H           1.7067   -0.8158    0.5191 H       1  LIG1        0.0624
      6 C           0.0086    2.5176   -0.4545 C.ar    1  LIG1       -0.0612
      7 C           1.3926    2.4517   -0.3401 C.ar    1  LIG1       -0.0535
      8 H          -0.4625    3.4527   -0.7282 H       1  LIG1        0.0618
      9 H          -1.8440    1.4327   -0.3318 H       1  LIG1        0.0618
     10 H          -0.7485   -0.7054    0.2780 H       1  LIG1        0.0618
     11 H           2.0005    3.3233   -0.5446 H       1  LIG1        0.0624
     12 C           3.4890    1.2017    0.1480 C.ar    1  LIG1        0.0200
     13 C           4.3172    2.1632    0.6494 C.ar    1  LIG1       -0.0463
     14 C           5.6954    1.7785    0.6427 C.ar    1  LIG1       -0.0449
     15 C           5.8937    0.5319    0.1266 C.ar    1  LIG1        0.0360
     16 S           4.3958   -0.1775   -0.3781 S.2     1  LIG1       -0.0868
     17 H           3.9522    3.0970    1.0522 H       1  LIG1        0.0629
     18 H           6.5024    2.3815    1.0318 H       1  LIG1        0.0630
     19 C           7.1678   -0.1662   -0.0564 C.ar    1  LIG1        0.0531
     20 C           8.3956    0.3134   -0.4586 C.ar    1  LIG1       -0.0359
     21 C           9.2971   -0.7865   -0.4654 C.ar    1  LIG1       -0.0438
     22 C           8.5869   -1.8965   -0.0736 C.ar    1  LIG1        0.0022
     23 N           7.3019   -1.5102    0.1670 N.ar    1  LIG1       -0.3603
     24 H           6.5679   -2.1028    0.5213 H       1  LIG1        0.1653
     25 H           8.8923   -2.9205    0.0521 H       1  LIG1        0.0807
     26 H           8.5979    1.3323   -0.7428 H       1  LIG1        0.0639
     27 H          10.3389   -0.7677   -0.7365 H       1  LIG1        0.0633
@<TRIPOS>BOND
     1    26    20    1
     2    27    21    1
     3     8     6    1
     4    11     7    1
     5    21    20   ar
     6    21    22   ar
     7    20    19   ar
     8     6     7   ar
     9     6     3   ar
    10    16    15   ar
    11    16    12   ar
    12     7     4   ar
    13     9     3    1
    14     3     1   ar
    15    22    25    1
    16    22    23   ar
    17    19    15    1
    18    19    23   ar
    19     4    12    1
    20     4     2   ar
    21     1     2   ar
    22     1    10    1
    23    15    14   ar
    24    12    13   ar
    25    23    24    1
    26     2     5    1
    27    14    13   ar
    28    14    18    1
    29    13    17    1
