@<TRIPOS>MOLECULE
mol_data/opt/m06hf/geoms/mol2/45-12.out
 26 28 0 0 0
SMALL
GASTEIGER

@<TRIPOS>ATOM
      1 C          -0.1113    0.1607    0.2994 C.ar    1  LIG1       -0.0612
      2 C           1.2766    0.1187    0.3800 C.ar    1  LIG1       -0.0535
      3 C          -0.7545    1.3214   -0.1223 C.ar    1  LIG1       -0.0617
      4 C           2.0380    1.2369    0.0274 C.ar    1  LIG1       -0.0113
      5 H           1.7717   -0.7768    0.7352 H       1  LIG1        0.0624
      6 C          -0.0011    2.4395   -0.4730 C.ar    1  LIG1       -0.0612
      7 C           1.3867    2.3955   -0.4086 C.ar    1  LIG1       -0.0535
      8 H          -0.4935    3.3421   -0.8105 H       1  LIG1        0.0618
      9 H          -1.8344    1.3534   -0.1812 H       1  LIG1        0.0618
     10 H          -0.6899   -0.7108    0.5757 H       1  LIG1        0.0618
     11 H           1.9746    3.2504   -0.7168 H       1  LIG1        0.0624
     12 C           3.5150    1.2153    0.1097 C.ar    1  LIG1        0.0200
     13 C           4.3533    2.2424    0.4353 C.ar    1  LIG1       -0.0462
     14 C           5.7340    1.8722    0.4067 C.ar    1  LIG1       -0.0434
     15 C           5.9155    0.5642    0.0620 C.ar    1  LIG1        0.0550
     16 S           4.4116   -0.2274   -0.2441 S.2     1  LIG1       -0.0852
     17 H           3.9985    3.2234    0.7165 H       1  LIG1        0.0629
     18 H           6.5551    2.5333    0.6405 H       1  LIG1        0.0630
     19 C           7.1841   -0.1457   -0.0576 C.ar    1  LIG1        0.1413
     20 C           7.5119   -1.4475   -0.2779 C.ar    1  LIG1       -0.0154
     21 C           8.9485   -1.4977   -0.2832 C.ar    1  LIG1       -0.0233
     22 C           9.3642   -0.2274   -0.0653 C.ar    1  LIG1        0.0926
     23 O           8.3050    0.5978    0.0704 O.2     1  LIG1       -0.4624
     24 H          10.3354    0.2275    0.0155 H       1  LIG1        0.1029
     25 H           6.8254   -2.2661   -0.4133 H       1  LIG1        0.0655
     26 H           9.5728   -2.3622   -0.4280 H       1  LIG1        0.0649
@<TRIPOS>BOND
     1     8     6    1
     2    11     7    1
     3     6     7   ar
     4     6     3   ar
     5    26    21    1
     6    25    20    1
     7     7     4   ar
     8    21    20   ar
     9    21    22   ar
    10    20    19   ar
    11    16    15   ar
    12    16    12   ar
    13     9     3    1
    14     3     1   ar
    15    22    24    1
    16    22    23   ar
    17    19    15    1
    18    19    23   ar
    19     4    12    1
    20     4     2   ar
    21    15    14   ar
    22    12    13   ar
    23     1     2   ar
    24     1    10    1
    25     2     5    1
    26    14    13   ar
    27    14    18    1
    28    13    17    1
