@<TRIPOS>MOLECULE
mol_data/opt/m06hf/geoms/mol2/45-413-.out
 37 40 0 0 0
SMALL
GASTEIGER

@<TRIPOS>ATOM
      1 C          -0.2526    0.2589    0.2210 C.ar    1  LIG1       -0.0612
      2 C           1.1303    0.2068    0.3609 C.ar    1  LIG1       -0.0535
      3 C          -0.8635    1.4039   -0.2837 C.ar    1  LIG1       -0.0617
      4 C           1.9183    1.2997   -0.0116 C.ar    1  LIG1       -0.0113
      5 H           1.6020   -0.6744    0.7781 H       1  LIG1        0.0624
      6 C          -0.0833    2.4961   -0.6562 C.ar    1  LIG1       -0.0612
      7 C           1.3004    2.4426   -0.5284 C.ar    1  LIG1       -0.0535
      8 H          -0.5508    3.3855   -1.0582 H       1  LIG1        0.0618
      9 H          -1.9395    1.4432   -0.3899 H       1  LIG1        0.0618
     10 H          -0.8533   -0.5915    0.5154 H       1  LIG1        0.0618
     11 H           1.9128    3.2760   -0.8473 H       1  LIG1        0.0624
     12 C           3.3905    1.2647    0.1406 C.ar    1  LIG1        0.0199
     13 C           4.2165    2.2762    0.5396 C.ar    1  LIG1       -0.0463
     14 C           5.5929    1.8901    0.5786 C.ar    1  LIG1       -0.0463
     15 C           5.7924    0.5908    0.2072 C.ar    1  LIG1        0.0199
     16 S           4.2947   -0.1676   -0.2108 S.2     1  LIG1       -0.0883
     17 H           3.8503    3.2489    0.8348 H       1  LIG1        0.0629
     18 H           6.3935    2.5364    0.9083 H       1  LIG1        0.0629
     19 C           7.1459   -1.5043    0.4504 C.ar    1  LIG1       -0.0529
     20 C           8.3579   -2.1802    0.3858 C.ar    1  LIG1       -0.0520
     21 C           7.0722   -0.1461    0.1296 C.ar    1  LIG1       -0.0113
     22 C           9.5244   -1.5173   -0.0077 C.ar    1  LIG1       -0.0017
     23 H           8.4058   -3.2208    0.6832 H       1  LIG1        0.0624
     24 C           8.2393    0.5174   -0.2651 C.ar    1  LIG1       -0.0529
     25 C           9.4490   -0.1589   -0.3317 C.ar    1  LIG1       -0.0520
     26 H           8.1850    1.5594   -0.5531 H       1  LIG1        0.0624
     27 H           6.2572   -2.0249    0.7852 H       1  LIG1        0.0624
     28 H          10.3412    0.3528   -0.6681 H       1  LIG1        0.0624
     29 C          10.8156   -2.2253   -0.0809 C.ar    1  LIG1        0.0465
     30 C          12.0924   -1.8031    0.2227 C.ar    1  LIG1       -0.0364
     31 C          12.9711   -2.8960   -0.0140 C.ar    1  LIG1       -0.0438
     32 C          12.2020   -3.9455   -0.4566 C.ar    1  LIG1        0.0022
     33 N          10.9028   -3.5304   -0.4843 N.ar    1  LIG1       -0.3607
     34 H          10.1282   -4.0637   -0.8455 H       1  LIG1        0.1653
     35 H          12.4750   -4.9426   -0.7562 H       1  LIG1        0.0807
     36 H          12.3496   -0.8309    0.6092 H       1  LIG1        0.0639
     37 H          14.0376   -2.9132    0.1318 H       1  LIG1        0.0633
@<TRIPOS>BOND
     1     8     6    1
     2    11     7    1
     3    34    33    1
     4    35    32    1
     5    28    25    1
     6     6     7   ar
     7     6     3   ar
     8    26    24    1
     9     7     4   ar
    10    33    32   ar
    11    33    29   ar
    12    32    31   ar
    13     9     3    1
    14    25    24   ar
    15    25    22   ar
    16     3     1   ar
    17    24    21   ar
    18    16    12   ar
    19    16    15   ar
    20    29    22    1
    21    29    30   ar
    22    31    37    1
    23    31    30   ar
    24     4    12    1
    25     4     2   ar
    26    22    20   ar
    27    21    15    1
    28    21    19   ar
    29    12    13   ar
    30    15    14   ar
    31     1     2   ar
    32     1    10    1
    33    30    36    1
    34     2     5    1
    35    20    19   ar
    36    20    23    1
    37    19    27    1
    38    13    14   ar
    39    13    17    1
    40    14    18    1
