@<TRIPOS>MOLECULE
mol_data/opt/m06hf/geoms/mol2/45-48-.out
 35 38 0 0 0
SMALL
GASTEIGER

@<TRIPOS>ATOM
      1 C          -0.2246    0.2165    0.0095 C.ar    1  LIG1       -0.0612
      2 C           1.1539    0.1524    0.1835 C.ar    1  LIG1       -0.0535
      3 C          -0.8285    1.4134   -0.3666 C.ar    1  LIG1       -0.0617
      4 C           1.9444    1.2860   -0.0265 C.ar    1  LIG1       -0.0113
      5 H           1.6182   -0.7725    0.5028 H       1  LIG1        0.0624
      6 C          -0.0456    2.5463   -0.5766 C.ar    1  LIG1       -0.0612
      7 C           1.3339    2.4819   -0.4164 C.ar    1  LIG1       -0.0535
      8 H          -0.5077    3.4770   -0.8787 H       1  LIG1        0.0618
      9 H          -1.9012    1.4621   -0.4985 H       1  LIG1        0.0618
     10 H          -0.8270   -0.6664    0.1777 H       1  LIG1        0.0618
     11 H           1.9481    3.3512   -0.6132 H       1  LIG1        0.0624
     12 C           3.4116    1.2396    0.1644 C.ar    1  LIG1        0.0199
     13 C           4.2228    2.2159    0.6684 C.ar    1  LIG1       -0.0463
     14 C           5.5996    1.8328    0.7082 C.ar    1  LIG1       -0.0463
     15 C           5.8130    0.5685    0.2368 C.ar    1  LIG1        0.0199
     16 S           4.3312   -0.1584   -0.2793 S.2     1  LIG1       -0.0883
     17 H           3.8465    3.1603    1.0342 H       1  LIG1        0.0629
     18 H           6.3896    2.4525    1.1074 H       1  LIG1        0.0629
     19 C           7.1664   -1.5306    0.3996 C.ar    1  LIG1       -0.0529
     20 C           8.3765   -2.2042    0.3131 C.ar    1  LIG1       -0.0503
     21 C           7.0969   -0.1579    0.1378 C.ar    1  LIG1       -0.0113
     22 C           9.5350   -1.5061   -0.0313 C.ar    1  LIG1        0.0227
     23 H           8.4362   -3.2645    0.5177 H       1  LIG1        0.0625
     24 C           8.2629    0.5299   -0.2171 C.ar    1  LIG1       -0.0529
     25 C           9.4776   -0.1364   -0.2952 C.ar    1  LIG1       -0.0503
     26 H           8.2062    1.5843   -0.4530 H       1  LIG1        0.0624
     27 H           6.2722   -2.0661    0.6918 H       1  LIG1        0.0624
     28 H          10.3823    0.3880   -0.5716 H       1  LIG1        0.0625
     29 C          10.8296   -2.2236   -0.1244 C.ar    1  LIG1        0.2033
     30 N          11.9187   -1.5250   -0.4600 N.ar    1  LIG1       -0.1258
     31 C          13.0521   -3.4598   -0.2889 C.ar    1  LIG1        0.1605
     32 N          10.8446   -3.5353    0.1319 N.ar    1  LIG1       -0.1258
     33 N          13.0516   -2.1547   -0.5446 N.ar    1  LIG1       -0.1339
     34 N          11.9764   -4.1664    0.0485 N.ar    1  LIG1       -0.1339
     35 H          13.9929   -3.9846   -0.3613 H       1  LIG1        0.1085
@<TRIPOS>BOND
     1     8     6    1
     2    11     7    1
     3     6     7   ar
     4     6     3   ar
     5    28    25    1
     6    33    30   ar
     7    33    31   ar
     8     9     3    1
     9    30    29   ar
    10    26    24    1
    11     7     4   ar
    12     3     1   ar
    13    35    31    1
    14    25    24   ar
    15    25    22   ar
    16    31    34   ar
    17    16    12   ar
    18    16    15   ar
    19    24    21   ar
    20    29    22    1
    21    29    32   ar
    22    22    20   ar
    23     4    12    1
    24     4     2   ar
    25     1    10    1
    26     1     2   ar
    27    34    32   ar
    28    21    15    1
    29    21    19   ar
    30    12    13   ar
    31     2     5    1
    32    15    14   ar
    33    20    19   ar
    34    20    23    1
    35    19    27    1
    36    13    14   ar
    37    13    17    1
    38    14    18    1
