@<TRIPOS>MOLECULE
mol_data/opt/m06hf/geoms/mol2/45-5-.out
 26 28 0 0 0
SMALL
GASTEIGER

@<TRIPOS>ATOM
      1 C          -0.1313    0.1728    0.1308 C.ar    1  LIG1       -0.0612
      2 C           1.2511    0.1172    0.2731 C.ar    1  LIG1       -0.0535
      3 C          -0.7494    1.3614   -0.2482 C.ar    1  LIG1       -0.0617
      4 C           2.0309    1.2514    0.0289 C.ar    1  LIG1       -0.0113
      5 H           1.7279   -0.8015    0.5924 H       1  LIG1        0.0624
      6 C           0.0227    2.4949   -0.4910 C.ar    1  LIG1       -0.0612
      7 C           1.4059    2.4394   -0.3610 C.ar    1  LIG1       -0.0535
      8 H          -0.4505    3.4194   -0.7954 H       1  LIG1        0.0618
      9 H          -1.8250    1.4035   -0.3573 H       1  LIG1        0.0618
     10 H          -0.7258   -0.7104    0.3250 H       1  LIG1        0.0618
     11 H           2.0120    3.3083   -0.5832 H       1  LIG1        0.0624
     12 C           3.5035    1.2108    0.1770 C.ar    1  LIG1        0.0199
     13 C           4.3231    2.1831    0.6743 C.ar    1  LIG1       -0.0463
     14 C           5.7015    1.8044    0.6754 C.ar    1  LIG1       -0.0458
     15 C           5.9054    0.5523    0.1703 C.ar    1  LIG1        0.0265
     16 S           4.4139   -0.1734   -0.3221 S.2     1  LIG1       -0.0877
     17 H           3.9515    3.1196    1.0644 H       1  LIG1        0.0629
     18 H           6.5047    2.4137    1.0630 H       1  LIG1        0.0629
     19 C           7.1927   -0.1330    0.0040 C.ar    1  LIG1        0.0259
     20 C           8.3634    0.4160   -0.4339 C.ar    1  LIG1       -0.0464
     21 C           9.4424   -0.5259   -0.4540 C.ar    1  LIG1       -0.0541
     22 C           9.0578   -1.7630   -0.0402 C.ar    1  LIG1       -0.0237
     23 S           7.3953   -1.8051    0.3984 S.2     1  LIG1       -0.0961
     24 H           9.6583   -2.6550    0.0334 H       1  LIG1        0.0693
     25 H           8.4396    1.4448   -0.7539 H       1  LIG1        0.0629
     26 H          10.4457   -0.2891   -0.7746 H       1  LIG1        0.0623
@<TRIPOS>BOND
     1     8     6    1
     2    26    21    1
     3    25    20    1
     4    11     7    1
     5     6     7   ar
     6     6     3   ar
     7    21    20   ar
     8    21    22   ar
     9    20    19   ar
    10     7     4   ar
    11     9     3    1
    12    16    15   ar
    13    16    12   ar
    14     3     1   ar
    15    22    24    1
    16    22    23   ar
    17    19    15    1
    18    19    23   ar
    19     4    12    1
    20     4     2   ar
    21     1     2   ar
    22     1    10    1
    23    15    14   ar
    24    12    13   ar
    25     2     5    1
    26    13    14   ar
    27    13    17    1
    28    14    18    1
