@<TRIPOS>MOLECULE
mol_data/opt/m06hf/geoms/mol2/45-5.out
 26 28 0 0 0
SMALL
GASTEIGER

@<TRIPOS>ATOM
      1 C          -0.1577    0.2348    0.4078 C.ar    1  LIG1       -0.0612
      2 C           1.2291    0.1728    0.4965 C.ar    1  LIG1       -0.0535
      3 C          -0.7759    1.3613   -0.1288 C.ar    1  LIG1       -0.0617
      4 C           2.0121    1.2375    0.0410 C.ar    1  LIG1       -0.0113
      5 H           1.7083   -0.6926    0.9376 H       1  LIG1        0.0624
      6 C          -0.0003    2.4249   -0.5842 C.ar    1  LIG1       -0.0612
      7 C           1.3865    2.3614   -0.5072 C.ar    1  LIG1       -0.0535
      8 H          -0.4744    3.2993   -1.0107 H       1  LIG1        0.0618
      9 H          -1.8548    1.4085   -0.1953 H       1  LIG1        0.0618
     10 H          -0.7550   -0.5935    0.7655 H       1  LIG1        0.0618
     11 H           1.9944    3.1714   -0.8888 H       1  LIG1        0.0624
     12 C           3.4884    1.1982    0.1361 C.ar    1  LIG1        0.0199
     13 C           4.3329    2.2178    0.4643 C.ar    1  LIG1       -0.0463
     14 C           5.7090    1.8313    0.4487 C.ar    1  LIG1       -0.0458
     15 C           5.8894    0.5206    0.1090 C.ar    1  LIG1        0.0265
     16 S           4.3730   -0.2538   -0.2019 S.2     1  LIG1       -0.0877
     17 H           3.9849    3.2038    0.7358 H       1  LIG1        0.0629
     18 H           6.5236    2.5004    0.6885 H       1  LIG1        0.0629
     19 C           7.1486   -0.2199   -0.0125 C.ar    1  LIG1        0.0259
     20 C           7.3326   -1.5261   -0.3668 C.ar    1  LIG1       -0.0464
     21 C           8.7130   -1.9092   -0.3836 C.ar    1  LIG1       -0.0541
     22 C           9.5394   -0.8862   -0.0428 C.ar    1  LIG1       -0.0237
     23 S           8.6630    0.5569    0.3021 S.2     1  LIG1       -0.0961
     24 H          10.6150   -0.8915    0.0267 H       1  LIG1        0.0693
     25 H           6.5196   -2.1958   -0.6096 H       1  LIG1        0.0629
     26 H           9.0587   -2.8995   -0.6386 H       1  LIG1        0.0623
@<TRIPOS>BOND
     1     8     6    1
     2    11     7    1
     3    26    21    1
     4    25    20    1
     5     6     7   ar
     6     6     3   ar
     7     7     4   ar
     8    21    20   ar
     9    21    22   ar
    10    20    19   ar
    11    16    15   ar
    12    16    12   ar
    13     9     3    1
    14     3     1   ar
    15    22    24    1
    16    22    23   ar
    17    19    15    1
    18    19    23   ar
    19     4    12    1
    20     4     2   ar
    21    15    14   ar
    22    12    13   ar
    23     1     2   ar
    24     1    10    1
    25    14    13   ar
    26    14    18    1
    27    13    17    1
    28     2     5    1
