@<TRIPOS>MOLECULE
mol_data/opt/m06hf/geoms/mol2/45-8.out
 25 27 0 0 0
SMALL
GASTEIGER

@<TRIPOS>ATOM
      1 C          -0.1134    0.1910    0.3342 C.ar    1  LIG1       -0.0612
      2 C           1.2730    0.1355    0.4305 C.ar    1  LIG1       -0.0535
      3 C          -0.7363    1.3367   -0.1541 C.ar    1  LIG1       -0.0617
      4 C           2.0491    1.2276    0.0314 C.ar    1  LIG1       -0.0113
      5 H           1.7553   -0.7467    0.8331 H       1  LIG1        0.0624
      6 C           0.0331    2.4275   -0.5523 C.ar    1  LIG1       -0.0612
      7 C           1.4196    2.3722   -0.4666 C.ar    1  LIG1       -0.0535
      8 H          -0.4454    3.3170   -0.9407 H       1  LIG1        0.0618
      9 H          -1.8151    1.3785   -0.2269 H       1  LIG1        0.0618
     10 H          -0.7065   -0.6580    0.6477 H       1  LIG1        0.0618
     11 H           2.0229    3.2049   -0.8048 H       1  LIG1        0.0624
     12 C           3.5261    1.1916    0.1285 C.ar    1  LIG1        0.0200
     13 C           4.3605    2.2127    0.4990 C.ar    1  LIG1       -0.0462
     14 C           5.7345    1.8386    0.4709 C.ar    1  LIG1       -0.0432
     15 C           5.9055    0.5401    0.0805 C.ar    1  LIG1        0.0604
     16 S           4.4072   -0.2412   -0.2636 S.2     1  LIG1       -0.0850
     17 H           4.0015    3.1837    0.8071 H       1  LIG1        0.0629
     18 H           6.5629    2.4812    0.7304 H       1  LIG1        0.0630
     19 C           7.1779   -0.1661   -0.0626 C.ar    1  LIG1        0.2098
     20 N           7.1458   -1.4444   -0.4492 N.ar    1  LIG1       -0.1253
     21 C           9.3899   -1.3887   -0.3238 C.ar    1  LIG1        0.1605
     22 N           8.3024    0.5116    0.1993 N.ar    1  LIG1       -0.1253
     23 N           8.2776   -2.0687   -0.5830 N.ar    1  LIG1       -0.1339
     24 N           9.4301   -0.1149    0.0653 N.ar    1  LIG1       -0.1339
     25 H          10.3306   -1.9061   -0.4370 H       1  LIG1        0.1085
@<TRIPOS>BOND
     1     8     6    1
     2    11     7    1
     3    23    20   ar
     4    23    21   ar
     5     6     7   ar
     6     6     3   ar
     7     7     4   ar
     8    20    19   ar
     9    25    21    1
    10    21    24   ar
    11    16    15   ar
    12    16    12   ar
    13     9     3    1
    14     3     1   ar
    15    19    15    1
    16    19    22   ar
    17     4    12    1
    18     4     2   ar
    19    24    22   ar
    20    15    14   ar
    21    12    13   ar
    22     1     2   ar
    23     1    10    1
    24     2     5    1
    25    14    13   ar
    26    14    18    1
    27    13    17    1
