@<TRIPOS>MOLECULE
mol_data/opt/m06hf/geoms/mol2/45-8-.out
 25 27 0 0 0
SMALL
GASTEIGER

@<TRIPOS>ATOM
      1 C          -0.1135    0.1902    0.3311 C.ar    1  LIG1       -0.0612
      2 C           1.2729    0.1348    0.4281 C.ar    1  LIG1       -0.0535
      3 C          -0.7363    1.3365   -0.1558 C.ar    1  LIG1       -0.0617
      4 C           2.0490    1.2276    0.0312 C.ar    1  LIG1       -0.0113
      5 H           1.7551   -0.7481    0.8295 H       1  LIG1        0.0624
      6 C           0.0332    2.4281   -0.5518 C.ar    1  LIG1       -0.0612
      7 C           1.4197    2.3730   -0.4653 C.ar    1  LIG1       -0.0535
      8 H          -0.4452    3.3181   -0.9391 H       1  LIG1        0.0618
      9 H          -1.8150    1.3783   -0.2292 H       1  LIG1        0.0618
     10 H          -0.7066   -0.6594    0.6429 H       1  LIG1        0.0618
     11 H           2.0230    3.2062   -0.8017 H       1  LIG1        0.0624
     12 C           3.5260    1.1916    0.1290 C.ar    1  LIG1        0.0200
     13 C           4.3603    2.2120    0.5016 C.ar    1  LIG1       -0.0462
     14 C           5.7342    1.8380    0.4735 C.ar    1  LIG1       -0.0432
     15 C           5.9055    0.5401    0.0812 C.ar    1  LIG1        0.0604
     16 S           4.4073   -0.2406   -0.2650 S.2     1  LIG1       -0.0850
     17 H           4.0012    3.1827    0.8110 H       1  LIG1        0.0629
     18 H           6.5626    2.4801    0.7346 H       1  LIG1        0.0630
     19 C           7.1779   -0.1659   -0.0624 C.ar    1  LIG1        0.2098
     20 N           8.3023    0.5116    0.2004 N.ar    1  LIG1       -0.1253
     21 C           9.3900   -1.3882   -0.3242 C.ar    1  LIG1        0.1605
     22 N           7.1460   -1.4438   -0.4502 N.ar    1  LIG1       -0.1253
     23 N           9.4300   -0.1148    0.0661 N.ar    1  LIG1       -0.1339
     24 N           8.2778   -2.0679   -0.5844 N.ar    1  LIG1       -0.1339
     25 H          10.3308   -1.9053   -0.4378 H       1  LIG1        0.1085
@<TRIPOS>BOND
     1     8     6    1
     2    11     7    1
     3    24    22   ar
     4    24    21   ar
     5     6     7   ar
     6     6     3   ar
     7     7     4   ar
     8    22    19   ar
     9    25    21    1
    10    21    23   ar
    11    16    15   ar
    12    16    12   ar
    13     9     3    1
    14     3     1   ar
    15    19    15    1
    16    19    20   ar
    17     4    12    1
    18     4     2   ar
    19    23    20   ar
    20    15    14   ar
    21    12    13   ar
    22     1     2   ar
    23     1    10    1
    24     2     5    1
    25    14    13   ar
    26    14    18    1
    27    13    17    1
