@<TRIPOS>MOLECULE
mol_data/opt/m06hf/geoms/mol2/45.out
 19 20 0 0 0
SMALL
GASTEIGER

@<TRIPOS>ATOM
      1 C          -0.0328    0.0778    0.2813 C.ar    1  LIG1       -0.0612
      2 C           1.3568    0.0310    0.3113 C.ar    1  LIG1       -0.0535
      3 C          -0.6877    1.2761    0.0070 C.ar    1  LIG1       -0.0617
      4 C           2.1075    1.1813    0.0501 C.ar    1  LIG1       -0.0113
      5 H           1.8685   -0.8907    0.5565 H       1  LIG1        0.0624
      6 C           0.0548    2.4273   -0.2432 C.ar    1  LIG1       -0.0612
      7 C           1.4448    2.3805   -0.2258 C.ar    1  LIG1       -0.0535
      8 H          -0.4470    3.3610   -0.4605 H       1  LIG1        0.0618
      9 H          -1.7691    1.3129   -0.0094 H       1  LIG1        0.0618
     10 H          -0.6036   -0.8188    0.4853 H       1  LIG1        0.0618
     11 H           2.0212    3.2706   -0.4462 H       1  LIG1        0.0624
     12 C           3.5870    1.1143    0.0627 C.ar    1  LIG1        0.0193
     13 C           4.3838    0.1108   -0.4064 C.ar    1  LIG1       -0.0469
     14 C           5.7810    0.3800   -0.2342 C.ar    1  LIG1       -0.0541
     15 C           6.0073    1.5822    0.3599 C.ar    1  LIG1       -0.0237
     16 S           4.5375    2.3984    0.7274 S.2     1  LIG1       -0.0967
     17 H           6.9541    2.0332    0.6088 H       1  LIG1        0.0693
     18 H           3.9897   -0.7738   -0.8855 H       1  LIG1        0.0629
     19 H           6.5684   -0.2886   -0.5481 H       1  LIG1        0.0623
@<TRIPOS>BOND
     1    18    13    1
     2    19    14    1
     3     8     6    1
     4    11     7    1
     5    13    14   ar
     6    13    12   ar
     7     6     7   ar
     8     6     3   ar
     9    14    15   ar
    10     7     4   ar
    11     9     3    1
    12     3     1   ar
    13     4    12    1
    14     4     2   ar
    15    12    16   ar
    16     1     2   ar
    17     1    10    1
    18     2     5    1
    19    15    17    1
    20    15    16   ar
