@<TRIPOS>MOLECULE
mol_data/opt/m06hf/geoms/mol2/45124-.out
 36 39 0 0 0
SMALL
GASTEIGER

@<TRIPOS>ATOM
      1 C          -0.1065    0.0459    0.6213 C.ar    1  LIG1       -0.0612
      2 C           1.2824    0.0365    0.5558 C.ar    1  LIG1       -0.0535
      3 C          -0.8249    1.1183    0.0979 C.ar    1  LIG1       -0.0617
      4 C           1.9672    1.0949   -0.0489 C.ar    1  LIG1       -0.0113
      5 H           1.8460   -0.7782    0.9920 H       1  LIG1        0.0624
      6 C          -0.1474    2.1801   -0.4959 C.ar    1  LIG1       -0.0612
      7 C           1.2413    2.1682   -0.5736 C.ar    1  LIG1       -0.0535
      8 H          -0.6997    3.0142   -0.9082 H       1  LIG1        0.0618
      9 H          -1.9055    1.1270    0.1547 H       1  LIG1        0.0618
     10 H          -0.6269   -0.7778    1.0919 H       1  LIG1        0.0618
     11 H           1.7657    2.9821   -1.0586 H       1  LIG1        0.0624
     12 C           3.4447    1.0622   -0.1265 C.ar    1  LIG1        0.0200
     13 C           4.2467   -0.0166   -0.3711 C.ar    1  LIG1       -0.0462
     14 C           5.6367    0.3111   -0.3805 C.ar    1  LIG1       -0.0434
     15 C           5.8632    1.6358   -0.1361 C.ar    1  LIG1        0.0550
     16 S           4.3843    2.4974    0.1094 S.2     1  LIG1       -0.0852
     17 H           3.8553   -1.0028   -0.5757 H       1  LIG1        0.0629
     18 H           6.4269   -0.3978   -0.5799 H       1  LIG1        0.0630
     19 C           7.1450    2.3220   -0.0444 C.ar    1  LIG1        0.1422
     20 C           8.4309    1.8859    0.0614 C.ar    1  LIG1       -0.0147
     21 C           9.2436    3.0645    0.1140 C.ar    1  LIG1       -0.0152
     22 C           8.3912    4.1248    0.0416 C.ar    1  LIG1        0.1357
     23 O           7.1193    3.6728   -0.0552 O.2     1  LIG1       -0.4543
     24 H           8.7550    0.8610    0.1161 H       1  LIG1        0.0656
     25 H          10.3140    3.1087    0.2168 H       1  LIG1        0.0656
     26 C           7.4857    6.4310    0.2283 C.ar    1  LIG1       -0.0511
     27 C           7.6712    7.8088    0.2634 C.ar    1  LIG1       -0.0611
     28 C           8.5840    5.5825    0.0660 C.ar    1  LIG1        0.0173
     29 C           8.9481    8.3498    0.1394 C.ar    1  LIG1       -0.0617
     30 H           6.8163    8.4595    0.3915 H       1  LIG1        0.0618
     31 C           9.8641    6.1273   -0.0664 C.ar    1  LIG1       -0.0511
     32 C          10.0435    7.5043   -0.0262 C.ar    1  LIG1       -0.0611
     33 H          10.7155    5.4755   -0.2126 H       1  LIG1        0.0625
     34 H           9.0896    9.4221    0.1685 H       1  LIG1        0.0618
     35 H           6.4961    6.0055    0.3293 H       1  LIG1        0.0625
     36 H          11.0378    7.9180   -0.1313 H       1  LIG1        0.0618
@<TRIPOS>BOND
     1    11     7    1
     2     8     6    1
     3    18    14    1
     4    17    13    1
     5     7     6   ar
     6     7     4   ar
     7     6     3   ar
     8    14    13   ar
     9    14    15   ar
    10    13    12   ar
    11    33    31    1
    12    15    19    1
    13    15    16   ar
    14    36    32    1
    15    12     4    1
    16    12    16   ar
    17    31    32   ar
    18    31    28   ar
    19    23    19   ar
    20    23    22   ar
    21     4     2   ar
    22    19    20   ar
    23    32    29   ar
    24    22    28    1
    25    22    21   ar
    26    20    21   ar
    27    20    24    1
    28    28    26   ar
    29     3     9    1
    30     3     1   ar
    31    21    25    1
    32    29    34    1
    33    29    27   ar
    34    26    27   ar
    35    26    35    1
    36    27    30    1
    37     2     1   ar
    38     2     5    1
    39     1    10    1
