@<TRIPOS>MOLECULE
mol_data/opt/m06hf/geoms/mol2/4513-13.out
 35 38 0 0 0
SMALL
GASTEIGER

@<TRIPOS>ATOM
      1 C          -0.2506    0.4160    0.5652 C.ar    1  LIG1       -0.0612
      2 C           1.1248    0.3979    0.7686 C.ar    1  LIG1       -0.0535
      3 C          -0.7995    1.2067   -0.4415 C.ar    1  LIG1       -0.0617
      4 C           1.9693    1.1585   -0.0458 C.ar    1  LIG1       -0.0113
      5 H           1.5512   -0.1880    1.5728 H       1  LIG1        0.0624
      6 C           0.0354    1.9769   -1.2467 C.ar    1  LIG1       -0.0612
      7 C           1.4126    1.9507   -1.0540 C.ar    1  LIG1       -0.0535
      8 H          -0.3836    2.5913   -2.0328 H       1  LIG1        0.0618
      9 H          -1.8704    1.2257   -0.5956 H       1  LIG1        0.0618
     10 H          -0.8945   -0.1767    1.2018 H       1  LIG1        0.0618
     11 H           2.0618    2.5292   -1.7000 H       1  LIG1        0.0624
     12 C           3.4341    1.1075    0.1631 C.ar    1  LIG1        0.0200
     13 C           4.1923    0.0244    0.5034 C.ar    1  LIG1       -0.0463
     14 C           5.5818    0.3359    0.6423 C.ar    1  LIG1       -0.0449
     15 C           5.8561    1.6507    0.3924 C.ar    1  LIG1        0.0361
     16 S           4.4175    2.5221   -0.0101 S.2     1  LIG1       -0.0868
     17 H           3.7775   -0.9643    0.6354 H       1  LIG1        0.0629
     18 H           6.3356   -0.3794    0.9399 H       1  LIG1        0.0630
     19 C           7.1544    2.3263    0.4223 C.ar    1  LIG1        0.0536
     20 C           7.5119    3.5977    0.8237 C.ar    1  LIG1       -0.0353
     21 C           8.9154    3.7169    0.6484 C.ar    1  LIG1       -0.0344
     22 C           9.3711    2.5122    0.1496 C.ar    1  LIG1        0.0633
     23 N           8.2940    1.6861    0.0222 N.ar    1  LIG1       -0.3526
     24 H           8.3363    0.7448   -0.3369 H       1  LIG1        0.1660
     25 H           6.8357    4.3414    1.2117 H       1  LIG1        0.0639
     26 H           9.5227    4.5879    0.8309 H       1  LIG1        0.0639
     27 C          10.7154    2.0636   -0.2169 C.ar    1  LIG1        0.0629
     28 C          11.1606    1.2776   -1.2586 C.ar    1  LIG1       -0.0350
     29 C          12.5717    1.1548   -1.1203 C.ar    1  LIG1       -0.0438
     30 C          12.9351    1.8727   -0.0064 C.ar    1  LIG1        0.0022
     31 N          11.8043    2.4150    0.5296 N.ar    1  LIG1       -0.3595
     32 H          11.7467    2.9443    1.3852 H       1  LIG1        0.1654
     33 H          13.8992    2.0354    0.4431 H       1  LIG1        0.0807
     34 H          10.5457    0.8772   -2.0478 H       1  LIG1        0.0639
     35 H          13.2409    0.6150   -1.7688 H       1  LIG1        0.0633
@<TRIPOS>BOND
     1    34    28    1
     2     8     6    1
     3    35    29    1
     4    11     7    1
     5    28    29   ar
     6    28    27   ar
     7     6     7   ar
     8     6     3   ar
     9    29    30   ar
    10     7     4   ar
    11     9     3    1
    12     3     1   ar
    13    24    23    1
    14    27    22    1
    15    27    31   ar
    16     4    12    1
    17     4     2   ar
    18    16    12   ar
    19    16    15   ar
    20    30    33    1
    21    30    31   ar
    22    23    22   ar
    23    23    19   ar
    24    22    21   ar
    25    12    13   ar
    26    15    19    1
    27    15    14   ar
    28    19    20   ar
    29    13    17    1
    30    13    14   ar
    31    31    32    1
    32     1     2   ar
    33     1    10    1
    34    14    18    1
    35    21    20   ar
    36    21    26    1
    37     2     5    1
    38    20    25    1
