@<TRIPOS>MOLECULE
mol_data/opt/m06hf/geoms/mol2/4513-.out
 27 29 0 0 0
SMALL
GASTEIGER

@<TRIPOS>ATOM
      1 C          -0.0516    0.0245    0.4624 C.ar    1  LIG1       -0.0612
      2 C           1.3340    0.0114    0.3473 C.ar    1  LIG1       -0.0535
      3 C          -0.7622    1.2009    0.2353 C.ar    1  LIG1       -0.0617
      4 C           2.0241    1.1731   -0.0124 C.ar    1  LIG1       -0.0113
      5 H           1.8915   -0.8923    0.5565 H       1  LIG1        0.0624
      6 C          -0.0793    2.3638   -0.1110 C.ar    1  LIG1       -0.0612
      7 C           1.3056    2.3507   -0.2394 C.ar    1  LIG1       -0.0535
      8 H          -0.6251    3.2806   -0.2910 H       1  LIG1        0.0618
      9 H          -1.8397    1.2120    0.3327 H       1  LIG1        0.0618
     10 H          -0.5749   -0.8804    0.7420 H       1  LIG1        0.0618
     11 H           1.8320    3.2501   -0.5342 H       1  LIG1        0.0624
     12 C           3.4975    1.1395   -0.1517 C.ar    1  LIG1        0.0200
     13 C           4.2685    0.1277   -0.6480 C.ar    1  LIG1       -0.0463
     14 C           5.6644    0.4395   -0.6516 C.ar    1  LIG1       -0.0449
     15 C           5.9291    1.6823   -0.1500 C.ar    1  LIG1        0.0360
     16 S           4.4779    2.4746    0.3486 S.2     1  LIG1       -0.0868
     17 H           3.8521   -0.7884   -1.0415 H       1  LIG1        0.0629
     18 H           6.4295   -0.2094   -1.0533 H       1  LIG1        0.0630
     19 C           7.2297    2.3359    0.0121 C.ar    1  LIG1        0.0531
     20 C           7.6180    3.6475   -0.1592 C.ar    1  LIG1       -0.0359
     21 C           9.0086    3.7167    0.1281 C.ar    1  LIG1       -0.0438
     22 C           9.4181    2.4482    0.4649 C.ar    1  LIG1        0.0022
     23 N           8.3352    1.6236    0.3891 N.ar    1  LIG1       -0.3603
     24 H           8.3127    0.6511    0.6504 H       1  LIG1        0.1653
     25 H          10.3850    2.0749    0.7541 H       1  LIG1        0.0807
     26 H           6.9756    4.4494   -0.4827 H       1  LIG1        0.0639
     27 H           9.6356    4.5910    0.0855 H       1  LIG1        0.0633
@<TRIPOS>BOND
     1    18    14    1
     2    17    13    1
     3    14    13   ar
     4    14    15   ar
     5    13    12   ar
     6    11     7    1
     7    26    20    1
     8     8     6    1
     9     7     6   ar
    10     7     4   ar
    11    20    19   ar
    12    20    21   ar
    13    12     4    1
    14    12    16   ar
    15    15    19    1
    16    15    16   ar
    17     6     3   ar
    18     4     2   ar
    19    19    23   ar
    20    27    21    1
    21    21    22   ar
    22     3     9    1
    23     3     1   ar
    24     2     1   ar
    25     2     5    1
    26    23    22   ar
    27    23    24    1
    28     1    10    1
    29    22    25    1
