@<TRIPOS>MOLECULE
mol_data/opt/m06hf/geoms/mol2/455-.out
 26 28 0 0 0
SMALL
GASTEIGER

@<TRIPOS>ATOM
      1 C          -0.0558    0.0909    0.5774 C.ar    1  LIG1       -0.0612
      2 C           1.3320    0.0817    0.4951 C.ar    1  LIG1       -0.0535
      3 C          -0.7751    1.2047    0.1499 C.ar    1  LIG1       -0.0617
      4 C           2.0151    1.1825   -0.0314 C.ar    1  LIG1       -0.0113
      5 H           1.8969   -0.7676    0.8570 H       1  LIG1        0.0624
      6 C          -0.0993    2.3082   -0.3649 C.ar    1  LIG1       -0.0612
      7 C           1.2884    2.2976   -0.4595 C.ar    1  LIG1       -0.0535
      8 H          -0.6526    3.1750   -0.7016 H       1  LIG1        0.0618
      9 H          -1.8547    1.2139    0.2209 H       1  LIG1        0.0618
     10 H          -0.5747   -0.7659    0.9870 H       1  LIG1        0.0618
     11 H           1.8115    3.1456   -0.8841 H       1  LIG1        0.0624
     12 C           3.4911    1.1460   -0.1317 C.ar    1  LIG1        0.0199
     13 C           4.2810    0.0887   -0.4778 C.ar    1  LIG1       -0.0463
     14 C           5.6751    0.4046   -0.4655 C.ar    1  LIG1       -0.0458
     15 C           5.9236    1.6995   -0.1082 C.ar    1  LIG1        0.0265
     16 S           4.4503    2.5449    0.2241 S.2     1  LIG1       -0.0877
     17 H           3.8817   -0.8741   -0.7621 H       1  LIG1        0.0629
     18 H           6.4532   -0.2996   -0.7250 H       1  LIG1        0.0629
     19 C           7.2184    2.3753    0.0148 C.ar    1  LIG1        0.0259
     20 C           7.4641    3.6912    0.2854 C.ar    1  LIG1       -0.0464
     21 C           8.8627    3.9983    0.3330 C.ar    1  LIG1       -0.0541
     22 C           9.6411    2.9107    0.0963 C.ar    1  LIG1       -0.0237
     23 S           8.6975    1.4962   -0.1835 S.2     1  LIG1       -0.0961
     24 H          10.7172    2.8531    0.0701 H       1  LIG1        0.0693
     25 H           6.6825    4.4214    0.4418 H       1  LIG1        0.0629
     26 H           9.2549    4.9838    0.5330 H       1  LIG1        0.0623
@<TRIPOS>BOND
     1    11     7    1
     2    17    13    1
     3    18    14    1
     4     8     6    1
     5    13    14   ar
     6    13    12   ar
     7    14    15   ar
     8     7     6   ar
     9     7     4   ar
    10     6     3   ar
    11    23    19   ar
    12    23    22   ar
    13    12     4    1
    14    12    16   ar
    15    15    19    1
    16    15    16   ar
    17     4     2   ar
    18    19    20   ar
    19    24    22    1
    20    22    21   ar
    21     3     9    1
    22     3     1   ar
    23    20    21   ar
    24    20    25    1
    25    21    26    1
    26     2     1   ar
    27     2     5    1
    28     1    10    1
