@<TRIPOS>MOLECULE
mol_data/opt/m06hf/geoms/mol2/455.out
 26 28 0 0 0
SMALL
GASTEIGER

@<TRIPOS>ATOM
      1 C          -0.0385    0.0318    0.4892 C.ar    1  LIG1       -0.0612
      2 C           1.3455    0.0161    0.3570 C.ar    1  LIG1       -0.0535
      3 C          -0.7512    1.2049    0.2525 C.ar    1  LIG1       -0.0617
      4 C           2.0307    1.1719   -0.0287 C.ar    1  LIG1       -0.0113
      5 H           1.9060   -0.8840    0.5745 H       1  LIG1        0.0624
      6 C          -0.0728    2.3616   -0.1223 C.ar    1  LIG1       -0.0612
      7 C           1.3104    2.3461   -0.2666 C.ar    1  LIG1       -0.0535
      8 H          -0.6209    3.2752   -0.3115 H       1  LIG1        0.0618
      9 H          -1.8274    1.2181    0.3633 H       1  LIG1        0.0618
     10 H          -0.5585   -0.8682    0.7904 H       1  LIG1        0.0618
     11 H           1.8337    3.2402   -0.5826 H       1  LIG1        0.0624
     12 C           3.5033    1.1369   -0.1788 C.ar    1  LIG1        0.0199
     13 C           4.2710    0.1255   -0.6810 C.ar    1  LIG1       -0.0463
     14 C           5.6672    0.4325   -0.6823 C.ar    1  LIG1       -0.0458
     15 C           5.9362    1.6704   -0.1729 C.ar    1  LIG1        0.0265
     16 S           4.4846    2.4703    0.3241 S.2     1  LIG1       -0.0877
     17 H           3.8511   -0.7890   -1.0743 H       1  LIG1        0.0629
     18 H           6.4374   -0.2161   -1.0732 H       1  LIG1        0.0629
     19 C           7.2573    2.2878   -0.0058 C.ar    1  LIG1        0.0259
     20 C           8.3987    1.6776    0.4283 C.ar    1  LIG1       -0.0464
     21 C           9.5247    2.5628    0.4510 C.ar    1  LIG1       -0.0541
     22 C           9.2037    3.8196    0.0423 C.ar    1  LIG1       -0.0237
     23 S           7.5453    3.9486   -0.3944 S.2     1  LIG1       -0.0961
     24 H           9.8491    4.6799   -0.0286 H       1  LIG1        0.0693
     25 H           8.4222    0.6451    0.7444 H       1  LIG1        0.0629
     26 H          10.5147    2.2735    0.7697 H       1  LIG1        0.0623
@<TRIPOS>BOND
     1    17    13    1
     2    18    14    1
     3    14    13   ar
     4    14    15   ar
     5    13    12   ar
     6    11     7    1
     7    23    19   ar
     8    23    22   ar
     9     8     6    1
    10     7     6   ar
    11     7     4   ar
    12    12     4    1
    13    12    16   ar
    14    15    19    1
    15    15    16   ar
    16     6     3   ar
    17     4     2   ar
    18    24    22    1
    19    19    20   ar
    20    22    21   ar
    21     3     9    1
    22     3     1   ar
    23     2     1   ar
    24     2     5    1
    25    20    21   ar
    26    20    25    1
    27    21    26    1
    28     1    10    1
