@<TRIPOS>MOLECULE
mol_data/opt/m06hf/geoms/mol2/4554-.out
 36 39 0 0 0
SMALL
GASTEIGER

@<TRIPOS>ATOM
      1 C          -0.0921   -0.2008    0.5314 C.ar    1  LIG1       -0.0612
      2 C           1.2744   -0.1497    0.2806 C.ar    1  LIG1       -0.0535
      3 C          -0.8362    0.9747    0.6006 C.ar    1  LIG1       -0.0617
      4 C           1.9097    1.0795    0.0787 C.ar    1  LIG1       -0.0113
      5 H           1.8620   -1.0588    0.2631 H       1  LIG1        0.0624
      6 C          -0.2065    2.2023    0.4132 C.ar    1  LIG1       -0.0612
      7 C           1.1580    2.2559    0.1485 C.ar    1  LIG1       -0.0535
      8 H          -0.7792    3.1193    0.4626 H       1  LIG1        0.0618
      9 H          -1.8982    0.9341    0.8032 H       1  LIG1        0.0618
     10 H          -0.5735   -1.1577    0.6867 H       1  LIG1        0.0618
     11 H           1.6406    3.2104   -0.0235 H       1  LIG1        0.0624
     12 C           3.3616    1.1158   -0.2055 C.ar    1  LIG1        0.0199
     13 C           4.0944    0.2274   -0.9404 C.ar    1  LIG1       -0.0463
     14 C           5.4802    0.5707   -1.0115 C.ar    1  LIG1       -0.0458
     15 C           5.7772    1.7117   -0.3219 C.ar    1  LIG1        0.0265
     16 S           4.3668    2.3723    0.4300 S.2     1  LIG1       -0.0877
     17 H           3.6530   -0.6185   -1.4475 H       1  LIG1        0.0629
     18 H           6.2203    0.0207   -1.5735 H       1  LIG1        0.0629
     19 C           7.0994    2.3286   -0.1663 C.ar    1  LIG1        0.0265
     20 C           8.2809    1.6849    0.0651 C.ar    1  LIG1       -0.0458
     21 C           9.3922    2.5810    0.1416 C.ar    1  LIG1       -0.0463
     22 C           9.0347    3.8888   -0.0204 C.ar    1  LIG1        0.0199
     23 S           7.3310    4.0382   -0.2838 S.2     1  LIG1       -0.0877
     24 H           8.3455    0.6143    0.1928 H       1  LIG1        0.0629
     25 H          10.4151    2.2679    0.2938 H       1  LIG1        0.0629
     26 C           9.7143    6.1475   -0.8675 C.ar    1  LIG1       -0.0535
     27 C          10.5570    7.2533   -0.8310 C.ar    1  LIG1       -0.0612
     28 C           9.9142    5.0798    0.0122 C.ar    1  LIG1       -0.0113
     29 C          11.6112    7.3009    0.0772 C.ar    1  LIG1       -0.0617
     30 H          10.3951    8.0730   -1.5188 H       1  LIG1        0.0618
     31 C          10.9667    5.1383    0.9302 C.ar    1  LIG1       -0.0535
     32 C          11.8145    6.2399    0.9563 C.ar    1  LIG1       -0.0612
     33 H          11.1011    4.3269    1.6341 H       1  LIG1        0.0624
     34 H          12.2680    8.1604    0.1021 H       1  LIG1        0.0618
     35 H           8.9109    6.1008   -1.5925 H       1  LIG1        0.0624
     36 H          12.6262    6.2749    1.6714 H       1  LIG1        0.0618
@<TRIPOS>BOND
     1    35    26    1
     2    18    14    1
     3    30    27    1
     4    17    13    1
     5    14    13   ar
     6    14    15   ar
     7    13    12   ar
     8    26    27   ar
     9    26    28   ar
    10    27    29   ar
    11    15    19    1
    12    15    16   ar
    13    23    19   ar
    14    23    22   ar
    15    12     4    1
    16    12    16   ar
    17    19    20   ar
    18    11     7    1
    19    22    28    1
    20    22    21   ar
    21    28    31   ar
    22    20    21   ar
    23    20    24    1
    24    29    34    1
    25    29    32   ar
    26     4     7   ar
    27     4     2   ar
    28    21    25    1
    29     7     6   ar
    30     5     2    1
    31     2     1   ar
    32     6     8    1
    33     6     3   ar
    34     1     3   ar
    35     1    10    1
    36     3     9    1
    37    31    32   ar
    38    31    33    1
    39    32    36    1
