@<TRIPOS>MOLECULE
mol_data/opt/m06hf/geoms/mol2/4555-.out
 33 36 0 0 0
SMALL
GASTEIGER

@<TRIPOS>ATOM
      1 C          -0.1213   -0.0594    0.4960 C.ar    1  LIG1       -0.0612
      2 C           1.2664   -0.0514    0.4103 C.ar    1  LIG1       -0.0535
      3 C          -0.8512    1.0741    0.1464 C.ar    1  LIG1       -0.0617
      4 C           1.9375    1.0884   -0.0426 C.ar    1  LIG1       -0.0113
      5 H           1.8398   -0.9186    0.7115 H       1  LIG1        0.0624
      6 C          -0.1870    2.2159   -0.2943 C.ar    1  LIG1       -0.0612
      7 C           1.2004    2.2236   -0.3914 C.ar    1  LIG1       -0.0535
      8 H          -0.7488    3.0982   -0.5709 H       1  LIG1        0.0618
      9 H          -1.9307    1.0681    0.2196 H       1  LIG1        0.0618
     10 H          -0.6322   -0.9460    0.8483 H       1  LIG1        0.0618
     11 H           1.7155    3.1025   -0.7591 H       1  LIG1        0.0624
     12 C           3.4133    1.0769   -0.1551 C.ar    1  LIG1        0.0199
     13 C           4.2116    0.0599   -0.5956 C.ar    1  LIG1       -0.0463
     14 C           5.5999    0.4000   -0.5961 C.ar    1  LIG1       -0.0458
     15 C           5.8331    1.6677   -0.1438 C.ar    1  LIG1        0.0265
     16 S           4.3553    2.4572    0.2923 S.2     1  LIG1       -0.0877
     17 H           3.8173   -0.8818   -0.9497 H       1  LIG1        0.0629
     18 H           6.3890   -0.2482   -0.9483 H       1  LIG1        0.0629
     19 C           7.1356    2.3220    0.0117 C.ar    1  LIG1        0.0265
     20 C           8.3043    1.7381    0.4107 C.ar    1  LIG1       -0.0458
     21 C           9.3986    2.6562    0.4456 C.ar    1  LIG1       -0.0458
     22 C           9.0373    3.9225    0.0816 C.ar    1  LIG1        0.0265
     23 S           7.3633    4.0012   -0.3438 S.2     1  LIG1       -0.0872
     24 H           8.3680    0.7006    0.7031 H       1  LIG1        0.0629
     25 H          10.3982    2.3983    0.7644 H       1  LIG1        0.0629
     26 C           9.8762    5.1236    0.0221 C.ar    1  LIG1        0.0259
     27 C           9.5212    6.4169    0.2805 C.ar    1  LIG1       -0.0464
     28 C          10.6145    7.3295    0.1276 C.ar    1  LIG1       -0.0541
     29 C          11.7649    6.7043   -0.2393 C.ar    1  LIG1       -0.0237
     30 S          11.5430    5.0089   -0.4231 S.2     1  LIG1       -0.0961
     31 H          12.7324    7.1446   -0.4168 H       1  LIG1        0.0693
     32 H           8.5273    6.7033    0.5927 H       1  LIG1        0.0629
     33 H          10.5396    8.3933    0.2948 H       1  LIG1        0.0623
@<TRIPOS>BOND
     1    17    13    1
     2    18    14    1
     3    11     7    1
     4    14    13   ar
     5    14    15   ar
     6    13    12   ar
     7     8     6    1
     8    30    29   ar
     9    30    26   ar
    10    31    29    1
    11     7     6   ar
    12     7     4   ar
    13    23    19   ar
    14    23    22   ar
    15     6     3   ar
    16    29    28   ar
    17    12     4    1
    18    12    16   ar
    19    15    19    1
    20    15    16   ar
    21     4     2   ar
    22    19    20   ar
    23    26    22    1
    24    26    27   ar
    25    22    21   ar
    26    28    27   ar
    27    28    33    1
    28     3     9    1
    29     3     1   ar
    30    27    32    1
    31     2     1   ar
    32     2     5    1
    33    20    21   ar
    34    20    24    1
    35    21    25    1
    36     1    10    1
