@<TRIPOS>MOLECULE
mol_data/opt/m06hf/geoms/mol2/4558.out
 32 35 0 0 0
SMALL
GASTEIGER

@<TRIPOS>ATOM
      1 C          -0.0822   -0.0161    0.5500 C.ar    1  LIG1       -0.0612
      2 C           1.3017   -0.0244    0.4148 C.ar    1  LIG1       -0.0535
      3 C          -0.8071    1.1389    0.2655 C.ar    1  LIG1       -0.0617
      4 C           1.9728    1.1216   -0.0221 C.ar    1  LIG1       -0.0113
      5 H           1.8723   -0.9088    0.6671 H       1  LIG1        0.0624
      6 C          -0.1423    2.2857   -0.1611 C.ar    1  LIG1       -0.0612
      7 C           1.2407    2.2777   -0.3079 C.ar    1  LIG1       -0.0535
      8 H          -0.7004    3.1844   -0.3876 H       1  LIG1        0.0618
      9 H          -1.8831    1.1452    0.3784 H       1  LIG1        0.0618
     10 H          -0.5935   -0.9069    0.8909 H       1  LIG1        0.0618
     11 H           1.7551    3.1619   -0.6640 H       1  LIG1        0.0624
     12 C           3.4449    1.0982   -0.1760 C.ar    1  LIG1        0.0199
     13 C           4.2249    0.0870   -0.6618 C.ar    1  LIG1       -0.0463
     14 C           5.6160    0.4131   -0.6746 C.ar    1  LIG1       -0.0458
     15 C           5.8683    1.6653   -0.1883 C.ar    1  LIG1        0.0265
     16 S           4.4059    2.4551    0.2946 S.2     1  LIG1       -0.0877
     17 H           3.8154   -0.8403   -1.0352 H       1  LIG1        0.0629
     18 H           6.3917   -0.2330   -1.0590 H       1  LIG1        0.0629
     19 C           7.1780    2.3070   -0.0389 C.ar    1  LIG1        0.0266
     20 C           8.3577    1.6923    0.2917 C.ar    1  LIG1       -0.0457
     21 C           9.4495    2.6041    0.3488 C.ar    1  LIG1       -0.0432
     22 C           9.0629    3.8859    0.0727 C.ar    1  LIG1        0.0604
     23 S           7.3808    4.0021   -0.2850 S.2     1  LIG1       -0.0845
     24 H           8.4276    0.6383    0.5145 H       1  LIG1        0.0629
     25 H          10.4681    2.3444    0.5962 H       1  LIG1        0.0630
     26 C           9.9141    5.0749    0.0617 C.ar    1  LIG1        0.2098
     27 N          11.2189    4.9178    0.3136 N.ar    1  LIG1       -0.1253
     28 C          11.3834    7.1478    0.0459 C.ar    1  LIG1        0.1605
     29 N           9.3372    6.2512   -0.1986 N.ar    1  LIG1       -0.1253
     30 N          11.9661    5.9781    0.3050 N.ar    1  LIG1       -0.1339
     31 N          10.0883    7.3107   -0.2066 N.ar    1  LIG1       -0.1339
     32 H          12.0101    8.0265    0.0407 H       1  LIG1        0.1085
@<TRIPOS>BOND
     1    18    14    1
     2    17    13    1
     3    14    13   ar
     4    14    15   ar
     5    11     7    1
     6    13    12   ar
     7     8     6    1
     8     7     6   ar
     9     7     4   ar
    10    23    19   ar
    11    23    22   ar
    12    31    29   ar
    13    31    28   ar
    14    29    26   ar
    15    15    19    1
    16    15    16   ar
    17    12     4    1
    18    12    16   ar
    19     6     3   ar
    20    19    20   ar
    21     4     2   ar
    22    32    28    1
    23    28    30   ar
    24    26    22    1
    25    26    27   ar
    26    22    21   ar
    27     3     9    1
    28     3     1   ar
    29    20    21   ar
    30    20    24    1
    31    30    27   ar
    32    21    25    1
    33     2     1   ar
    34     2     5    1
    35     1    10    1
