@<TRIPOS>MOLECULE
mol_data/opt/m06hf/geoms/mol2/458-.out
 25 27 0 0 0
SMALL
GASTEIGER

@<TRIPOS>ATOM
      1 C          -0.0240    0.0998    0.5544 C.ar    1  LIG1       -0.0612
      2 C           1.3634    0.0837    0.4669 C.ar    1  LIG1       -0.0535
      3 C          -0.7368    1.2294    0.1589 C.ar    1  LIG1       -0.0617
      4 C           2.0503    1.1952   -0.0302 C.ar    1  LIG1       -0.0113
      5 H           1.9234   -0.7794    0.8029 H       1  LIG1        0.0624
      6 C          -0.0563    2.3423   -0.3285 C.ar    1  LIG1       -0.0612
      7 C           1.3310    2.3264   -0.4265 C.ar    1  LIG1       -0.0535
      8 H          -0.6052    3.2212   -0.6399 H       1  LIG1        0.0618
      9 H          -1.8162    1.2431    0.2332 H       1  LIG1        0.0618
     10 H          -0.5472   -0.7645    0.9422 H       1  LIG1        0.0618
     11 H           1.8576    3.1833   -0.8284 H       1  LIG1        0.0624
     12 C           3.5271    1.1552   -0.1294 C.ar    1  LIG1        0.0200
     13 C           4.3073    0.0932   -0.5030 C.ar    1  LIG1       -0.0462
     14 C           5.6987    0.3958   -0.4761 C.ar    1  LIG1       -0.0432
     15 C           5.9371    1.6830   -0.0836 C.ar    1  LIG1        0.0604
     16 S           4.4815    2.5399    0.2640 S.2     1  LIG1       -0.0850
     17 H           3.8983   -0.8575   -0.8123 H       1  LIG1        0.0629
     18 H           6.4926   -0.2881   -0.7380 H       1  LIG1        0.0630
     19 C           7.2443    2.3225    0.0590 C.ar    1  LIG1        0.2098
     20 N           7.2787    3.5999    0.4481 N.ar    1  LIG1       -0.1253
     21 C           9.5167    3.4290    0.3193 C.ar    1  LIG1        0.1605
     22 N           8.3320    1.5883   -0.2059 N.ar    1  LIG1       -0.1253
     23 N           8.4413    4.1648    0.5815 N.ar    1  LIG1       -0.1339
     24 N           9.4907    2.1556   -0.0724 N.ar    1  LIG1       -0.1339
     25 H          10.4830    3.8969    0.4323 H       1  LIG1        0.1085
@<TRIPOS>BOND
     1    11     7    1
     2    17    13    1
     3    18    14    1
     4     8     6    1
     5    13    14   ar
     6    13    12   ar
     7    14    15   ar
     8     7     6   ar
     9     7     4   ar
    10     6     3   ar
    11    22    24   ar
    12    22    19   ar
    13    12     4    1
    14    12    16   ar
    15    15    19    1
    16    15    16   ar
    17    24    21   ar
    18     4     2   ar
    19    19    20   ar
    20     3     9    1
    21     3     1   ar
    22    21    25    1
    23    21    23   ar
    24    20    23   ar
    25     2     1   ar
    26     2     5    1
    27     1    10    1
