@<TRIPOS>MOLECULE
mol_data/opt/m06hf/geoms/mol2/458.out
 25 27 0 0 0
SMALL
GASTEIGER

@<TRIPOS>ATOM
      1 C          -0.0242    0.1000    0.5540 C.ar    1  LIG1       -0.0612
      2 C           1.3633    0.0839    0.4669 C.ar    1  LIG1       -0.0535
      3 C          -0.7368    1.2294    0.1574 C.ar    1  LIG1       -0.0617
      4 C           2.0503    1.1951   -0.0307 C.ar    1  LIG1       -0.0113
      5 H           1.9232   -0.7789    0.8038 H       1  LIG1        0.0624
      6 C          -0.0562    2.3419   -0.3305 C.ar    1  LIG1       -0.0612
      7 C           1.3311    2.3261   -0.4280 C.ar    1  LIG1       -0.0535
      8 H          -0.6051    3.2206   -0.6427 H       1  LIG1        0.0618
      9 H          -1.8163    1.2430    0.2313 H       1  LIG1        0.0618
     10 H          -0.5474   -0.7640    0.9421 H       1  LIG1        0.0618
     11 H           1.8578    3.1827   -0.8303 H       1  LIG1        0.0624
     12 C           3.5272    1.1551   -0.1293 C.ar    1  LIG1        0.0200
     13 C           4.3075    0.0929   -0.5019 C.ar    1  LIG1       -0.0462
     14 C           5.6989    0.3956   -0.4747 C.ar    1  LIG1       -0.0432
     15 C           5.9371    1.6831   -0.0830 C.ar    1  LIG1        0.0604
     16 S           4.4813    2.5401    0.2636 S.2     1  LIG1       -0.0850
     17 H           3.8987   -0.8581   -0.8107 H       1  LIG1        0.0629
     18 H           6.4929   -0.2885   -0.7359 H       1  LIG1        0.0630
     19 C           7.2442    2.3227    0.0596 C.ar    1  LIG1        0.2098
     20 N           8.3321    1.5884   -0.2044 N.ar    1  LIG1       -0.1253
     21 C           9.5165    3.4295    0.3200 C.ar    1  LIG1        0.1605
     22 N           7.2784    3.6004    0.4479 N.ar    1  LIG1       -0.1253
     23 N           9.4907    2.1559   -0.0708 N.ar    1  LIG1       -0.1339
     24 N           8.4409    4.1655    0.5813 N.ar    1  LIG1       -0.1339
     25 H          10.4827    3.8975    0.4330 H       1  LIG1        0.1085
@<TRIPOS>BOND
     1    11     7    1
     2    17    13    1
     3    18    14    1
     4     8     6    1
     5    13    14   ar
     6    13    12   ar
     7    14    15   ar
     8     7     6   ar
     9     7     4   ar
    10     6     3   ar
    11    20    23   ar
    12    20    19   ar
    13    12     4    1
    14    12    16   ar
    15    15    19    1
    16    15    16   ar
    17    23    21   ar
    18     4     2   ar
    19    19    22   ar
    20     3     9    1
    21     3     1   ar
    22    21    25    1
    23    21    24   ar
    24    22    24   ar
    25     2     1   ar
    26     2     5    1
    27     1    10    1
