@<TRIPOS>MOLECULE
mol_data/opt/m06hf/geoms/mol2/48-1212.out
 32 35 0 0 0
SMALL
GASTEIGER

@<TRIPOS>ATOM
      1 C          -0.0563   -0.1068    0.0000 C.ar    1  LIG1       -0.0611
      2 C           1.3333   -0.0696   -0.0001 C.ar    1  LIG1       -0.0509
      3 C          -0.7873    1.0794    0.0001 C.ar    1  LIG1       -0.0617
      4 C           1.9901    1.1620   -0.0002 C.ar    1  LIG1        0.0226
      5 H           1.9177   -0.9798   -0.0002 H       1  LIG1        0.0625
      6 C          -0.1275    2.3065    0.0000 C.ar    1  LIG1       -0.0611
      7 C           1.2618    2.3533   -0.0001 C.ar    1  LIG1       -0.0509
      8 H          -0.6956    3.2275    0.0000 H       1  LIG1        0.0618
      9 H          -1.8692    1.0477    0.0002 H       1  LIG1        0.0618
     10 H          -0.5677   -1.0602    0.0001 H       1  LIG1        0.0618
     11 H           1.7898    3.2974   -0.0002 H       1  LIG1        0.0625
     12 C           3.4730    1.2049   -0.0003 C.ar    1  LIG1        0.2034
     13 N           4.0774    2.3945   -0.0004 N.ar    1  LIG1       -0.1251
     14 C           6.0293    1.2759   -0.0005 C.ar    1  LIG1        0.2381
     15 N           4.1419    0.0440   -0.0003 N.ar    1  LIG1       -0.1251
     16 N           5.3748    2.4380   -0.0005 N.ar    1  LIG1       -0.1220
     17 N           5.4338    0.0779   -0.0005 N.ar    1  LIG1       -0.1220
     18 C           7.4893    1.2721   -0.0007 C.ar    1  LIG1        0.1761
     19 C           8.3730    0.2348   -0.0007 C.ar    1  LIG1       -0.0119
     20 C           9.6691    0.8319   -0.0007 C.ar    1  LIG1       -0.0121
     21 C           9.4568    2.1817   -0.0010 C.ar    1  LIG1        0.1707
     22 O           8.1406    2.4508   -0.0009 O.2     1  LIG1       -0.4485
     23 H           8.1158   -0.8102   -0.0006 H       1  LIG1        0.0657
     24 H          10.6229    0.3337   -0.0007 H       1  LIG1        0.0657
     25 C          10.3772    3.3098   -0.0012 C.ar    1  LIG1        0.1697
     26 C          11.7368    3.3746   -0.0012 C.ar    1  LIG1       -0.0128
     27 C          12.0584    4.7731   -0.0018 C.ar    1  LIG1       -0.0232
     28 C          10.8696    5.4267   -0.0014 C.ar    1  LIG1        0.0927
     29 O           9.8490    4.5484   -0.0014 O.2     1  LIG1       -0.4598
     30 H          10.6005    6.4679   -0.0015 H       1  LIG1        0.1029
     31 H          12.4191    2.5423   -0.0010 H       1  LIG1        0.0656
     32 H          13.0374    5.2196   -0.0021 H       1  LIG1        0.0649
@<TRIPOS>BOND
     1    32    27    1
     2    27    28   ar
     3    27    26   ar
     4    30    28    1
     5    28    29   ar
     6    29    25   ar
     7    26    25   ar
     8    26    31    1
     9    25    21    1
    10    21    22   ar
    11    21    20   ar
    12    22    18   ar
    13    19    20   ar
    14    19    18   ar
    15    19    23    1
    16    20    24    1
    17    18    14    1
    18    16    14   ar
    19    16    13   ar
    20    14    17   ar
    21    17    15   ar
    22    13    12   ar
    23    15    12   ar
    24    12     4    1
    25    11     7    1
    26     4     7   ar
    27     4     2   ar
    28     5     2    1
    29     7     6   ar
    30     2     1   ar
    31     6     8    1
    32     6     3   ar
    33     1     3   ar
    34     1    10    1
    35     3     9    1
