@<TRIPOS>MOLECULE
mol_data/opt/m06hf/geoms/mol2/48-1213.out
 33 36 0 0 0
SMALL
GASTEIGER

@<TRIPOS>ATOM
      1 C          -0.0589   -0.0396   -0.0002 C.ar    1  LIG1       -0.0611
      2 C           1.3312   -0.0352   -0.0003 C.ar    1  LIG1       -0.0509
      3 C          -0.7617    1.1634    0.0000 C.ar    1  LIG1       -0.0617
      4 C           2.0169    1.1805   -0.0002 C.ar    1  LIG1        0.0226
      5 H           1.8940   -0.9591   -0.0004 H       1  LIG1        0.0625
      6 C          -0.0733    2.3746    0.0000 C.ar    1  LIG1       -0.0611
      7 C           1.3166    2.3885   -0.0001 C.ar    1  LIG1       -0.0509
      8 H          -0.6195    3.3087    0.0002 H       1  LIG1        0.0618
      9 H          -1.8441    1.1571    0.0001 H       1  LIG1        0.0618
     10 H          -0.5925   -0.9808   -0.0002 H       1  LIG1        0.0618
     11 H           1.8665    3.3201   -0.0000 H       1  LIG1        0.0625
     12 C           3.5003    1.1890   -0.0003 C.ar    1  LIG1        0.2034
     13 N           4.1323    2.3637   -0.0003 N.ar    1  LIG1       -0.1251
     14 C           6.0589    1.1987   -0.0005 C.ar    1  LIG1        0.2381
     15 N           4.1426    0.0124   -0.0004 N.ar    1  LIG1       -0.1251
     16 N           5.4306    2.3759   -0.0004 N.ar    1  LIG1       -0.1220
     17 N           5.4345    0.0144   -0.0005 N.ar    1  LIG1       -0.1220
     18 C           7.5156    1.1715   -0.0006 C.ar    1  LIG1        0.1760
     19 C           8.3982    0.1347   -0.0007 C.ar    1  LIG1       -0.0120
     20 C           9.6993    0.7258   -0.0007 C.ar    1  LIG1       -0.0137
     21 C           9.4980    2.0768   -0.0008 C.ar    1  LIG1        0.1519
     22 O           8.1771    2.3497   -0.0007 O.2     1  LIG1       -0.4501
     23 H           8.1378   -0.9097   -0.0006 H       1  LIG1        0.0657
     24 H          10.6503    0.2230   -0.0008 H       1  LIG1        0.0656
     25 C          10.3825    3.2297   -0.0009 C.ar    1  LIG1        0.0821
     26 C          11.7586    3.3312   -0.0009 C.ar    1  LIG1       -0.0334
     27 C          12.0706    4.7149   -0.0013 C.ar    1  LIG1       -0.0437
     28 C          10.8773    5.4034   -0.0009 C.ar    1  LIG1        0.0023
     29 N           9.8667    4.4941   -0.0008 N.ar    1  LIG1       -0.3583
     30 H           8.8776    4.6933   -0.0007 H       1  LIG1        0.1654
     31 H          10.6768    6.4606   -0.0008 H       1  LIG1        0.0807
     32 H          12.4499    2.5055   -0.0010 H       1  LIG1        0.0640
     33 H          13.0528    5.1555   -0.0017 H       1  LIG1        0.0633
@<TRIPOS>BOND
     1    33    27    1
     2    27    26   ar
     3    27    28   ar
     4    32    26    1
     5    26    25   ar
     6    28    31    1
     7    28    29   ar
     8    25    29   ar
     9    25    21    1
    10    29    30    1
    11    24    20    1
    12    21    20   ar
    13    21    22   ar
    14    20    19   ar
    15    22    18   ar
    16    19    23    1
    17    19    18   ar
    18    18    14    1
    19    17    14   ar
    20    17    15   ar
    21    14    16   ar
    22    15    12   ar
    23    16    13   ar
    24     5     2    1
    25    13    12   ar
    26    12     4    1
    27     2     4   ar
    28     2     1   ar
    29     4     7   ar
    30    10     1    1
    31     1     3   ar
    32     7    11    1
    33     7     6   ar
    34     3     6   ar
    35     3     9    1
    36     6     8    1
