@<TRIPOS>MOLECULE
mol_data/opt/m06hf/geoms/mol2/48-12.out
 25 27 0 0 0
SMALL
GASTEIGER

@<TRIPOS>ATOM
      1 C           0.0024    0.0233    0.0003 C.ar    1  LIG1       -0.0611
      2 C           1.3927    0.0111    0.0001 C.ar    1  LIG1       -0.0509
      3 C          -0.6863    1.2343    0.0002 C.ar    1  LIG1       -0.0617
      4 C           2.0919    1.2193   -0.0002 C.ar    1  LIG1        0.0226
      5 H           1.9421   -0.9203    0.0003 H       1  LIG1        0.0625
      6 C           0.0157    2.4379   -0.0002 C.ar    1  LIG1       -0.0611
      7 C           1.4060    2.4352   -0.0003 C.ar    1  LIG1       -0.0509
      8 H          -0.5181    3.3786   -0.0003 H       1  LIG1        0.0618
      9 H          -1.7687    1.2403    0.0003 H       1  LIG1        0.0618
     10 H          -0.5416   -0.9116    0.0006 H       1  LIG1        0.0618
     11 H           1.9657    3.3606   -0.0006 H       1  LIG1        0.0625
     12 C           3.5761    1.2110   -0.0004 C.ar    1  LIG1        0.2034
     13 N           4.2202    2.3801   -0.0007 N.ar    1  LIG1       -0.1251
     14 C           6.1333    1.1963   -0.0007 C.ar    1  LIG1        0.2381
     15 N           4.2057    0.0295   -0.0002 N.ar    1  LIG1       -0.1251
     16 N           5.5178    2.3789   -0.0008 N.ar    1  LIG1       -0.1220
     17 N           5.4983    0.0194   -0.0004 N.ar    1  LIG1       -0.1220
     18 C           7.5951    1.1499   -0.0009 C.ar    1  LIG1        0.1751
     19 C           8.4537    0.0945   -0.0008 C.ar    1  LIG1       -0.0126
     20 C           9.7665    0.6686   -0.0011 C.ar    1  LIG1       -0.0232
     21 C           9.5809    2.0148   -0.0012 C.ar    1  LIG1        0.0927
     22 O           8.2714    2.3133   -0.0012 O.2     1  LIG1       -0.4597
     23 H          10.2591    2.8498   -0.0014 H       1  LIG1        0.1029
     24 H           8.1730   -0.9450   -0.0006 H       1  LIG1        0.0656
     25 H          10.7095    0.1508   -0.0011 H       1  LIG1        0.0649
@<TRIPOS>BOND
     1    23    21    1
     2    21    22   ar
     3    21    20   ar
     4    22    18   ar
     5    25    20    1
     6    20    19   ar
     7    18    19   ar
     8    18    14    1
     9    16    13   ar
    10    16    14   ar
    11    19    24    1
    12    13    12   ar
    13    14    17   ar
    14    11     7    1
    15    12    15   ar
    16    12     4    1
    17    17    15   ar
    18     7     4   ar
    19     7     6   ar
    20     8     6    1
    21     4     2   ar
    22     6     3   ar
    23     2     5    1
    24     2     1   ar
    25     3     9    1
    26     3     1   ar
    27     1    10    1
