@<TRIPOS>MOLECULE
mol_data/opt/m06hf/geoms/mol2/48-1212-.out
 32 35 0 0 0
SMALL
GASTEIGER

@<TRIPOS>ATOM
      1 C          -0.0486   -0.0623    0.0001 C.ar    1  LIG1       -0.0611
      2 C           1.3413   -0.0420   -0.0001 C.ar    1  LIG1       -0.0509
      3 C          -0.7655    1.1324    0.0001 C.ar    1  LIG1       -0.0617
      4 C           2.0128    1.1818   -0.0002 C.ar    1  LIG1        0.0226
      5 H           1.9143   -0.9593   -0.0001 H       1  LIG1        0.0625
      6 C          -0.0911    2.3516   -0.0000 C.ar    1  LIG1       -0.0611
      7 C           1.2987    2.3815   -0.0002 C.ar    1  LIG1       -0.0509
      8 H          -0.6479    3.2793   -0.0000 H       1  LIG1        0.0618
      9 H          -1.8476    1.1137    0.0002 H       1  LIG1        0.0618
     10 H          -0.5713   -1.0095    0.0002 H       1  LIG1        0.0618
     11 H           1.8379    3.3193   -0.0003 H       1  LIG1        0.0625
     12 C           3.4961    1.2068   -0.0003 C.ar    1  LIG1        0.2034
     13 N           4.1154    2.3889   -0.0004 N.ar    1  LIG1       -0.1251
     14 C           6.0537    1.2461   -0.0005 C.ar    1  LIG1        0.2381
     15 N           4.1513    0.0380   -0.0003 N.ar    1  LIG1       -0.1251
     16 N           5.4130    2.4159   -0.0005 N.ar    1  LIG1       -0.1220
     17 N           5.4431    0.0556   -0.0004 N.ar    1  LIG1       -0.1220
     18 C           7.5131    1.2265   -0.0007 C.ar    1  LIG1        0.1761
     19 C           8.3894    0.1834   -0.0008 C.ar    1  LIG1       -0.0119
     20 C           9.6926    0.7699   -0.0007 C.ar    1  LIG1       -0.0121
     21 C           9.4884    2.1190   -0.0010 C.ar    1  LIG1        0.1707
     22 O           8.1744    2.4017   -0.0009 O.2     1  LIG1       -0.4485
     23 H           8.1230   -0.8593   -0.0007 H       1  LIG1        0.0657
     24 H          10.6473    0.2740   -0.0007 H       1  LIG1        0.0657
     25 C          10.4031    3.2466   -0.0012 C.ar    1  LIG1        0.1697
     26 C          10.2070    4.5912   -0.0014 C.ar    1  LIG1       -0.0128
     27 C          11.5220    5.1714   -0.0014 C.ar    1  LIG1       -0.0232
     28 C          12.3901    4.1298   -0.0015 C.ar    1  LIG1        0.0927
     29 O          11.7210    2.9583   -0.0011 O.2     1  LIG1       -0.4598
     30 H          13.4638    4.0645   -0.0016 H       1  LIG1        0.1029
     31 H           9.2544    5.0922   -0.0014 H       1  LIG1        0.0656
     32 H          11.7751    6.2170   -0.0015 H       1  LIG1        0.0649
@<TRIPOS>BOND
     1    30    28    1
     2    32    27    1
     3    28    27   ar
     4    28    29   ar
     5    31    26    1
     6    27    26   ar
     7    26    25   ar
     8    25    29   ar
     9    25    21    1
    10    21    22   ar
    11    21    20   ar
    12    22    18   ar
    13    19    20   ar
    14    19    18   ar
    15    19    23    1
    16    20    24    1
    17    18    14    1
    18    16    14   ar
    19    16    13   ar
    20    14    17   ar
    21    13    12   ar
    22    17    15   ar
    23    12    15   ar
    24    12     4    1
    25    11     7    1
    26     4     7   ar
    27     4     2   ar
    28     7     6   ar
    29     5     2    1
    30     2     1   ar
    31     6     8    1
    32     6     3   ar
    33     1     3   ar
    34     1    10    1
    35     3     9    1
