@<TRIPOS>MOLECULE
mol_data/opt/m06hf/geoms/mol2/48-13.out
 26 28 0 0 0
SMALL
GASTEIGER

@<TRIPOS>ATOM
      1 C          -0.0388    0.0700    0.0002 C.ar    1  LIG1       -0.0611
      2 C           1.3508    0.0217    0.0001 C.ar    1  LIG1       -0.0509
      3 C          -0.6963    1.2982    0.0000 C.ar    1  LIG1       -0.0617
      4 C           2.0820    1.2109   -0.0002 C.ar    1  LIG1        0.0226
      5 H           1.8761   -0.9234    0.0002 H       1  LIG1        0.0625
      6 C           0.0373    2.4829   -0.0002 C.ar    1  LIG1       -0.0611
      7 C           1.4271    2.4438   -0.0003 C.ar    1  LIG1       -0.0509
      8 H          -0.4718    3.4373   -0.0004 H       1  LIG1        0.0618
      9 H          -1.7781    1.3325    0.0001 H       1  LIG1        0.0618
     10 H          -0.6066   -0.8507    0.0004 H       1  LIG1        0.0618
     11 H           2.0098    3.3549   -0.0005 H       1  LIG1        0.0625
     12 C           3.5658    1.1623   -0.0003 C.ar    1  LIG1        0.2034
     13 N           4.2426    2.3119   -0.0004 N.ar    1  LIG1       -0.1252
     14 C           6.1278    1.0652   -0.0004 C.ar    1  LIG1        0.2194
     15 N           4.1629   -0.0370   -0.0001 N.ar    1  LIG1       -0.1252
     16 N           5.5381    2.2640   -0.0005 N.ar    1  LIG1       -0.1237
     17 N           5.4538   -0.0927   -0.0002 N.ar    1  LIG1       -0.1237
     18 C           7.5808    1.0297   -0.0005 C.ar    1  LIG1        0.0875
     19 C           8.4677   -0.0285   -0.0005 C.ar    1  LIG1       -0.0333
     20 C           9.7679    0.5304   -0.0005 C.ar    1  LIG1       -0.0437
     21 C           9.6233    1.9048   -0.0008 C.ar    1  LIG1        0.0023
     22 N           8.2986    2.1908   -0.0008 N.ar    1  LIG1       -0.3582
     23 H           7.8670    3.1034   -0.0009 H       1  LIG1        0.1654
     24 H          10.3631    2.6863   -0.0010 H       1  LIG1        0.0807
     25 H           8.1906   -1.0693   -0.0003 H       1  LIG1        0.0640
     26 H          10.7021   -0.0039   -0.0004 H       1  LIG1        0.0633
@<TRIPOS>BOND
     1    24    21    1
     2    23    22    1
     3    21    22   ar
     4    21    20   ar
     5    22    18   ar
     6    18    19   ar
     7    18    14    1
     8    16    13   ar
     9    16    14   ar
    10    11     7    1
    11    20    19   ar
    12    20    26    1
    13    19    25    1
    14    13    12   ar
    15    14    17   ar
    16     8     6    1
    17     7     6   ar
    18     7     4   ar
    19    12     4    1
    20    12    15   ar
    21     6     3   ar
    22    17    15   ar
    23     4     2   ar
    24     3     9    1
    25     3     1   ar
    26     2     1   ar
    27     2     5    1
    28     1    10    1
