@<TRIPOS>MOLECULE
mol_data/opt/m06hf/geoms/mol2/48-44-.out
 38 41 0 0 0
SMALL
GASTEIGER

@<TRIPOS>ATOM
      1 C          -0.1428    0.0900    0.2920 C.ar    1  LIG1       -0.0611
      2 C           1.2469    0.0537    0.2933 C.ar    1  LIG1       -0.0509
      3 C          -0.8116    1.2767   -0.0008 C.ar    1  LIG1       -0.0617
      4 C           1.9666    1.2132   -0.0003 C.ar    1  LIG1        0.0226
      5 H           1.7813   -0.8590    0.5187 H       1  LIG1        0.0625
      6 C          -0.0892    2.4316   -0.2933 C.ar    1  LIG1       -0.0611
      7 C           1.3008    2.4044   -0.2940 C.ar    1  LIG1       -0.0509
      8 H          -0.6071    3.3534   -0.5216 H       1  LIG1        0.0618
      9 H          -1.8936    1.3014   -0.0010 H       1  LIG1        0.0618
     10 H          -0.7023   -0.8071    0.5201 H       1  LIG1        0.0618
     11 H           1.8764    3.2918   -0.5193 H       1  LIG1        0.0625
     12 C           3.4505    1.1793    0.0000 C.ar    1  LIG1        0.2034
     13 N           4.1137    2.3058   -0.2760 N.ar    1  LIG1       -0.1252
     14 C           6.0193    1.1206    0.0005 C.ar    1  LIG1        0.2034
     15 N           4.0615    0.0237    0.2764 N.ar    1  LIG1       -0.1252
     16 N           5.4084    2.2765   -0.2755 N.ar    1  LIG1       -0.1252
     17 N           5.3561   -0.0061    0.2764 N.ar    1  LIG1       -0.1252
     18 C           8.1711   -0.1043    0.2867 C.ar    1  LIG1       -0.0504
     19 C           9.5594   -0.1311    0.2867 C.ar    1  LIG1       -0.0534
     20 C           7.5018    1.0868    0.0008 C.ar    1  LIG1        0.0227
     21 C          10.2961    1.0229    0.0014 C.ar    1  LIG1       -0.0178
     22 H          10.0799   -1.0474    0.5338 H       1  LIG1        0.0624
     23 C           8.2249    2.2460   -0.2847 C.ar    1  LIG1       -0.0504
     24 C           9.6130    2.2093   -0.2842 C.ar    1  LIG1       -0.0534
     25 H           7.6940    3.1602   -0.5128 H       1  LIG1        0.0625
     26 H           7.5989   -0.9933    0.5146 H       1  LIG1        0.0625
     27 H          10.1749    3.1009   -0.5310 H       1  LIG1        0.0624
     28 C          12.5195    2.0087    0.6166 C.ar    1  LIG1       -0.0540
     29 C          13.9103    1.9766    0.6167 C.ar    1  LIG1       -0.0612
     30 C          11.7879    0.9888    0.0017 C.ar    1  LIG1       -0.0179
     31 C          14.5856    0.9249    0.0023 C.ar    1  LIG1       -0.0617
     32 H          14.4657    2.7685    1.1022 H       1  LIG1        0.0618
     33 C          12.4724   -0.0634   -0.6129 C.ar    1  LIG1       -0.0540
     34 C          13.8633   -0.0949   -0.6125 C.ar    1  LIG1       -0.0612
     35 H          11.9110   -0.8439   -1.1115 H       1  LIG1        0.0624
     36 H          15.6675    0.9002    0.0025 H       1  LIG1        0.0618
     37 H          11.9942    2.8141    1.1150 H       1  LIG1        0.0624
     38 H          14.3821   -0.9113   -1.0978 H       1  LIG1        0.0618
@<TRIPOS>BOND
     1    35    33    1
     2    38    34    1
     3    33    34   ar
     4    33    30   ar
     5    34    31   ar
     6    27    24    1
     7     8     6    1
     8    11     7    1
     9    25    23    1
    10     7     6   ar
    11     7     4   ar
    12     6     3   ar
    13    23    24   ar
    14    23    20   ar
    15    24    21   ar
    16    13    16   ar
    17    13    12   ar
    18    16    14   ar
    19     9     3    1
    20     3     1   ar
    21     4    12    1
    22     4     2   ar
    23    12    15   ar
    24    14    20    1
    25    14    17   ar
    26    20    18   ar
    27    21    30    1
    28    21    19   ar
    29    30    28   ar
    30    31    36    1
    31    31    29   ar
    32    15    17   ar
    33    18    19   ar
    34    18    26    1
    35    19    22    1
    36     1     2   ar
    37     1    10    1
    38     2     5    1
    39    28    29   ar
    40    28    37    1
    41    29    32    1
