@<TRIPOS>MOLECULE
mol_data/opt/m06hf/geoms/mol2/48-4.out
 28 30 0 0 0
SMALL
GASTEIGER

@<TRIPOS>ATOM
      1 C          -0.0543    0.0483    0.0001 C.ar    1  LIG1       -0.0611
      2 C           1.3354    0.0126    0.0001 C.ar    1  LIG1       -0.0509
      3 C          -0.7227    1.2708   -0.0003 C.ar    1  LIG1       -0.0617
      4 C           2.0557    1.2083   -0.0001 C.ar    1  LIG1        0.0226
      5 H           1.8688   -0.9282    0.0004 H       1  LIG1        0.0625
      6 C          -0.0001    2.4621   -0.0006 C.ar    1  LIG1       -0.0611
      7 C           1.3899    2.4353   -0.0005 C.ar    1  LIG1       -0.0509
      8 H          -0.5174    3.4119   -0.0009 H       1  LIG1        0.0618
      9 H          -1.8047    1.2951   -0.0004 H       1  LIG1        0.0618
     10 H          -0.6138   -0.8774    0.0003 H       1  LIG1        0.0618
     11 H           1.9649    3.3511   -0.0007 H       1  LIG1        0.0625
     12 C           3.5395    1.1750   -0.0000 C.ar    1  LIG1        0.2034
     13 N           4.2032    2.3343   -0.0003 N.ar    1  LIG1       -0.1252
     14 C           6.1087    1.1172    0.0001 C.ar    1  LIG1        0.2034
     15 N           4.1504   -0.0130    0.0003 N.ar    1  LIG1       -0.1252
     16 N           5.4978    2.3052   -0.0002 N.ar    1  LIG1       -0.1252
     17 N           5.4450   -0.0421    0.0004 N.ar    1  LIG1       -0.1252
     18 C           8.2583   -0.1431    0.0006 C.ar    1  LIG1       -0.0509
     19 C           9.6483   -0.1698    0.0007 C.ar    1  LIG1       -0.0611
     20 C           7.5925    1.0839    0.0002 C.ar    1  LIG1        0.0226
     21 C          10.3709    1.0214    0.0004 C.ar    1  LIG1       -0.0617
     22 H          10.1656   -1.1197    0.0010 H       1  LIG1        0.0618
     23 C           8.3128    2.2797   -0.0000 C.ar    1  LIG1       -0.0509
     24 C           9.7026    2.2439    0.0001 C.ar    1  LIG1       -0.0611
     25 H           7.7795    3.2204   -0.0003 H       1  LIG1        0.0625
     26 H          11.4529    0.9971    0.0005 H       1  LIG1        0.0618
     27 H           7.6832   -1.0589    0.0008 H       1  LIG1        0.0625
     28 H          10.2620    3.1696   -0.0002 H       1  LIG1        0.0618
@<TRIPOS>BOND
     1     8     6    1
     2    11     7    1
     3     6     7   ar
     4     6     3   ar
     5     7     4   ar
     6     9     3    1
     7    25    23    1
     8     3     1   ar
     9    13    16   ar
    10    13    12   ar
    11    16    14   ar
    12    28    24    1
    13     4    12    1
    14     4     2   ar
    15    23    24   ar
    16    23    20   ar
    17    12    15   ar
    18    24    21   ar
    19     1     2   ar
    20     1    10    1
    21    14    20    1
    22    14    17   ar
    23     2     5    1
    24    20    18   ar
    25    15    17   ar
    26    21    26    1
    27    21    19   ar
    28    18    19   ar
    29    18    27    1
    30    19    22    1
