@<TRIPOS>MOLECULE
mol_data/opt/m06hf/geoms/mol2/48-513.out
 33 36 0 0 0
SMALL
GASTEIGER

@<TRIPOS>ATOM
      1 C          -0.1184    0.0676   -0.0008 C.ar    1  LIG1       -0.0611
      2 C           1.2705    0.0041   -0.0006 C.ar    1  LIG1       -0.0509
      3 C          -0.7632    1.3027   -0.0004 C.ar    1  LIG1       -0.0617
      4 C           2.0139    1.1859   -0.0000 C.ar    1  LIG1        0.0226
      5 H           1.7864   -0.9463   -0.0008 H       1  LIG1        0.0625
      6 C          -0.0171    2.4796    0.0001 C.ar    1  LIG1       -0.0611
      7 C           1.3719    2.4256    0.0003 C.ar    1  LIG1       -0.0509
      8 H          -0.5169    3.4389    0.0003 H       1  LIG1        0.0618
      9 H          -1.8444    1.3487   -0.0006 H       1  LIG1        0.0618
     10 H          -0.6967   -0.8467   -0.0012 H       1  LIG1        0.0618
     11 H           1.9667    3.3288    0.0007 H       1  LIG1        0.0625
     12 C           3.4964    1.1269    0.0001 C.ar    1  LIG1        0.2034
     13 N           4.1789    2.2751    0.0008 N.ar    1  LIG1       -0.1252
     14 C           6.0577    1.0233    0.0001 C.ar    1  LIG1        0.2099
     15 N           4.0880   -0.0738   -0.0005 N.ar    1  LIG1       -0.1252
     16 N           5.4728    2.2241    0.0008 N.ar    1  LIG1       -0.1247
     17 N           5.3802   -0.1312   -0.0005 N.ar    1  LIG1       -0.1247
     18 C           7.5157    0.9731   -0.0002 C.ar    1  LIG1        0.0604
     19 C           8.3101   -0.1382   -0.0012 C.ar    1  LIG1       -0.0432
     20 C           9.6964    0.1856   -0.0015 C.ar    1  LIG1       -0.0448
     21 C           9.9243    1.5373   -0.0006 C.ar    1  LIG1        0.0361
     22 S           8.4420    2.4292    0.0008 S.2     1  LIG1       -0.0836
     23 H           7.9058   -1.1395   -0.0019 H       1  LIG1        0.0630
     24 H          10.4878   -0.5481   -0.0026 H       1  LIG1        0.0630
     25 C          11.2163    2.2193   -0.0008 C.ar    1  LIG1        0.0531
     26 C          12.4960    1.6999   -0.0001 C.ar    1  LIG1       -0.0359
     27 C          13.3991    2.7932   -0.0009 C.ar    1  LIG1       -0.0438
     28 C          12.6442    3.9433   -0.0014 C.ar    1  LIG1        0.0022
     29 N          11.3310    3.5843   -0.0015 N.ar    1  LIG1       -0.3603
     30 H          10.5588    4.2323   -0.0022 H       1  LIG1        0.1653
     31 H          12.9376    4.9783   -0.0020 H       1  LIG1        0.0807
     32 H          12.7485    0.6529    0.0007 H       1  LIG1        0.0639
     33 H          14.4744    2.7430   -0.0008 H       1  LIG1        0.0633
@<TRIPOS>BOND
     1    24    20    1
     2    30    29    1
     3    31    28    1
     4    23    19    1
     5    20    19   ar
     6    20    21   ar
     7    29    28   ar
     8    29    25   ar
     9    28    27   ar
    10    19    18   ar
    11    10     1    1
    12    27    33    1
    13    27    26   ar
    14     5     2    1
    15    25    21    1
    16    25    26   ar
    17     1     2   ar
    18     1     3   ar
    19    21    22   ar
    20     9     3    1
    21     2     4   ar
    22    17    15   ar
    23    17    14   ar
    24    15    12   ar
    25     3     6   ar
    26    18    14    1
    27    18    22   ar
    28    26    32    1
    29     4    12    1
    30     4     7   ar
    31     6     7   ar
    32     6     8    1
    33    14    16   ar
    34    12    13   ar
    35     7    11    1
    36    16    13   ar
