@<TRIPOS>MOLECULE
mol_data/opt/m06hf/geoms/mol2/48-5.out
 25 27 0 0 0
SMALL
GASTEIGER

@<TRIPOS>ATOM
      1 C          -0.0416    0.0629    0.0003 C.ar    1  LIG1       -0.0611
      2 C           1.3478    0.0168   -0.0000 C.ar    1  LIG1       -0.0509
      3 C          -0.7005    1.2903    0.0003 C.ar    1  LIG1       -0.0617
      4 C           2.0767    1.2075   -0.0002 C.ar    1  LIG1        0.0226
      5 H           1.8753   -0.9272   -0.0001 H       1  LIG1        0.0625
      6 C           0.0309    2.4764    0.0001 C.ar    1  LIG1       -0.0611
      7 C           1.4207    2.4398   -0.0002 C.ar    1  LIG1       -0.0509
      8 H          -0.4800    3.4298    0.0002 H       1  LIG1        0.0618
      9 H          -1.7824    1.3231    0.0006 H       1  LIG1        0.0618
     10 H          -0.6085   -0.8585    0.0005 H       1  LIG1        0.0618
     11 H           2.0025    3.3516   -0.0003 H       1  LIG1        0.0625
     12 C           3.5600    1.1609   -0.0005 C.ar    1  LIG1        0.2034
     13 N           4.2344    2.3135   -0.0007 N.ar    1  LIG1       -0.1252
     14 C           6.1208    1.0748   -0.0010 C.ar    1  LIG1        0.2099
     15 N           4.1589   -0.0357   -0.0006 N.ar    1  LIG1       -0.1252
     16 N           5.5294    2.2711   -0.0009 N.ar    1  LIG1       -0.1247
     17 N           5.4517   -0.0832   -0.0008 N.ar    1  LIG1       -0.1247
     18 C           7.5835    1.0244   -0.0012 C.ar    1  LIG1        0.0598
     19 C           8.3605   -0.0986   -0.0013 C.ar    1  LIG1       -0.0438
     20 C           9.7541    0.2143   -0.0015 C.ar    1  LIG1       -0.0540
     21 C           9.9788    1.5596   -0.0016 C.ar    1  LIG1       -0.0236
     22 S           8.5226    2.4703   -0.0014 S.2     1  LIG1       -0.0934
     23 H          10.9291    2.0686   -0.0017 H       1  LIG1        0.0693
     24 H           7.9426   -1.0942   -0.0012 H       1  LIG1        0.0630
     25 H          10.5403   -0.5250   -0.0015 H       1  LIG1        0.0623
@<TRIPOS>BOND
     1    23    21    1
     2    21    20   ar
     3    21    22   ar
     4    25    20    1
     5    20    19   ar
     6    22    18   ar
     7    19    18   ar
     8    19    24    1
     9    18    14    1
    10    14    16   ar
    11    14    17   ar
    12    16    13   ar
    13    17    15   ar
    14    13    12   ar
    15    15    12   ar
    16    12     4    1
    17    11     7    1
    18     4     7   ar
    19     4     2   ar
    20     7     6   ar
    21     5     2    1
    22     2     1   ar
    23     6     8    1
    24     6     3   ar
    25     1     3   ar
    26     1    10    1
    27     3     9    1
