@<TRIPOS>MOLECULE
mol_data/opt/m06hf/geoms/mol2/48-5-8-.out
 31 34 0 0 0
SMALL
GASTEIGER

@<TRIPOS>ATOM
      1 C          -0.0639    0.0589    0.0002 C.ar    1  LIG1       -0.0611
      2 C           1.3257    0.0299   -0.0001 C.ar    1  LIG1       -0.0509
      3 C          -0.7383    1.2783    0.0003 C.ar    1  LIG1       -0.0617
      4 C           2.0395    1.2298   -0.0002 C.ar    1  LIG1        0.0226
      5 H           1.8657   -0.9071   -0.0002 H       1  LIG1        0.0625
      6 C          -0.0217    2.4734    0.0002 C.ar    1  LIG1       -0.0611
      7 C           1.3683    2.4542   -0.0000 C.ar    1  LIG1       -0.0509
      8 H          -0.5448    3.4202    0.0003 H       1  LIG1        0.0618
      9 H          -1.8203    1.2967    0.0005 H       1  LIG1        0.0618
     10 H          -0.6201   -0.8688    0.0003 H       1  LIG1        0.0618
     11 H           1.9395    3.3725   -0.0001 H       1  LIG1        0.0625
     12 C           3.5222    1.2010   -0.0004 C.ar    1  LIG1        0.2034
     13 N           4.1831    2.3648   -0.0005 N.ar    1  LIG1       -0.1252
     14 C           6.0820    1.1530   -0.0008 C.ar    1  LIG1        0.2099
     15 N           4.1361    0.0133   -0.0006 N.ar    1  LIG1       -0.1252
     16 N           5.4771    2.3444   -0.0006 N.ar    1  LIG1       -0.1247
     17 N           5.4305   -0.0111   -0.0008 N.ar    1  LIG1       -0.1247
     18 C           7.5476    1.1205   -0.0009 C.ar    1  LIG1        0.0605
     19 C           8.3847    2.2042   -0.0009 C.ar    1  LIG1       -0.0431
     20 C           9.7518    1.8133   -0.0010 C.ar    1  LIG1       -0.0431
     21 C           9.8912    0.4518   -0.0010 C.ar    1  LIG1        0.0605
     22 S           8.3858   -0.3816   -0.0012 S.2     1  LIG1       -0.0818
     23 H           8.0248    3.2217   -0.0009 H       1  LIG1        0.0630
     24 H          10.5960    2.4863   -0.0009 H       1  LIG1        0.0630
     25 C          11.1558   -0.2895   -0.0009 C.ar    1  LIG1        0.2099
     26 N          12.2919    0.4147   -0.0007 N.ar    1  LIG1       -0.1253
     27 C          13.3452   -1.5748   -0.0007 C.ar    1  LIG1        0.1605
     28 N          11.0983   -1.6229   -0.0010 N.ar    1  LIG1       -0.1253
     29 N          13.4096   -0.2443   -0.0006 N.ar    1  LIG1       -0.1339
     30 N          12.2183   -2.2805   -0.0009 N.ar    1  LIG1       -0.1339
     31 H          14.2766   -2.1202   -0.0006 H       1  LIG1        0.1085
@<TRIPOS>BOND
     1    22    21   ar
     2    22    18   ar
     3    28    30   ar
     4    28    25   ar
     5    21    20   ar
     6    21    25    1
     7    20    19   ar
     8    20    24    1
     9    19    18   ar
    10    19    23    1
    11    18    14    1
    12    30    27   ar
    13    25    26   ar
    14    14    17   ar
    15    14    16   ar
    16    17    15   ar
    17    27    31    1
    18    27    29   ar
    19    26    29   ar
    20    16    13   ar
    21    15    12   ar
    22    13    12   ar
    23    12     4    1
    24     4     2   ar
    25     4     7   ar
    26     5     2    1
    27    11     7    1
    28     2     1   ar
    29     7     6   ar
    30     1    10    1
    31     1     3   ar
    32     6     8    1
    33     6     3   ar
    34     3     9    1
