@<TRIPOS>MOLECULE
mol_data/opt/m06hf/geoms/mol2/48-88.out
 30 33 0 0 0
SMALL
GASTEIGER

@<TRIPOS>ATOM
      1 C          -0.0470    0.0581    0.0001 C.ar    1  LIG1       -0.0611
      2 C           1.3423    0.0158    0.0001 C.ar    1  LIG1       -0.0509
      3 C          -0.7086    1.2845   -0.0002 C.ar    1  LIG1       -0.0617
      4 C           2.0655    1.2105   -0.0002 C.ar    1  LIG1        0.0226
      5 H           1.8715   -0.9273    0.0004 H       1  LIG1        0.0625
      6 C           0.0175    2.4739   -0.0004 C.ar    1  LIG1       -0.0611
      7 C           1.4070    2.4421   -0.0004 C.ar    1  LIG1       -0.0509
      8 H          -0.4969    3.4252   -0.0007 H       1  LIG1        0.0618
      9 H          -1.7906    1.3134   -0.0002 H       1  LIG1        0.0618
     10 H          -0.6114   -0.8644    0.0004 H       1  LIG1        0.0618
     11 H           1.9858    3.3556   -0.0007 H       1  LIG1        0.0625
     12 C           3.5462    1.1710   -0.0002 C.ar    1  LIG1        0.2034
     13 N           4.2142    2.3305   -0.0004 N.ar    1  LIG1       -0.1251
     14 C           6.0941    1.1030   -0.0003 C.ar    1  LIG1        0.2435
     15 N           4.1514   -0.0225   -0.0000 N.ar    1  LIG1       -0.1251
     16 N           5.5093    2.2977   -0.0004 N.ar    1  LIG1       -0.1218
     17 N           5.4464   -0.0589   -0.0001 N.ar    1  LIG1       -0.1218
     18 C           7.5877    1.0631   -0.0004 C.ar    1  LIG1        0.2435
     19 N           8.1726   -0.1331   -0.0004 N.ar    1  LIG1       -0.1217
     20 C          10.1167    0.9956   -0.0008 C.ar    1  LIG1        0.2435
     21 N           8.2356    2.2265   -0.0006 N.ar    1  LIG1       -0.1217
     22 N           9.4701   -0.1674   -0.0006 N.ar    1  LIG1       -0.1217
     23 N           9.5331    2.1914   -0.0008 N.ar    1  LIG1       -0.1217
     24 C          11.6129    0.9557   -0.0009 C.ar    1  LIG1        0.2434
     25 N          12.1928   -0.2415   -0.0012 N.ar    1  LIG1       -0.1224
     26 C          14.1381    0.8883   -0.0022 C.ar    1  LIG1        0.1605
     27 N          12.2558    2.1202   -0.0013 N.ar    1  LIG1       -0.1224
     28 N          13.4925   -0.2751   -0.0017 N.ar    1  LIG1       -0.1338
     29 N          13.5555    2.0844   -0.0017 N.ar    1  LIG1       -0.1338
     30 H          15.2178    0.8595   -0.0021 H       1  LIG1        0.1085
@<TRIPOS>BOND
     1    26    30    1
     2    26    29   ar
     3    26    28   ar
     4    29    27   ar
     5    28    25   ar
     6    27    24   ar
     7    25    24   ar
     8    24    20    1
     9    20    23   ar
    10    20    22   ar
    11    23    21   ar
    12     8     6    1
    13    11     7    1
    14    22    19   ar
    15    21    18   ar
    16     6     7   ar
    17     6     3   ar
    18     7     4   ar
    19    16    13   ar
    20    16    14   ar
    21    19    18   ar
    22    18    14    1
    23    13    12   ar
    24    14    17   ar
    25    12     4    1
    26    12    15   ar
    27     9     3    1
    28     3     1   ar
    29     4     2   ar
    30    17    15   ar
    31     1     2   ar
    32     1    10    1
    33     2     5    1
