@<TRIPOS>MOLECULE
mol_data/opt/m06hf/geoms/mol2/48.out
 18 19 0 0 0
SMALL
GASTEIGER

@<TRIPOS>ATOM
      1 C           0.0138    0.0524    0.0004 C.ar    1  LIG1       -0.0611
      2 C           1.4035    0.0151    0.0002 C.ar    1  LIG1       -0.0509
      3 C          -0.6528    1.2758    0.0002 C.ar    1  LIG1       -0.0617
      4 C           2.1244    1.2103   -0.0002 C.ar    1  LIG1        0.0226
      5 H           1.9358   -0.9262    0.0003 H       1  LIG1        0.0625
      6 C           0.0707    2.4665   -0.0002 C.ar    1  LIG1       -0.0611
      7 C           1.4607    2.4382   -0.0004 C.ar    1  LIG1       -0.0509
      8 H          -0.4456    3.4169   -0.0003 H       1  LIG1        0.0618
      9 H          -1.7348    1.3014    0.0004 H       1  LIG1        0.0618
     10 H          -0.5468   -0.8726    0.0007 H       1  LIG1        0.0618
     11 H           2.0368    3.3534   -0.0007 H       1  LIG1        0.0625
     12 C           3.6089    1.1753   -0.0005 C.ar    1  LIG1        0.2033
     13 N           4.2139   -0.0162   -0.0003 N.ar    1  LIG1       -0.1258
     14 C           6.1567    1.1152   -0.0008 C.ar    1  LIG1        0.1605
     15 N           4.2695    2.3369   -0.0008 N.ar    1  LIG1       -0.1258
     16 N           5.5121   -0.0479   -0.0005 N.ar    1  LIG1       -0.1339
     17 N           5.5677    2.3074   -0.0010 N.ar    1  LIG1       -0.1339
     18 H           7.2361    1.0897   -0.0010 H       1  LIG1        0.1085
@<TRIPOS>BOND
     1    18    14    1
     2    17    14   ar
     3    17    15   ar
     4    14    16   ar
     5    15    12   ar
     6    11     7    1
     7    16    13   ar
     8    12    13   ar
     9    12     4    1
    10     7     4   ar
    11     7     6   ar
    12     8     6    1
    13     4     2   ar
    14     6     3   ar
    15     2     5    1
    16     2     1   ar
    17     3     1   ar
    18     3     9    1
    19     1    10    1
