@<TRIPOS>MOLECULE
mol_data/opt/m06hf/geoms/mol2/4812-.out
 25 27 0 0 0
SMALL
GASTEIGER

@<TRIPOS>ATOM
      1 C          -0.0448    0.0895    0.0003 C.ar    1  LIG1       -0.0611
      2 C           1.3438    0.0206    0.0001 C.ar    1  LIG1       -0.0509
      3 C          -0.6840    1.3276    0.0001 C.ar    1  LIG1       -0.0617
      4 C           2.0914    1.1995   -0.0002 C.ar    1  LIG1        0.0226
      5 H           1.8551   -0.9324    0.0003 H       1  LIG1        0.0625
      6 C           0.0662    2.5015   -0.0002 C.ar    1  LIG1       -0.0611
      7 C           1.4553    2.4421   -0.0003 C.ar    1  LIG1       -0.0509
      8 H          -0.4289    3.4632   -0.0003 H       1  LIG1        0.0618
      9 H          -1.7652    1.3773    0.0003 H       1  LIG1        0.0618
     10 H          -0.6264   -0.8225    0.0005 H       1  LIG1        0.0618
     11 H           2.0519    3.3440   -0.0006 H       1  LIG1        0.0625
     12 C           3.5741    1.1314   -0.0003 C.ar    1  LIG1        0.2034
     13 N           4.1570   -0.0693   -0.0002 N.ar    1  LIG1       -0.1251
     14 C           6.1285    1.0145   -0.0007 C.ar    1  LIG1        0.2381
     15 N           4.2636    2.2789   -0.0006 N.ar    1  LIG1       -0.1251
     16 N           5.4530   -0.1349   -0.0004 N.ar    1  LIG1       -0.1220
     17 N           5.5550    2.2224   -0.0008 N.ar    1  LIG1       -0.1220
     18 C           7.5908    0.9855   -0.0008 C.ar    1  LIG1        0.1751
     19 C           8.5027    1.9953   -0.0011 C.ar    1  LIG1       -0.0126
     20 C           9.7842    1.3543   -0.0011 C.ar    1  LIG1       -0.0232
     21 C           9.5295    0.0195   -0.0010 C.ar    1  LIG1        0.0927
     22 O           8.2063   -0.2112   -0.0007 O.2     1  LIG1       -0.4597
     23 H          10.1637   -0.8493   -0.0009 H       1  LIG1        0.1029
     24 H           8.2758    3.0478   -0.0012 H       1  LIG1        0.0656
     25 H          10.7525    1.8229   -0.0013 H       1  LIG1        0.0649
@<TRIPOS>BOND
     1    25    20    1
     2    24    19    1
     3    20    19   ar
     4    20    21   ar
     5    19    18   ar
     6    21    23    1
     7    21    22   ar
     8    18    14    1
     9    18    22   ar
    10    17    14   ar
    11    17    15   ar
    12    14    16   ar
    13    15    12   ar
    14    11     7    1
    15    16    13   ar
    16    12    13   ar
    17    12     4    1
    18     7     6   ar
    19     7     4   ar
    20     8     6    1
    21     6     3   ar
    22     4     2   ar
    23     3     9    1
    24     3     1   ar
    25     2     5    1
    26     2     1   ar
    27     1    10    1
