@<TRIPOS>MOLECULE
mol_data/opt/m06hf/geoms/mol2/4813-.out
 26 28 0 0 0
SMALL
GASTEIGER

@<TRIPOS>ATOM
      1 C          -0.0258    0.0438    0.0003 C.ar    1  LIG1       -0.0611
      2 C           1.3641    0.0111    0.0001 C.ar    1  LIG1       -0.0509
      3 C          -0.6973    1.2647    0.0003 C.ar    1  LIG1       -0.0617
      4 C           2.0817    1.2086   -0.0002 C.ar    1  LIG1        0.0226
      5 H           1.8990   -0.9289    0.0001 H       1  LIG1        0.0625
      6 C           0.0227    2.4573    0.0000 C.ar    1  LIG1       -0.0611
      7 C           1.4129    2.4339   -0.0002 C.ar    1  LIG1       -0.0509
      8 H          -0.4969    3.4061    0.0000 H       1  LIG1        0.0618
      9 H          -1.7794    1.2863    0.0005 H       1  LIG1        0.0618
     10 H          -0.5835   -0.8831    0.0005 H       1  LIG1        0.0618
     11 H           1.9863    3.3506   -0.0004 H       1  LIG1        0.0625
     12 C           3.5661    1.1805   -0.0004 C.ar    1  LIG1        0.2034
     13 N           4.1827   -0.0025   -0.0004 N.ar    1  LIG1       -0.1252
     14 C           6.1296    1.1453   -0.0009 C.ar    1  LIG1        0.2194
     15 N           4.2243    2.3474   -0.0007 N.ar    1  LIG1       -0.1252
     16 N           5.4789   -0.0215   -0.0007 N.ar    1  LIG1       -0.1237
     17 N           5.5163    2.3364   -0.0009 N.ar    1  LIG1       -0.1237
     18 C           7.5825    1.1058   -0.0012 C.ar    1  LIG1        0.0875
     19 C           8.5229    2.1168   -0.0014 C.ar    1  LIG1       -0.0333
     20 C           9.7925    1.4916   -0.0017 C.ar    1  LIG1       -0.0437
     21 C           9.5771    0.1265   -0.0014 C.ar    1  LIG1        0.0023
     22 N           8.2395   -0.0908   -0.0011 N.ar    1  LIG1       -0.3582
     23 H           7.7614   -0.9800   -0.0009 H       1  LIG1        0.1654
     24 H          10.2757   -0.6922   -0.0014 H       1  LIG1        0.0807
     25 H           8.2999    3.1705   -0.0014 H       1  LIG1        0.0640
     26 H          10.7531    1.9769   -0.0020 H       1  LIG1        0.0633
@<TRIPOS>BOND
     1    26    20    1
     2    20    19   ar
     3    20    21   ar
     4    25    19    1
     5    24    21    1
     6    19    18   ar
     7    21    22   ar
     8    18    22   ar
     9    18    14    1
    10    22    23    1
    11    17    14   ar
    12    17    15   ar
    13    14    16   ar
    14    15    12   ar
    15    16    13   ar
    16    12    13   ar
    17    12     4    1
    18    11     7    1
    19     7     4   ar
    20     7     6   ar
    21     4     2   ar
    22     8     6    1
    23     6     3   ar
    24     2     5    1
    25     2     1   ar
    26     3     1   ar
    27     3     9    1
    28     1    10    1
