@<TRIPOS>MOLECULE
mol_data/opt/m06hf/geoms/mol2/4813-12-.out
 33 36 0 0 0
SMALL
GASTEIGER

@<TRIPOS>ATOM
      1 C          -0.0484    0.0502    0.0002 C.ar    1  LIG1       -0.0611
      2 C           1.3413    0.0197   -0.0001 C.ar    1  LIG1       -0.0509
      3 C          -0.7226    1.2694    0.0005 C.ar    1  LIG1       -0.0617
      4 C           2.0564    1.2190   -0.0002 C.ar    1  LIG1        0.0226
      5 H           1.8793   -0.9188   -0.0004 H       1  LIG1        0.0625
      6 C          -0.0051    2.4637    0.0005 C.ar    1  LIG1       -0.0611
      7 C           1.3849    2.4426    0.0001 C.ar    1  LIG1       -0.0509
      8 H          -0.5272    3.4113    0.0007 H       1  LIG1        0.0618
      9 H          -1.8049    1.2886    0.0008 H       1  LIG1        0.0618
     10 H          -0.6057   -0.8774    0.0003 H       1  LIG1        0.0618
     11 H           1.9589    3.3595    0.0001 H       1  LIG1        0.0625
     12 C           3.5400    1.1940   -0.0005 C.ar    1  LIG1        0.2034
     13 N           4.1598    0.0129   -0.0008 N.ar    1  LIG1       -0.1252
     14 C           6.1029    1.1658   -0.0011 C.ar    1  LIG1        0.2194
     15 N           4.1947    2.3638   -0.0005 N.ar    1  LIG1       -0.1252
     16 N           5.4567   -0.0039   -0.0011 N.ar    1  LIG1       -0.1237
     17 N           5.4868    2.3556   -0.0008 N.ar    1  LIG1       -0.1237
     18 C           7.5549    1.1353   -0.0014 C.ar    1  LIG1        0.0880
     19 C           8.4832    2.1605   -0.0015 C.ar    1  LIG1       -0.0325
     20 C           9.7589    1.5572   -0.0019 C.ar    1  LIG1       -0.0327
     21 C           9.5611    0.1836   -0.0020 C.ar    1  LIG1        0.0826
     22 N           8.2259   -0.0511   -0.0017 N.ar    1  LIG1       -0.3492
     23 H           7.7814   -0.9595   -0.0017 H       1  LIG1        0.1661
     24 H           8.2458    3.2104   -0.0013 H       1  LIG1        0.0640
     25 H          10.7140    2.0538   -0.0020 H       1  LIG1        0.0640
     26 C          10.5111   -0.9202   -0.0023 C.ar    1  LIG1        0.1509
     27 C          11.8682   -0.9877   -0.0026 C.ar    1  LIG1       -0.0144
     28 C          12.1913   -2.3891   -0.0028 C.ar    1  LIG1       -0.0233
     29 C          11.0076   -3.0469   -0.0028 C.ar    1  LIG1        0.0926
     30 O           9.9826   -2.1653   -0.0025 O.2     1  LIG1       -0.4615
     31 H          10.7407   -4.0885   -0.0029 H       1  LIG1        0.1029
     32 H          12.5496   -0.1550   -0.0025 H       1  LIG1        0.0656
     33 H          13.1713   -2.8338   -0.0030 H       1  LIG1        0.0649
@<TRIPOS>BOND
     1    33    28    1
     2    31    29    1
     3    28    29   ar
     4    28    27   ar
     5    29    30   ar
     6    27    32    1
     7    27    26   ar
     8    30    26   ar
     9    26    21    1
    10    25    20    1
    11    21    20   ar
    12    21    22   ar
    13    20    19   ar
    14    23    22    1
    15    22    18   ar
    16    19    18   ar
    17    19    24    1
    18    18    14    1
    19    14    16   ar
    20    14    17   ar
    21    16    13   ar
    22    17    15   ar
    23    13    12   ar
    24    15    12   ar
    25    12     4    1
    26     5     2    1
    27     4     2   ar
    28     4     7   ar
    29     2     1   ar
    30    11     7    1
    31     7     6   ar
    32     1    10    1
    33     1     3   ar
    34     6     3   ar
    35     6     8    1
    36     3     9    1
