@<TRIPOS>MOLECULE
mol_data/opt/m06hf/geoms/mol2/485-.out
 25 27 0 0 0
SMALL
GASTEIGER

@<TRIPOS>ATOM
      1 C          -0.0312    0.0506    0.0001 C.ar    1  LIG1       -0.0611
      2 C           1.3587    0.0154    0.0000 C.ar    1  LIG1       -0.0509
      3 C          -0.7004    1.2728   -0.0000 C.ar    1  LIG1       -0.0617
      4 C           2.0774    1.2122   -0.0001 C.ar    1  LIG1        0.0226
      5 H           1.8926   -0.9252    0.0001 H       1  LIG1        0.0625
      6 C           0.0209    2.4646   -0.0002 C.ar    1  LIG1       -0.0611
      7 C           1.4109    2.4390   -0.0002 C.ar    1  LIG1       -0.0509
      8 H          -0.4976    3.4140   -0.0003 H       1  LIG1        0.0618
      9 H          -1.7825    1.2959    0.0000 H       1  LIG1        0.0618
     10 H          -0.5907   -0.8752    0.0002 H       1  LIG1        0.0618
     11 H           1.9864    3.3544   -0.0004 H       1  LIG1        0.0625
     12 C           3.5611    1.1822   -0.0002 C.ar    1  LIG1        0.2034
     13 N           4.1751   -0.0037   -0.0001 N.ar    1  LIG1       -0.1252
     14 C           6.1230    1.1360   -0.0004 C.ar    1  LIG1        0.2099
     15 N           4.2209    2.3463   -0.0004 N.ar    1  LIG1       -0.1252
     16 N           5.4706   -0.0282   -0.0002 N.ar    1  LIG1       -0.1247
     17 N           5.5145    2.3270   -0.0005 N.ar    1  LIG1       -0.1247
     18 C           7.5863    1.1109   -0.0005 C.ar    1  LIG1        0.0598
     19 C           8.4202    2.1923   -0.0007 C.ar    1  LIG1       -0.0438
     20 C           9.7958    1.8079   -0.0008 C.ar    1  LIG1       -0.0540
     21 C           9.9508    0.4528   -0.0006 C.ar    1  LIG1       -0.0236
     22 S           8.4495   -0.3816   -0.0004 S.2     1  LIG1       -0.0934
     23 H          10.8735   -0.1046   -0.0006 H       1  LIG1        0.0693
     24 H           8.0542    3.2081   -0.0008 H       1  LIG1        0.0630
     25 H          10.6191    2.5057   -0.0010 H       1  LIG1        0.0623
@<TRIPOS>BOND
     1    25    20    1
     2    24    19    1
     3    20    19   ar
     4    20    21   ar
     5    19    18   ar
     6    23    21    1
     7    21    22   ar
     8    18    22   ar
     9    18    14    1
    10    17    15   ar
    11    17    14   ar
    12    15    12   ar
    13    11     7    1
    14    14    16   ar
    15     8     6    1
    16     7     6   ar
    17     7     4   ar
    18    16    13   ar
    19    12     4    1
    20    12    13   ar
    21     6     3   ar
    22     4     2   ar
    23     3     9    1
    24     3     1   ar
    25     2     1   ar
    26     2     5    1
    27     1    10    1
