@<TRIPOS>MOLECULE
mol_data/opt/m06hf/geoms/mol2/488-12-.out
 31 34 0 0 0
SMALL
GASTEIGER

@<TRIPOS>ATOM
      1 C          -0.0617    0.0965    0.0001 C.ar    1  LIG1       -0.0611
      2 C           1.3271    0.0353   -0.0000 C.ar    1  LIG1       -0.0509
      3 C          -0.7069    1.3316    0.0001 C.ar    1  LIG1       -0.0617
      4 C           2.0668    1.2196   -0.0002 C.ar    1  LIG1        0.0226
      5 H           1.8437   -0.9148   -0.0001 H       1  LIG1        0.0625
      6 C           0.0358    2.5107   -0.0000 C.ar    1  LIG1       -0.0611
      7 C           1.4248    2.4596   -0.0002 C.ar    1  LIG1       -0.0509
      8 H          -0.4655    3.4691   -0.0000 H       1  LIG1        0.0618
      9 H          -1.7883    1.3752    0.0002 H       1  LIG1        0.0618
     10 H          -0.6385   -0.8183    0.0002 H       1  LIG1        0.0618
     11 H           2.0166    3.3648   -0.0003 H       1  LIG1        0.0625
     12 C           3.5480    1.1604   -0.0004 C.ar    1  LIG1        0.2034
     13 N           4.1370   -0.0404   -0.0003 N.ar    1  LIG1       -0.1251
     14 C           6.0971    1.0582   -0.0006 C.ar    1  LIG1        0.2435
     15 N           4.2309    2.3100   -0.0005 N.ar    1  LIG1       -0.1251
     16 N           5.4316   -0.0947   -0.0005 N.ar    1  LIG1       -0.1218
     17 N           5.5259    2.2603   -0.0006 N.ar    1  LIG1       -0.1218
     18 C           7.5890    0.9994   -0.0008 C.ar    1  LIG1        0.2435
     19 N           8.2527    2.1565   -0.0010 N.ar    1  LIG1       -0.1217
     20 C          10.1252    0.8996   -0.0010 C.ar    1  LIG1        0.2381
     21 N           8.1609   -0.2012   -0.0006 N.ar    1  LIG1       -0.1217
     22 N           9.5450    2.1062   -0.0012 N.ar    1  LIG1       -0.1219
     23 N           9.4582   -0.2565   -0.0007 N.ar    1  LIG1       -0.1219
     24 C          11.5842    0.8798   -0.0011 C.ar    1  LIG1        0.1751
     25 C          12.4888    1.8977   -0.0016 C.ar    1  LIG1       -0.0126
     26 C          13.7736    1.2672   -0.0015 C.ar    1  LIG1       -0.0232
     27 C          13.5285   -0.0706   -0.0009 C.ar    1  LIG1        0.0927
     28 O          12.2085   -0.3122   -0.0008 O.2     1  LIG1       -0.4597
     29 H          14.1698   -0.9342   -0.0006 H       1  LIG1        0.1029
     30 H          12.2537    2.9486   -0.0020 H       1  LIG1        0.0656
     31 H          14.7384    1.7429   -0.0018 H       1  LIG1        0.0649
@<TRIPOS>BOND
     1    30    25    1
     2    31    26    1
     3    25    26   ar
     4    25    24   ar
     5    26    27   ar
     6    22    19   ar
     7    22    20   ar
     8    24    20    1
     9    24    28   ar
    10    19    18   ar
    11    20    23   ar
    12    27    28   ar
    13    27    29    1
    14    18    14    1
    15    18    21   ar
    16    23    21   ar
    17    17    14   ar
    18    17    15   ar
    19    14    16   ar
    20    16    13   ar
    21    15    12   ar
    22    12    13   ar
    23    12     4    1
    24    11     7    1
    25     4     7   ar
    26     4     2   ar
    27     7     6   ar
    28     5     2    1
    29     2     1   ar
    30     6     8    1
    31     6     3   ar
    32     1     3   ar
    33     1    10    1
    34     3     9    1
