@<TRIPOS>MOLECULE
mol_data/opt/m06hf/geoms/mol2/488.out
 24 26 0 0 0
SMALL
GASTEIGER

@<TRIPOS>ATOM
      1 C          -0.0211    0.0552    0.0004 C.ar    1  LIG1       -0.0611
      2 C           1.3683    0.0144    0.0001 C.ar    1  LIG1       -0.0509
      3 C          -0.6841    1.2808    0.0002 C.ar    1  LIG1       -0.0617
      4 C           2.0905    1.2095   -0.0002 C.ar    1  LIG1        0.0226
      5 H           1.8987   -0.9281    0.0002 H       1  LIG1        0.0625
      6 C           0.0410    2.4707   -0.0001 C.ar    1  LIG1       -0.0611
      7 C           1.4306    2.4401   -0.0004 C.ar    1  LIG1       -0.0509
      8 H          -0.4742    3.4217   -0.0002 H       1  LIG1        0.0618
      9 H          -1.7661    1.3086    0.0004 H       1  LIG1        0.0618
     10 H          -0.5844   -0.8680    0.0006 H       1  LIG1        0.0618
     11 H           2.0087    3.3541   -0.0006 H       1  LIG1        0.0625
     12 C           3.5719    1.1714   -0.0005 C.ar    1  LIG1        0.2034
     13 N           4.1779   -0.0210   -0.0003 N.ar    1  LIG1       -0.1251
     14 C           6.1208    1.1059   -0.0008 C.ar    1  LIG1        0.2435
     15 N           4.2384    2.3312   -0.0008 N.ar    1  LIG1       -0.1251
     16 N           5.4732   -0.0561   -0.0005 N.ar    1  LIG1       -0.1218
     17 N           5.5338    2.2997   -0.0010 N.ar    1  LIG1       -0.1218
     18 C           7.6157    1.0675   -0.0011 C.ar    1  LIG1        0.2434
     19 N           8.1988   -0.1289   -0.0008 N.ar    1  LIG1       -0.1224
     20 C          10.1433    1.0026   -0.0008 C.ar    1  LIG1        0.1605
     21 N           8.2595    2.2324   -0.0012 N.ar    1  LIG1       -0.1224
     22 N           9.4986   -0.1610   -0.0008 N.ar    1  LIG1       -0.1338
     23 N           9.5592    2.1977   -0.0012 N.ar    1  LIG1       -0.1338
     24 H          11.2230    0.9748   -0.0012 H       1  LIG1        0.1085
@<TRIPOS>BOND
     1    24    20    1
     2    21    23   ar
     3    21    18   ar
     4    23    20   ar
     5    18    14    1
     6    18    19   ar
     7    17    14   ar
     8    17    15   ar
     9    20    22   ar
    10    14    16   ar
    11    19    22   ar
    12    15    12   ar
    13    11     7    1
    14    16    13   ar
    15    12    13   ar
    16    12     4    1
    17     7     4   ar
    18     7     6   ar
    19     4     2   ar
    20     8     6    1
    21     6     3   ar
    22     2     5    1
    23     2     1   ar
    24     3     1   ar
    25     3     9    1
    26     1    10    1
