@<TRIPOS>MOLECULE
mol_data/opt/m06hf/geoms/mol2/4aa12ha4dh-4ee.out
 48 51 0 0 0
SMALL
GASTEIGER

@<TRIPOS>ATOM
      1 C          -0.1627    0.0089   -0.0746 C.ar    1  LIG1       -0.0611
      2 C           1.1647    0.0880    0.3332 C.ar    1  LIG1       -0.0510
      3 C          -0.6528    0.8761   -1.0479 C.ar    1  LIG1       -0.0617
      4 C           2.0178    1.0351   -0.2450 C.ar    1  LIG1        0.0191
      5 H           1.5412   -0.5586    1.1166 H       1  LIG1        0.0625
      6 C           0.1929    1.8290   -1.6132 C.ar    1  LIG1       -0.0611
      7 C           1.5222    1.9101   -1.2176 C.ar    1  LIG1       -0.0510
      8 H          -0.1840    2.5078   -2.3671 H       1  LIG1        0.0618
      9 H          -1.6865    0.8131   -1.3613 H       1  LIG1        0.0618
     10 H          -0.8179   -0.7232    0.3791 H       1  LIG1        0.0618
     11 H           2.1856    2.6425   -1.6586 H       1  LIG1        0.0625
     12 C           3.4185    1.1158    0.1779 C.ar    1  LIG1        0.1562
     13 C           4.2652    0.2111    0.7551 C.ar    1  LIG1        0.0716
     14 C           5.5184    0.8863    0.9296 C.ar    1  LIG1        0.0056
     15 C           5.3434    2.1450    0.4350 C.ar    1  LIG1        0.1388
     16 O           4.0822    2.2828   -0.0264 O.2     1  LIG1       -0.4529
     17 N           3.9715   -1.1125    1.1217 N.pl3   1  LIG1       -0.3550
     18 H           3.4573   -1.6081    0.4006 H       1  LIG1        0.1424
     19 H           4.8051   -1.6297    1.3712 H       1  LIG1        0.1424
     20 H           6.4140    0.4758    1.3641 H       1  LIG1        0.0674
     21 C           7.5797    3.3150    0.5888 C.ar    1  LIG1        0.0631
     22 C           8.3302    4.4827    0.4644 C.ar    1  LIG1       -0.0341
     23 C           6.1984    3.3357    0.3216 C.ar    1  LIG1        0.0364
     24 C           7.7489    5.6809    0.0759 C.ar    1  LIG1        0.0052
     25 H           9.3919    4.4519    0.6732 H       1  LIG1        0.0637
     26 C           5.6164    4.5338   -0.0742 C.ar    1  LIG1       -0.0285
     27 C           6.3670    5.7095   -0.2093 C.ar    1  LIG1        0.0331
     28 H           4.5542    4.5536   -0.2796 H       1  LIG1        0.0643
     29 N           8.8429    1.1671    1.3040 N.1     1  LIG1       -0.1908
     30 C           8.2702    2.1110    0.9847 C.1     1  LIG1        0.0999
     31 N           5.7478    6.8798   -0.5841 N.pl3   1  LIG1       -0.3575
     32 H           6.3328    7.6127   -0.9581 H       1  LIG1        0.1423
     33 H           4.8376    6.7986   -1.0099 H       1  LIG1        0.1423
     34 C           9.6961    6.9805   -0.8793 C.ar    1  LIG1        0.0325
     35 C          10.4627    8.1502   -0.9439 C.ar    1  LIG1       -0.0446
     36 C           8.5748    6.9196   -0.0333 C.ar    1  LIG1        0.0004
     37 C          10.1216    9.2596   -0.1869 C.ar    1  LIG1       -0.0451
     38 H          11.3222    8.1743   -1.5994 H       1  LIG1        0.0630
     39 C           8.2408    8.0416    0.7262 C.ar    1  LIG1       -0.0374
     40 C           9.0040    9.2092    0.6534 C.ar    1  LIG1        0.0253
     41 H           7.3812    8.0039    1.3835 H       1  LIG1        0.0636
     42 H          10.7092   10.1656   -0.2374 H       1  LIG1        0.0630
     43 C          10.0737    5.8522   -1.6985 C.1     1  LIG1       -0.0691
     44 C          10.4096    4.9251   -2.3857 C.1     1  LIG1       -0.1139
     45 H          10.7004    4.0953   -2.9883 H       1  LIG1        0.1232
     46 C           8.6409   10.3578    1.4501 C.1     1  LIG1       -0.0696
     47 C           8.3391   11.3149    2.1106 C.1     1  LIG1       -0.1139
     48 H           8.0708   12.1625    2.6980 H       1  LIG1        0.1232
@<TRIPOS>BOND
     1    45    44    1
     2    44    43    3
     3     8     6    1
     4    43    34    1
     5    11     7    1
     6     6     7   ar
     7     6     3   ar
     8    38    35    1
     9     9     3    1
    10     7     4   ar
    11     3     1   ar
    12    33    31    1
    13    32    31    1
    14    35    34   ar
    15    35    37   ar
    16    34    36   ar
    17    31    27    1
    18    28    26    1
    19     4    12    1
    20     4     2   ar
    21    42    37    1
    22    27    26   ar
    23    27    24   ar
    24    37    40   ar
    25     1     2   ar
    26     1    10    1
    27    26    23   ar
    28    36    24    1
    29    36    39   ar
    30    16    12   ar
    31    16    15   ar
    32    24    22   ar
    33    12    13   ar
    34    23    15    1
    35    23    21   ar
    36     2     5    1
    37    18    17    1
    38    15    14   ar
    39    22    21   ar
    40    22    25    1
    41    21    30    1
    42    40    39   ar
    43    40    46    1
    44    39    41    1
    45    13    14   ar
    46    13    17    1
    47    14    20    1
    48    30    29    3
    49    17    19    1
    50    46    47    3
    51    47    48    1
