@<TRIPOS>MOLECULE
mol_data/opt/m06hf/geoms/mol2/4aa12fa6ii6ei-.out
 49 52 0 0 0
SMALL
GASTEIGER

@<TRIPOS>ATOM
      1 C           0.2153   -0.5304   -1.1325 C.ar    1  LIG1       -0.0611
      2 C           1.3198   -0.2290   -0.3436 C.ar    1  LIG1       -0.0510
      3 C          -0.1747    0.3247   -2.1609 C.ar    1  LIG1       -0.0617
      4 C           2.0432    0.9453   -0.5817 C.ar    1  LIG1        0.0209
      5 H           1.6273   -0.8927    0.4529 H       1  LIG1        0.0625
      6 C           0.5478    1.4918   -2.3980 C.ar    1  LIG1       -0.0611
      7 C           1.6516    1.8044   -1.6133 C.ar    1  LIG1       -0.0510
      8 H           0.2511    2.1623   -3.1938 H       1  LIG1        0.0618
      9 H          -1.0345    0.0838   -2.7721 H       1  LIG1        0.0618
     10 H          -0.3405   -1.4397   -0.9445 H       1  LIG1        0.0618
     11 H           2.2119    2.7127   -1.7902 H       1  LIG1        0.0625
     12 C           3.2029    1.2838    0.2467 C.ar    1  LIG1        0.1768
     13 C           3.7355    0.7444    1.3807 C.ar    1  LIG1        0.1632
     14 C           4.8679    1.5433    1.7399 C.ar    1  LIG1        0.0265
     15 C           4.9470    2.5161    0.7877 C.ar    1  LIG1        0.1410
     16 O           3.9545    2.3595   -0.1084 O.2     1  LIG1       -0.4510
     17 O           3.2524   -0.3541    2.0229 O.3     1  LIG1       -0.5032
     18 H           3.6258   -0.4096    2.9078 H       1  LIG1        0.2923
     19 H           5.5103    1.4255    2.5971 H       1  LIG1        0.0692
     20 C           5.5782    4.8363    0.0013 C.ar    1  LIG1        0.0496
     21 C           5.9109    3.6124    0.6089 C.ar    1  LIG1        0.0387
     22 C           7.2164    3.4379    1.0629 C.ar    1  LIG1       -0.0444
     23 C           8.1571    4.4573    0.9632 C.ar    1  LIG1       -0.0237
     24 C           7.7104    5.6501    0.3804 C.ar    1  LIG1        0.0769
     25 N           6.4782    5.8102   -0.1028 N.ar    1  LIG1       -0.2508
     26 H           7.5105    2.4788    1.4745 H       1  LIG1        0.0628
     27 C           4.2079    5.1381   -0.5712 C.3     1  LIG1       -0.0216
     28 H           3.4208    4.8599    0.1301 H       1  LIG1        0.0293
     29 H           4.0555    4.5756   -1.4934 H       1  LIG1        0.0293
     30 H           4.1690    6.2041   -0.7806 H       1  LIG1        0.0293
     31 C           9.5872    4.2412    1.4163 C.3     1  LIG1       -0.0377
     32 H           9.7160    4.5866    2.4423 H       1  LIG1        0.0278
     33 H          10.2777    4.7953    0.7802 H       1  LIG1        0.0278
     34 H           9.8319    3.1804    1.3617 H       1  LIG1        0.0278
     35 C           9.2069    7.5158    1.2582 C.ar    1  LIG1        0.1223
     36 C           8.6138    6.8279    0.1902 C.ar    1  LIG1        0.0347
     37 C           8.8502    7.3067   -1.0953 C.ar    1  LIG1       -0.0455
     38 C           9.6827    8.4032   -1.2937 C.ar    1  LIG1       -0.0316
     39 C          10.2403    8.9851   -0.1525 C.ar    1  LIG1        0.0319
     40 N          10.0077    8.5687    1.0854 N.ar    1  LIG1       -0.2458
     41 H           8.3706    6.8135   -1.9333 H       1  LIG1        0.0628
     42 H          10.8997    9.8410   -0.2479 H       1  LIG1        0.0832
     43 C           8.9270    7.1385    2.6322 C.1     1  LIG1       -0.0491
     44 C           8.6815    6.8422    3.7701 C.1     1  LIG1       -0.1124
     45 H           8.4626    6.5921    4.7822 H       1  LIG1        0.1232
     46 C           9.9699    8.9427   -2.6798 C.3     1  LIG1       -0.0383
     47 H          10.5959    9.8322   -2.6220 H       1  LIG1        0.0278
     48 H           9.0375    9.2033   -3.1822 H       1  LIG1        0.0278
     49 H          10.4854    8.1907   -3.2789 H       1  LIG1        0.0278
@<TRIPOS>BOND
     1    49    46    1
     2     8     6    1
     3    48    46    1
     4     9     3    1
     5    46    47    1
     6    46    38    1
     7     6     3   ar
     8     6     7   ar
     9     3     1   ar
    10    41    37    1
    11    11     7    1
    12     7     4   ar
    13    29    27    1
    14    38    37   ar
    15    38    39   ar
    16     1    10    1
    17     1     2   ar
    18    37    36   ar
    19    30    27    1
    20     4     2   ar
    21     4    12    1
    22    27    20    1
    23    27    28    1
    24     2     5    1
    25    42    39    1
    26    39    40   ar
    27    16    12   ar
    28    16    15   ar
    29    25    20   ar
    30    25    24   ar
    31    20    21   ar
    32    36    24    1
    33    36    35   ar
    34    12    13   ar
    35    24    23   ar
    36    21    15    1
    37    21    22   ar
    38    33    31    1
    39    15    14   ar
    40    23    22   ar
    41    23    31    1
    42    22    26    1
    43    40    35   ar
    44    35    43    1
    45    34    31    1
    46    13    14   ar
    47    13    17    1
    48    31    32    1
    49    14    19    1
    50    17    18    1
    51    43    44    3
    52    44    45    1
