@<TRIPOS>MOLECULE
mol_data/opt/m06hf/geoms/mol2/4aa12if6ad-13he-.out
 45 48 0 0 0
SMALL
GASTEIGER

@<TRIPOS>ATOM
      1 C          -0.1860    0.1654   -0.2919 C.ar    1  LIG1       -0.0611
      2 C           1.2017    0.1295   -0.3859 C.ar    1  LIG1       -0.0511
      3 C          -0.8196    1.2608    0.2883 C.ar    1  LIG1       -0.0617
      4 C           1.9641    1.1868    0.1168 C.ar    1  LIG1        0.0177
      5 H           1.6912   -0.7027   -0.8749 H       1  LIG1        0.0625
      6 C          -0.0611    2.3242    0.7747 C.ar    1  LIG1       -0.0611
      7 C           1.3253    2.2894    0.6933 C.ar    1  LIG1       -0.0511
      8 H          -0.5505    3.1788    1.2231 H       1  LIG1        0.0618
      9 H          -1.8992    1.2895    0.3557 H       1  LIG1        0.0618
     10 H          -0.7714   -0.6550   -0.6852 H       1  LIG1        0.0618
     11 H           1.9224    3.1062    1.0765 H       1  LIG1        0.0625
     12 C           3.4327    1.1574    0.0359 C.ar    1  LIG1        0.1422
     13 C           4.3447    0.1421    0.0545 C.ar    1  LIG1        0.0374
     14 C           5.6210    0.7956   -0.0372 C.ar    1  LIG1        0.1662
     15 C           5.3989    2.1369   -0.0896 C.ar    1  LIG1        0.1786
     16 O           4.0610    2.3532   -0.0389 O.2     1  LIG1       -0.4507
     17 C           4.1376   -1.3419    0.2199 C.3     1  LIG1       -0.0326
     18 H           4.9733   -1.7614    0.7829 H       1  LIG1        0.0280
     19 H           4.0752   -1.8507   -0.7445 H       1  LIG1        0.0280
     20 H           3.2207   -1.5338    0.7765 H       1  LIG1        0.0280
     21 O           6.8484    0.2055   -0.0180 O.3     1  LIG1       -0.5030
     22 H           6.8163   -0.6417   -0.4756 H       1  LIG1        0.2923
     23 C           5.7660    4.5841   -0.3448 C.ar    1  LIG1        0.0392
     24 C           6.2857    3.2892   -0.1943 C.ar    1  LIG1        0.0403
     25 C           7.6695    3.1560   -0.2002 C.ar    1  LIG1       -0.0300
     26 C           8.4572    4.3009   -0.3125 C.ar    1  LIG1        0.0798
     27 C           7.8546    5.5711   -0.3609 C.ar    1  LIG1        0.1062
     28 N           6.5155    5.6687   -0.4169 N.ar    1  LIG1       -0.2514
     29 H           8.1299    2.1784   -0.1430 H       1  LIG1        0.0639
     30 H           4.6941    4.7281   -0.4051 H       1  LIG1        0.0837
     31 N          10.9962    3.9530   -0.6890 N.1     1  LIG1       -0.1908
     32 C           9.8770    4.1272   -0.4975 C.1     1  LIG1        0.1014
     33 C           8.5597    6.8476   -0.3820 C.ar    1  LIG1        0.0884
     34 C           9.7686    7.3272    0.1172 C.ar    1  LIG1        0.0673
     35 C           9.7654    8.7403   -0.1120 C.ar    1  LIG1        0.0632
     36 C           8.5633    9.0647   -0.7166 C.ar    1  LIG1        0.0195
     37 N           7.8614    7.9340   -0.8726 N.ar    1  LIG1       -0.3568
     38 H           6.9170    7.8337   -1.2150 H       1  LIG1        0.1655
     39 H           8.1950   10.0234   -1.0379 H       1  LIG1        0.0820
     40 N          10.7631    6.6752    0.8342 N.pl3   1  LIG1       -0.3553
     41 H          11.1429    5.8396    0.4091 H       1  LIG1        0.1424
     42 H          11.4938    7.3184    1.1149 H       1  LIG1        0.1424
     43 C          10.8319    9.6196    0.2557 C.1     1  LIG1       -0.0663
     44 C          11.7554   10.3166    0.5862 C.1     1  LIG1       -0.1138
     45 H          12.5680   10.9417    0.8754 H       1  LIG1        0.1232
@<TRIPOS>BOND
     1    38    37    1
     2    39    36    1
     3     5     2    1
     4    37    36   ar
     5    37    33   ar
     6    19    17    1
     7    36    35   ar
     8    31    32    3
     9    10     1    1
    10    32    26    1
    11    22    21    1
    12    28    27   ar
    13    28    23   ar
    14    30    23    1
    15     2     1   ar
    16     2     4   ar
    17    33    27    1
    18    33    34   ar
    19    27    26   ar
    20    23    24   ar
    21    26    25   ar
    22     1     3   ar
    23    25    24   ar
    24    25    29    1
    25    24    15    1
    26    35    34   ar
    27    35    43    1
    28    15    16   ar
    29    15    14   ar
    30    16    12   ar
    31    14    21    1
    32    14    13   ar
    33    12    13   ar
    34    12     4    1
    35    13    17    1
    36     4     7   ar
    37    34    40    1
    38    17    20    1
    39    17    18    1
    40    43    44    3
    41     3     9    1
    42     3     6   ar
    43    41    40    1
    44    44    45    1
    45     7     6   ar
    46     7    11    1
    47     6     8    1
    48    40    42    1
