@<TRIPOS>MOLECULE
mol_data/opt/m06hf/geoms/mol2/4aa12dl13il-12id-.out
 50 53 0 0 0
SMALL
GASTEIGER

@<TRIPOS>ATOM
      1 C          -0.3397    0.1173    0.0960 C.ar    1  LIG1       -0.0611
      2 C           1.0442    0.0109    0.0187 C.ar    1  LIG1       -0.0510
      3 C          -0.9329    1.3140    0.4911 C.ar    1  LIG1       -0.0617
      4 C           1.8404    1.1122    0.3463 C.ar    1  LIG1        0.0187
      5 H           1.4987   -0.9192   -0.2958 H       1  LIG1        0.0625
      6 C          -0.1375    2.4113    0.8138 C.ar    1  LIG1       -0.0611
      7 C           1.2465    2.3138    0.7438 C.ar    1  LIG1       -0.0510
      8 H          -0.5944    3.3409    1.1253 H       1  LIG1        0.0618
      9 H          -2.0105    1.3913    0.5489 H       1  LIG1        0.0618
     10 H          -0.9547   -0.7358   -0.1577 H       1  LIG1        0.0618
     11 H           1.8718    3.1570    1.0049 H       1  LIG1        0.0625
     12 C           3.3057    1.0269    0.2823 C.ar    1  LIG1        0.1568
     13 C           4.1964   -0.0091    0.2110 C.ar    1  LIG1        0.1396
     14 C           5.5141    0.5785    0.1985 C.ar    1  LIG1        0.1852
     15 C           5.3302    1.9232    0.2686 C.ar    1  LIG1        0.1948
     16 O           3.9947    2.1836    0.3184 O.2     1  LIG1       -0.4482
     17 N           3.7172   -2.5412    0.1079 N.1     1  LIG1       -0.1906
     18 C           3.9208   -1.4125    0.1668 C.1     1  LIG1        0.1067
     19 O           6.6844   -0.0941    0.1306 O.3     1  LIG1       -0.4901
     20 C           7.0586   -0.4691   -1.2001 C.3     1  LIG1        0.0790
     21 H           8.0125   -0.9817   -1.1079 H       1  LIG1        0.0660
     22 H           6.3109   -1.1396   -1.6264 H       1  LIG1        0.0660
     23 H           7.1629    0.4254   -1.8166 H       1  LIG1        0.0660
     24 C           6.2326    3.0613    0.2688 C.ar    1  LIG1        0.0929
     25 C           7.5626    3.1691    0.6369 C.ar    1  LIG1        0.0203
     26 C           7.9042    4.5289    0.4240 C.ar    1  LIG1        0.1519
     27 C           6.7921    5.2030   -0.0500 C.ar    1  LIG1        0.1253
     28 N           5.7871    4.2853   -0.1399 N.ar    1  LIG1       -0.3461
     29 H           4.8521    4.4842   -0.4626 H       1  LIG1        0.1662
     30 C           8.4895    2.1196    1.1951 C.3     1  LIG1       -0.0341
     31 H           9.2741    2.6200    1.7623 H       1  LIG1        0.0279
     32 H           8.9494    1.5345    0.3963 H       1  LIG1        0.0279
     33 H           7.9443    1.4335    1.8415 H       1  LIG1        0.0279
     34 O           9.1353    5.0670    0.6672 O.3     1  LIG1       -0.4926
     35 C           9.9606    5.1400   -0.4954 C.3     1  LIG1        0.0789
     36 H          10.9040    5.5761   -0.1751 H       1  LIG1        0.0660
     37 H          10.1241    4.1388   -0.8998 H       1  LIG1        0.0660
     38 H           9.4894    5.7724   -1.2508 H       1  LIG1        0.0660
     39 C           6.5765    6.5908   -0.4368 C.ar    1  LIG1        0.1586
     40 C           7.1687    7.7724   -0.1148 C.ar    1  LIG1        0.0142
     41 C           6.4384    8.7591   -0.8809 C.ar    1  LIG1        0.0929
     42 C           5.4739    8.1041   -1.5747 C.ar    1  LIG1        0.1102
     43 O           5.5516    6.7928   -1.3165 O.2     1  LIG1       -0.4598
     44 H           4.7067    8.4365   -2.2516 H       1  LIG1        0.1043
     45 C           8.2909    8.0681    0.8441 C.3     1  LIG1       -0.0348
     46 H           7.9460    8.7779    1.5970 H       1  LIG1        0.0279
     47 H           9.1254    8.5213    0.3056 H       1  LIG1        0.0279
     48 H           8.6289    7.1513    1.3217 H       1  LIG1        0.0279
     49 N           6.8878   11.3026   -0.8643 N.1     1  LIG1       -0.1908
     50 C           6.6789   10.1743   -0.8821 C.1     1  LIG1        0.1026
@<TRIPOS>BOND
     1    44    42    1
     2    23    20    1
     3    22    20    1
     4    42    43   ar
     5    42    41   ar
     6    43    39   ar
     7    38    35    1
     8    20    21    1
     9    20    19    1
    10    37    35    1
    11    50    41    1
    12    50    49    3
    13    41    40   ar
    14    35    36    1
    15    35    34    1
    16    29    28    1
    17    39    40   ar
    18    39    27    1
    19     5     2    1
    20    10     1    1
    21    28    27   ar
    22    28    24   ar
    23    40    45    1
    24    27    26   ar
    25     2     1   ar
    26     2     4   ar
    27     1     3   ar
    28    17    18    3
    29    19    14    1
    30    18    13    1
    31    14    13   ar
    32    14    15   ar
    33    13    12   ar
    34    15    24    1
    35    15    16   ar
    36    24    25   ar
    37    12    16   ar
    38    12     4    1
    39    47    45    1
    40     4     7   ar
    41    32    30    1
    42    26    25   ar
    43    26    34    1
    44     3     9    1
    45     3     6   ar
    46    25    30    1
    47     7     6   ar
    48     7    11    1
    49     6     8    1
    50    45    48    1
    51    45    46    1
    52    30    31    1
    53    30    33    1
