@<TRIPOS>MOLECULE
mol_data/opt/m06hf/geoms/mol2/4aa4aa4aa4aa-.out
 42 45 0 0 0
SMALL
GASTEIGER

@<TRIPOS>ATOM
      1 C          -0.2418    0.1416    0.4758 C.ar    1  LIG1       -0.0612
      2 C           1.1495    0.1230    0.4774 C.ar    1  LIG1       -0.0540
      3 C          -0.9253    1.2567   -0.0021 C.ar    1  LIG1       -0.0617
      4 C           1.8735    1.2189    0.0005 C.ar    1  LIG1       -0.0179
      5 H           1.6816   -0.7345    0.8707 H       1  LIG1        0.0624
      6 C          -0.2111    2.3530   -0.4787 C.ar    1  LIG1       -0.0612
      7 C           1.1803    2.3340   -0.4777 C.ar    1  LIG1       -0.0540
      8 H          -0.7359    3.2199   -0.8584 H       1  LIG1        0.0618
      9 H          -2.0075    1.2713   -0.0031 H       1  LIG1        0.0618
     10 H          -0.7906   -0.7109    0.8545 H       1  LIG1        0.0618
     11 H           1.7361    3.1768   -0.8700 H       1  LIG1        0.0624
     12 C           4.0637    0.0736   -0.4454 C.ar    1  LIG1       -0.0535
     13 C           5.4536    0.0550   -0.4447 C.ar    1  LIG1       -0.0535
     14 C           3.3662    1.1988    0.0019 C.ar    1  LIG1       -0.0178
     15 C           6.1804    1.1608    0.0046 C.ar    1  LIG1       -0.0178
     16 H           5.9820   -0.8109   -0.8241 H       1  LIG1        0.0624
     17 C           4.0930    2.3047    0.4506 C.ar    1  LIG1       -0.0535
     18 C           5.4829    2.2857    0.4525 C.ar    1  LIG1       -0.0535
     19 H           3.5641    3.1709    0.8288 H       1  LIG1        0.0624
     20 H           3.5123   -0.7780   -0.8246 H       1  LIG1        0.0624
     21 H           6.0337    3.1371    0.8330 H       1  LIG1        0.0624
     22 C           8.3689    0.0175    0.4597 C.ar    1  LIG1       -0.0535
     23 C           9.7588   -0.0015    0.4604 C.ar    1  LIG1       -0.0535
     24 C           7.6722    1.1406    0.0060 C.ar    1  LIG1       -0.0178
     25 C          10.4864    1.1026    0.0087 C.ar    1  LIG1       -0.0178
     26 H          10.2870   -0.8661    0.8431 H       1  LIG1        0.0624
     27 C           8.3999    2.2446   -0.4464 C.ar    1  LIG1       -0.0535
     28 C           9.7897    2.2260   -0.4445 C.ar    1  LIG1       -0.0535
     29 H           7.8722    3.1090   -0.8303 H       1  LIG1        0.0624
     30 H           7.8174   -0.8324    0.8426 H       1  LIG1        0.0624
     31 H          10.3418    3.0760   -0.8261 H       1  LIG1        0.0624
     32 C          12.7022    2.1803    0.4838 C.ar    1  LIG1       -0.0540
     33 C          14.0936    2.1617    0.4848 C.ar    1  LIG1       -0.0612
     34 C          11.9791    1.0825    0.0101 C.ar    1  LIG1       -0.0179
     35 C          14.7780    1.0447    0.0127 C.ar    1  LIG1       -0.0617
     36 H          14.6416    3.0157    0.8611 H       1  LIG1        0.0618
     37 C          12.6732   -0.0345   -0.4624 C.ar    1  LIG1       -0.0540
     38 C          14.0646   -0.0535   -0.4608 C.ar    1  LIG1       -0.0612
     39 H          12.1181   -0.8789   -0.8523 H       1  LIG1        0.0624
     40 H          15.8601    1.0301    0.0137 H       1  LIG1        0.0618
     41 H          12.1694    3.0394    0.8727 H       1  LIG1        0.0624
     42 H          14.5901   -0.9220   -0.8360 H       1  LIG1        0.0618
@<TRIPOS>BOND
     1    11     7    1
     2     8     6    1
     3    39    37    1
     4    42    38    1
     5    29    27    1
     6    31    28    1
     7    20    12    1
     8    16    13    1
     9     6     7   ar
    10     6     3   ar
    11     7     4   ar
    12    37    38   ar
    13    37    34   ar
    14    38    35   ar
    15    27    28   ar
    16    27    24   ar
    17    12    13   ar
    18    12    14   ar
    19    13    15   ar
    20    28    25   ar
    21     9     3    1
    22     3     1   ar
    23     4    14    1
    24     4     2   ar
    25    14    17   ar
    26    15    24    1
    27    15    18   ar
    28    24    22   ar
    29    25    34    1
    30    25    23   ar
    31    34    32   ar
    32    35    40    1
    33    35    33   ar
    34    17    18   ar
    35    17    19    1
    36    18    21    1
    37    22    23   ar
    38    22    30    1
    39    23    26    1
    40     1     2   ar
    41     1    10    1
    42     2     5    1
    43    32    33   ar
    44    32    41    1
    45    33    36    1
