@<TRIPOS>MOLECULE
mol_data/opt/m06hf/geoms/mol2/4aa4aa4aa.out
 32 34 0 0 0
SMALL
GASTEIGER

@<TRIPOS>ATOM
      1 C          -0.1314    0.3723    0.8328 C.ar    1  LIG1       -0.0612
      2 C           1.2598    0.3535    0.8333 C.ar    1  LIG1       -0.0540
      3 C          -0.8184    1.2564    0.0049 C.ar    1  LIG1       -0.0617
      4 C           1.9813    1.2164    0.0036 C.ar    1  LIG1       -0.0179
      5 H           1.7945   -0.3157    1.4963 H       1  LIG1        0.0624
      6 C          -0.1072    2.1206   -0.8236 C.ar    1  LIG1       -0.0612
      7 C           1.2840    2.0996   -0.8254 C.ar    1  LIG1       -0.0540
      8 H          -0.6353    2.8049   -1.4749 H       1  LIG1        0.0618
      9 H          -1.9005    1.2719    0.0055 H       1  LIG1        0.0618
     10 H          -0.6782   -0.2967    1.4847 H       1  LIG1        0.0618
     11 H           1.8370    2.7532   -1.4889 H       1  LIG1        0.0624
     12 C           4.1695   -0.0169    0.0014 C.ar    1  LIG1       -0.0535
     13 C           5.5594   -0.0366    0.0037 C.ar    1  LIG1       -0.0535
     14 C           3.4738    1.1951    0.0029 C.ar    1  LIG1       -0.0178
     15 C           6.2892    1.1552    0.0015 C.ar    1  LIG1       -0.0178
     16 H           6.0855   -0.9829    0.0225 H       1  LIG1        0.0624
     17 C           4.2036    2.3869    0.0036 C.ar    1  LIG1       -0.0535
     18 C           5.5935    2.3672   -0.0001 C.ar    1  LIG1       -0.0535
     19 H           3.6775    3.3332    0.0223 H       1  LIG1        0.0624
     20 H           3.6168   -0.9479   -0.0168 H       1  LIG1        0.0624
     21 H           6.1462    3.2982   -0.0195 H       1  LIG1        0.0624
     22 C           8.4784    0.2503   -0.8282 C.ar    1  LIG1       -0.0540
     23 C           9.8695    0.2295   -0.8278 C.ar    1  LIG1       -0.0612
     24 C           7.7817    1.1340    0.0007 C.ar    1  LIG1       -0.0179
     25 C          10.5814    1.0945   -0.0006 C.ar    1  LIG1       -0.0617
     26 H          10.3971   -0.4553   -1.4790 H       1  LIG1        0.0618
     27 C           8.5039    1.9978    0.8289 C.ar    1  LIG1       -0.0540
     28 C           9.8951    1.9792    0.8272 C.ar    1  LIG1       -0.0612
     29 H           7.9697    2.6674    1.4919 H       1  LIG1        0.0624
     30 H          11.6635    1.0792   -0.0012 H       1  LIG1        0.0618
     31 H           7.9249   -0.4040   -1.4907 H       1  LIG1        0.0624
     32 H          10.4424    2.6488    1.4779 H       1  LIG1        0.0618
@<TRIPOS>BOND
     1    31    22    1
     2    11     7    1
     3    26    23    1
     4     8     6    1
     5    22    23   ar
     6    22    24   ar
     7    23    25   ar
     8     7     6   ar
     9     7     4   ar
    10     6     3   ar
    11    21    18    1
    12    20    12    1
    13    30    25    1
    14    25    28   ar
    15    18    15   ar
    16    18    17   ar
    17    24    15    1
    18    24    27   ar
    19    12    14   ar
    20    12    13   ar
    21    15    13   ar
    22    14     4    1
    23    14    17   ar
    24     4     2   ar
    25    17    19    1
    26    13    16    1
    27     3     9    1
    28     3     1   ar
    29    28    27   ar
    30    28    32    1
    31    27    29    1
    32     1     2   ar
    33     1    10    1
    34     2     5    1
