@<TRIPOS>MOLECULE
mol_data/opt/m06hf/geoms/mol2/4aa4aa-12al-4il.out
 50 53 0 0 0
SMALL
GASTEIGER

@<TRIPOS>ATOM
      1 C          -0.2647    0.3253   -0.5115 C.ar    1  LIG1       -0.0612
      2 C           1.1237    0.3113   -0.5995 C.ar    1  LIG1       -0.0540
      3 C          -0.9015    1.2030    0.3621 C.ar    1  LIG1       -0.0617
      4 C           1.8931    1.1724    0.1879 C.ar    1  LIG1       -0.0179
      5 H           1.6173   -0.3524   -1.2989 H       1  LIG1        0.0624
      6 C          -0.1424    2.0660    1.1483 C.ar    1  LIG1       -0.0612
      7 C           1.2460    2.0495    1.0629 C.ar    1  LIG1       -0.0540
      8 H          -0.6306    2.7455    1.8347 H       1  LIG1        0.0618
      9 H          -1.9816    1.2151    0.4297 H       1  LIG1        0.0618
     10 H          -0.8491   -0.3420   -1.1316 H       1  LIG1        0.0618
     11 H           1.8370    2.7015    1.6944 H       1  LIG1        0.0624
     12 C           4.0803   -0.0539    0.0420 C.ar    1  LIG1       -0.0534
     13 C           5.4658   -0.0711   -0.0356 C.ar    1  LIG1       -0.0505
     14 C           3.3819    1.1565    0.0981 C.ar    1  LIG1       -0.0178
     15 C           6.1849    1.1264   -0.0610 C.ar    1  LIG1        0.0174
     16 H           5.9895   -1.0182   -0.0564 H       1  LIG1        0.0625
     17 C           4.1081    2.3502    0.0749 C.ar    1  LIG1       -0.0534
     18 C           5.4947    2.3399   -0.0023 C.ar    1  LIG1       -0.0505
     19 H           3.5789    3.2948    0.0942 H       1  LIG1        0.0624
     20 H           3.5321   -0.9866    0.0904 H       1  LIG1        0.0624
     21 H           6.0504    3.2679   -0.0250 H       1  LIG1        0.0625
     22 C           7.6521    1.1214   -0.1471 C.ar    1  LIG1        0.1393
     23 C           8.5672    0.1347   -0.3656 C.ar    1  LIG1        0.0267
     24 C           9.8476    0.7845   -0.3314 C.ar    1  LIG1        0.1662
     25 C           9.6213    2.1090   -0.0800 C.ar    1  LIG1        0.1774
     26 O           8.2782    2.2993    0.0170 O.2     1  LIG1       -0.4510
     27 H           8.3600   -0.9050   -0.5497 H       1  LIG1        0.0692
     28 O          11.0672    0.2430   -0.5579 O.3     1  LIG1       -0.4913
     29 C          11.0971   -1.1636   -0.7195 C.3     1  LIG1        0.0790
     30 H          12.1426   -1.4289   -0.8506 H       1  LIG1        0.0660
     31 H          10.6956   -1.6612    0.1669 H       1  LIG1        0.0660
     32 H          10.5285   -1.4602   -1.6044 H       1  LIG1        0.0660
     33 C          11.7086    3.2990    0.6885 C.ar    1  LIG1       -0.0395
     34 C          12.4391    4.4826    0.6978 C.ar    1  LIG1       -0.0547
     35 C          10.4778    3.3049    0.0045 C.ar    1  LIG1        0.0273
     36 C          11.9907    5.6508    0.0829 C.ar    1  LIG1       -0.0197
     37 H          13.3893    4.5032    1.2180 H       1  LIG1        0.0622
     38 C          10.0083    4.4681   -0.6008 C.ar    1  LIG1       -0.0089
     39 C          10.7556    5.6434   -0.5616 C.ar    1  LIG1        0.1208
     40 H           9.0578    4.4775   -1.1172 H       1  LIG1        0.0661
     41 H          12.5988    6.5430    0.1278 H       1  LIG1        0.0654
     42 C          12.2263    2.0815    1.4297 C.3     1  LIG1       -0.0390
     43 H          12.9496    2.3924    2.1838 H       1  LIG1        0.0278
     44 H          12.6987    1.3823    0.7404 H       1  LIG1        0.0278
     45 H          11.4029    1.5604    1.9211 H       1  LIG1        0.0278
     46 O          10.2037    6.7223   -1.1794 O.3     1  LIG1       -0.4951
     47 C          10.9411    7.9271   -1.1816 C.3     1  LIG1        0.0788
     48 H          10.3330    8.6486   -1.7207 H       1  LIG1        0.0660
     49 H          11.1123    8.2797   -0.1611 H       1  LIG1        0.0660
     50 H          11.8984    7.7958   -1.6929 H       1  LIG1        0.0660
@<TRIPOS>BOND
     1    48    47    1
     2    50    47    1
     3    32    29    1
     4     5     2    1
     5    47    46    1
     6    47    49    1
     7    46    39    1
     8    10     1    1
     9    40    38    1
    10    30    29    1
    11    29    28    1
    12    29    31    1
    13    38    39   ar
    14    38    35   ar
    15     2     1   ar
    16     2     4   ar
    17    39    36   ar
    18    28    24    1
    19    27    23    1
    20     1     3   ar
    21    23    24   ar
    22    23    22   ar
    23    24    25   ar
    24    22    15    1
    25    22    26   ar
    26    25    35    1
    27    25    26   ar
    28    15    13   ar
    29    15    18   ar
    30    16    13    1
    31    13    12   ar
    32    21    18    1
    33    18    17   ar
    34    35    33   ar
    35    12    20    1
    36    12    14   ar
    37    17    19    1
    38    17    14   ar
    39    36    41    1
    40    36    34   ar
    41    14     4    1
    42     4     7   ar
    43     3     9    1
    44     3     6   ar
    45    33    34   ar
    46    33    42    1
    47    34    37    1
    48    44    42    1
    49     7     6   ar
    50     7    11    1
    51     6     8    1
    52    42    45    1
    53    42    43    1
