@<TRIPOS>MOLECULE
mol_data/opt/m06hf/geoms/mol2/4aa4aa4aa-4aa.out
 42 45 0 0 0
SMALL
GASTEIGER

@<TRIPOS>ATOM
      1 C          -0.2477    0.3865    0.8145 C.ar    1  LIG1       -0.0612
      2 C           1.1433    0.3571    0.8174 C.ar    1  LIG1       -0.0540
      3 C          -0.9264    1.2859   -0.0038 C.ar    1  LIG1       -0.0617
      4 C           1.8728    1.2245   -0.0004 C.ar    1  LIG1       -0.0179
      5 H           1.6715   -0.3242    1.4732 H       1  LIG1        0.0624
      6 C          -0.2070    2.1546   -0.8205 C.ar    1  LIG1       -0.0612
      7 C           1.1840    2.1230   -0.8199 C.ar    1  LIG1       -0.0540
      8 H          -0.7286    2.8509   -1.4643 H       1  LIG1        0.0618
      9 H          -2.0083    1.3096   -0.0051 H       1  LIG1        0.0618
     10 H          -0.8009   -0.2862    1.4570 H       1  LIG1        0.0618
     11 H           1.7431    2.7805   -1.4744 H       1  LIG1        0.0624
     12 C           4.0515   -0.0255   -0.0100 C.ar    1  LIG1       -0.0535
     13 C           5.4411   -0.0561   -0.0052 C.ar    1  LIG1       -0.0535
     14 C           3.3651    1.1918    0.0014 C.ar    1  LIG1       -0.0178
     15 C           6.1801    1.1301    0.0047 C.ar    1  LIG1       -0.0178
     16 H           5.9597   -1.0066    0.0061 H       1  LIG1        0.0624
     17 C           4.1042    2.3779    0.0144 C.ar    1  LIG1       -0.0535
     18 C           5.4938    2.3475    0.0129 C.ar    1  LIG1       -0.0535
     19 H           3.5854    3.3281    0.0410 H       1  LIG1        0.0624
     20 H           3.4917   -0.9520   -0.0378 H       1  LIG1        0.0624
     21 H           6.0536    3.2744    0.0029 H       1  LIG1        0.0624
     22 C           8.4023    1.9542    0.8342 C.ar    1  LIG1       -0.0535
     23 C           9.7918    1.9240    0.8353 C.ar    1  LIG1       -0.0535
     24 C           7.6715    1.0974    0.0064 C.ar    1  LIG1       -0.0178
     25 C          10.4862    1.0359    0.0095 C.ar    1  LIG1       -0.0178
     26 H          10.3458    2.5704    1.5050 H       1  LIG1        0.0624
     27 C           8.3660    0.2095   -0.8199 C.ar    1  LIG1       -0.0535
     28 C           9.7555    0.1789   -0.8179 C.ar    1  LIG1       -0.0535
     29 H           7.8126   -0.4361   -1.4907 H       1  LIG1        0.0624
     30 H           7.8762    2.6235    1.5039 H       1  LIG1        0.0624
     31 H          10.2822   -0.4910   -1.4865 H       1  LIG1        0.0624
     32 C          12.6610   -0.2161    0.0258 C.ar    1  LIG1       -0.0540
     33 C          14.0522   -0.2466    0.0260 C.ar    1  LIG1       -0.0612
     34 C          11.9784    1.0034    0.0110 C.ar    1  LIG1       -0.0179
     35 C          14.7772    0.9424    0.0138 C.ar    1  LIG1       -0.0617
     36 H          14.5685   -1.1974    0.0447 H       1  LIG1        0.0618
     37 C          12.7135    2.1920   -0.0023 C.ar    1  LIG1       -0.0540
     38 C          14.1047    2.1618    0.0003 C.ar    1  LIG1       -0.0612
     39 H          12.1905    3.1395   -0.0392 H       1  LIG1        0.0624
     40 H          15.8592    0.9188    0.0149 H       1  LIG1        0.0618
     41 H          12.0970   -1.1400    0.0616 H       1  LIG1        0.0624
     42 H          14.6620    3.0892   -0.0173 H       1  LIG1        0.0618
@<TRIPOS>BOND
     1    29    27    1
     2    31    28    1
     3    11     7    1
     4     8     6    1
     5     6     7   ar
     6     6     3   ar
     7     7     4   ar
     8    27    28   ar
     9    27    24   ar
    10    28    25   ar
    11    39    37    1
    12    20    12    1
    13    42    38    1
    14    12    13   ar
    15    12    14   ar
    16    13    15   ar
    17    13    16    1
    18     9     3    1
    19     3     1   ar
    20    37    38   ar
    21    37    34   ar
    22     4    14    1
    23     4     2   ar
    24    38    35   ar
    25    14    17   ar
    26    21    18    1
    27    15    24    1
    28    15    18   ar
    29    24    22   ar
    30    25    34    1
    31    25    23   ar
    32    34    32   ar
    33    18    17   ar
    34    35    40    1
    35    35    33   ar
    36    17    19    1
    37    32    33   ar
    38    32    41    1
    39    33    36    1
    40     1     2   ar
    41     1    10    1
    42     2     5    1
    43    22    23   ar
    44    22    30    1
    45    23    26    1
