@<TRIPOS>MOLECULE
mol_data/opt/m06hf/geoms/mol2/4aa4aa.out
 22 23 0 0 0
SMALL
GASTEIGER

@<TRIPOS>ATOM
      1 C          -0.0305    0.1458    0.4678 C.ar    1  LIG1       -0.0612
      2 C           1.3608    0.1209    0.4696 C.ar    1  LIG1       -0.0540
      3 C          -0.7089    1.2667   -0.0037 C.ar    1  LIG1       -0.0617
      4 C           2.0902    1.2161   -0.0004 C.ar    1  LIG1       -0.0179
      5 H           1.8891   -0.7416    0.8571 H       1  LIG1        0.0624
      6 C           0.0107    2.3624   -0.4737 C.ar    1  LIG1       -0.0612
      7 C           1.4019    2.3370   -0.4723 C.ar    1  LIG1       -0.0540
      8 H          -0.5100    3.2340   -0.8486 H       1  LIG1        0.0618
      9 H          -1.7909    1.2863   -0.0050 H       1  LIG1        0.0618
     10 H          -0.5833   -0.7065    0.8413 H       1  LIG1        0.0618
     11 H           1.9621    3.1796   -0.8588 H       1  LIG1        0.0624
     12 C           4.2728    0.0683   -0.4682 C.ar    1  LIG1       -0.0540
     13 C           5.6641    0.0432   -0.4663 C.ar    1  LIG1       -0.0612
     14 C           3.5832    1.1893    0.0012 C.ar    1  LIG1       -0.0179
     15 C           6.3823    1.1393    0.0045 C.ar    1  LIG1       -0.0617
     16 H           6.1859   -0.8286   -0.8393 H       1  LIG1        0.0618
     17 C           4.3113    2.2850    0.4724 C.ar    1  LIG1       -0.0540
     18 C           5.7025    2.2605    0.4738 C.ar    1  LIG1       -0.0612
     19 H           3.7817    3.1474    0.8584 H       1  LIG1        0.0624
     20 H           7.4643    1.1201    0.0057 H       1  LIG1        0.0618
     21 H           3.7138   -0.7749   -0.8552 H       1  LIG1        0.0624
     22 H           6.2542    3.1130    0.8481 H       1  LIG1        0.0618
@<TRIPOS>BOND
     1    11     7    1
     2    21    12    1
     3     8     6    1
     4    16    13    1
     5     6     7   ar
     6     6     3   ar
     7     7     4   ar
     8    12    13   ar
     9    12    14   ar
    10    13    15   ar
    11     9     3    1
    12     3     1   ar
    13     4    14    1
    14     4     2   ar
    15    14    17   ar
    16    15    20    1
    17    15    18   ar
    18     1     2   ar
    19     1    10    1
    20     2     5    1
    21    17    18   ar
    22    17    19    1
    23    18    22    1
