@<TRIPOS>MOLECULE
mol_data/opt/m06hf/geoms/mol2/4aa4aa4aa-4aa-.out
 42 45 0 0 0
SMALL
GASTEIGER

@<TRIPOS>ATOM
      1 C          -0.2505    0.4054    0.8178 C.ar    1  LIG1       -0.0612
      2 C           1.1404    0.3710    0.8206 C.ar    1  LIG1       -0.0540
      3 C          -0.9260    1.3040   -0.0040 C.ar    1  LIG1       -0.0617
      4 C           1.8730    1.2326   -0.0007 C.ar    1  LIG1       -0.0179
      5 H           1.6663   -0.3096    1.4790 H       1  LIG1        0.0624
      6 C          -0.2036    2.1669   -0.8241 C.ar    1  LIG1       -0.0612
      7 C           1.1872    2.1303   -0.8236 C.ar    1  LIG1       -0.0540
      8 H          -0.7228    2.8625   -1.4706 H       1  LIG1        0.0618
      9 H          -2.0078    1.3316   -0.0053 H       1  LIG1        0.0618
     10 H          -0.8060   -0.2628    1.4630 H       1  LIG1        0.0618
     11 H           1.7487    2.7832   -1.4808 H       1  LIG1        0.0624
     12 C           4.0472   -0.0253   -0.0058 C.ar    1  LIG1       -0.0535
     13 C           5.4366   -0.0609   -0.0010 C.ar    1  LIG1       -0.0535
     14 C           3.3651    1.1945    0.0010 C.ar    1  LIG1       -0.0178
     15 C           6.1798    1.1227    0.0044 C.ar    1  LIG1       -0.0178
     16 H           5.9518   -1.0132    0.0139 H       1  LIG1        0.0624
     17 C           4.1085    2.3780    0.0095 C.ar    1  LIG1       -0.0535
     18 C           5.4979    2.3426    0.0080 C.ar    1  LIG1       -0.0535
     19 H           3.5931    3.3301    0.0325 H       1  LIG1        0.0624
     20 H           3.4840   -0.9499   -0.0300 H       1  LIG1        0.0624
     21 H           6.0611    3.2674   -0.0055 H       1  LIG1        0.0624
     22 C           8.4051    1.9418    0.8308 C.ar    1  LIG1       -0.0535
     23 C           9.7944    1.9065    0.8320 C.ar    1  LIG1       -0.0535
     24 C           7.6712    1.0846    0.0061 C.ar    1  LIG1       -0.0178
     25 C          10.4856    1.0128    0.0095 C.ar    1  LIG1       -0.0178
     26 H          10.3508    2.5533    1.4993 H       1  LIG1        0.0624
     27 C           8.3624    0.1911   -0.8168 C.ar    1  LIG1       -0.0535
     28 C           9.7517    0.1554   -0.8147 C.ar    1  LIG1       -0.0535
     29 H           7.8066   -0.4550   -1.4853 H       1  LIG1        0.0624
     30 H           7.8814    2.6155    1.4980 H       1  LIG1        0.0624
     31 H          10.2760   -0.5190   -1.4807 H       1  LIG1        0.0624
     32 C          12.7172    2.1605   -0.0063 C.ar    1  LIG1       -0.0540
     33 C          14.1083    2.1251   -0.0034 C.ar    1  LIG1       -0.0612
     34 C          11.9776    0.9747    0.0113 C.ar    1  LIG1       -0.0179
     35 C          14.7762    0.9032    0.0147 C.ar    1  LIG1       -0.0617
     36 H          14.6691    3.0503   -0.0244 H       1  LIG1        0.0618
     37 C          12.6557   -0.2473    0.0307 C.ar    1  LIG1       -0.0540
     38 C          14.0468   -0.2829    0.0311 C.ar    1  LIG1       -0.0612
     39 H          12.0883   -1.1689    0.0698 H       1  LIG1        0.0624
     40 H          15.8581    0.8756    0.0160 H       1  LIG1        0.0618
     41 H          12.1977    3.1098   -0.0468 H       1  LIG1        0.0624
     42 H          14.5595   -1.2356    0.0534 H       1  LIG1        0.0618
@<TRIPOS>BOND
     1    29    27    1
     2    11     7    1
     3    31    28    1
     4     8     6    1
     5     6     7   ar
     6     6     3   ar
     7     7     4   ar
     8    27    28   ar
     9    27    24   ar
    10    28    25   ar
    11    41    32    1
    12    20    12    1
    13    36    33    1
    14    32    33   ar
    15    32    34   ar
    16    12    13   ar
    17    12    14   ar
    18    21    18    1
    19     9     3    1
    20     3     1   ar
    21    33    35   ar
    22    13    15   ar
    23    13    16    1
    24     4    14    1
    25     4     2   ar
    26    14    17   ar
    27    15    24    1
    28    15    18   ar
    29    24    22   ar
    30    18    17   ar
    31    25    34    1
    32    25    23   ar
    33    17    19    1
    34    34    37   ar
    35    35    40    1
    36    35    38   ar
    37    37    38   ar
    38    37    39    1
    39    38    42    1
    40     1     2   ar
    41     1    10    1
    42     2     5    1
    43    22    23   ar
    44    22    30    1
    45    23    26    1
