@<TRIPOS>MOLECULE
mol_data/opt/m06hf/geoms/mol2/4aa4aa-4aa.out
 32 34 0 0 0
SMALL
GASTEIGER

@<TRIPOS>ATOM
      1 C          -0.1570    0.1066    0.2968 C.ar    1  LIG1       -0.0612
      2 C           1.2337    0.0630    0.2993 C.ar    1  LIG1       -0.0540
      3 C          -0.8188    1.2952   -0.0009 C.ar    1  LIG1       -0.0617
      4 C           1.9804    1.2062    0.0005 C.ar    1  LIG1       -0.0179
      5 H           1.7473   -0.8547    0.5574 H       1  LIG1        0.0624
      6 C          -0.0825    2.4393   -0.2978 C.ar    1  LIG1       -0.0612
      7 C           1.3082    2.3946   -0.2988 C.ar    1  LIG1       -0.0540
      8 H          -0.5897    3.3646   -0.5377 H       1  LIG1        0.0618
      9 H          -1.9005    1.3296   -0.0015 H       1  LIG1        0.0618
     10 H          -0.7223   -0.7845    0.5362 H       1  LIG1        0.0618
     11 H           1.8793    3.2779   -0.5560 H       1  LIG1        0.0624
     12 C           4.2189    2.1905    0.5767 C.ar    1  LIG1       -0.0535
     13 C           5.6078    2.1460    0.5775 C.ar    1  LIG1       -0.0535
     14 C           3.4721    1.1586    0.0015 C.ar    1  LIG1       -0.0178
     15 C           6.2877    1.0685    0.0028 C.ar    1  LIG1       -0.0178
     16 H           6.1722    2.9366    1.0566 H       1  LIG1        0.0624
     17 C           4.1520    0.0810   -0.5732 C.ar    1  LIG1       -0.0535
     18 C           5.5409    0.0365   -0.5724 C.ar    1  LIG1       -0.0535
     19 H           3.5876   -0.7096   -1.0523 H       1  LIG1        0.0624
     20 H           3.7058    3.0158    1.0552 H       1  LIG1        0.0624
     21 H           6.0540   -0.7887   -1.0509 H       1  LIG1        0.0624
     22 C           8.4516   -0.1675    0.3031 C.ar    1  LIG1       -0.0540
     23 C           9.8423   -0.2123    0.3021 C.ar    1  LIG1       -0.0612
     24 C           7.7794    1.0208    0.0038 C.ar    1  LIG1       -0.0179
     25 C          10.5786    0.9318    0.0053 C.ar    1  LIG1       -0.0617
     26 H          10.3494   -1.1376    0.5421 H       1  LIG1        0.0618
     27 C           8.5261    2.1640   -0.2950 C.ar    1  LIG1       -0.0540
     28 C           9.9168    2.1204   -0.2925 C.ar    1  LIG1       -0.0612
     29 H           8.0124    3.0817   -0.5532 H       1  LIG1        0.0624
     30 H          11.6603    0.8974    0.0059 H       1  LIG1        0.0618
     31 H           7.8804   -1.0508    0.5604 H       1  LIG1        0.0624
     32 H          10.4821    3.0115   -0.5319 H       1  LIG1        0.0618
@<TRIPOS>BOND
     1    19    17    1
     2    21    18    1
     3    17    18   ar
     4    17    14   ar
     5    18    15   ar
     6    11     7    1
     7    29    27    1
     8     8     6    1
     9    32    28    1
    10     7     6   ar
    11     7     4   ar
    12     6     3   ar
    13    27    28   ar
    14    27    24   ar
    15    28    25   ar
    16     9     3    1
    17     3     1   ar
    18     4    14    1
    19     4     2   ar
    20    14    12   ar
    21    15    24    1
    22    15    13   ar
    23    24    22   ar
    24    25    30    1
    25    25    23   ar
    26     1     2   ar
    27     1    10    1
    28     2     5    1
    29    23    22   ar
    30    23    26    1
    31    22    31    1
    32    12    13   ar
    33    12    20    1
    34    13    16    1
