@<TRIPOS>MOLECULE
mol_data/opt/m06hf/geoms/mol2/4aa4aa-4aa4aa.out
 42 45 0 0 0
SMALL
GASTEIGER

@<TRIPOS>ATOM
      1 C          -0.2586    0.1568    0.4722 C.ar    1  LIG1       -0.0612
      2 C           1.1322    0.1172    0.4743 C.ar    1  LIG1       -0.0540
      3 C          -0.9251    1.2831   -0.0036 C.ar    1  LIG1       -0.0617
      4 C           1.8730    1.2030   -0.0002 C.ar    1  LIG1       -0.0179
      5 H           1.6512   -0.7491    0.8658 H       1  LIG1        0.0624
      6 C          -0.1941    2.3694   -0.4777 C.ar    1  LIG1       -0.0612
      7 C           1.1967    2.3293   -0.4764 C.ar    1  LIG1       -0.0540
      8 H          -0.7057    3.2450   -0.8558 H       1  LIG1        0.0618
      9 H          -2.0069    1.3141   -0.0049 H       1  LIG1        0.0618
     10 H          -0.8204   -0.6880    0.8490 H       1  LIG1        0.0618
     11 H           1.7654    3.1644   -0.8667 H       1  LIG1        0.0624
     12 C           4.1084    2.2544    0.4520 C.ar    1  LIG1       -0.0535
     13 C           5.4977    2.2145    0.4540 C.ar    1  LIG1       -0.0535
     14 C           3.3650    1.1602    0.0015 C.ar    1  LIG1       -0.0178
     15 C           6.1784    1.0797    0.0047 C.ar    1  LIG1       -0.0178
     16 H           6.0616    3.0568    0.8356 H       1  LIG1        0.0624
     17 C           4.0456    0.0253   -0.4473 C.ar    1  LIG1       -0.0535
     18 C           5.4350   -0.0144   -0.4462 C.ar    1  LIG1       -0.0535
     19 H           3.4814   -0.8172   -0.8280 H       1  LIG1        0.0624
     20 H           3.5924    3.1278    0.8314 H       1  LIG1        0.0624
     21 H           5.9506   -0.8875   -0.8266 H       1  LIG1        0.0624
     22 C           8.3493   -0.0973    0.4583 C.ar    1  LIG1       -0.0535
     23 C           9.7387   -0.1372    0.4594 C.ar    1  LIG1       -0.0535
     24 C           7.6696    1.0370    0.0063 C.ar    1  LIG1       -0.0178
     25 C          10.4831    0.9565    0.0093 C.ar    1  LIG1       -0.0178
     26 H          10.2539   -1.0102    0.8408 H       1  LIG1        0.0624
     27 C           8.4141    2.1306   -0.4441 C.ar    1  LIG1       -0.0535
     28 C           9.8035    2.0909   -0.4423 C.ar    1  LIG1       -0.0535
     29 H           7.8993    3.0034   -0.8267 H       1  LIG1        0.0624
     30 H           7.7846   -0.9392    0.8397 H       1  LIG1        0.0624
     31 H          10.3685    2.9329   -0.8226 H       1  LIG1        0.0624
     32 C          12.6524   -0.2132   -0.4626 C.ar    1  LIG1       -0.0540
     33 C          14.0432   -0.2533   -0.4609 C.ar    1  LIG1       -0.0612
     34 C          11.9750    0.9137    0.0108 C.ar    1  LIG1       -0.0179
     35 C          14.7732    0.8335    0.0137 C.ar    1  LIG1       -0.0617
     36 H          14.5556   -1.1293   -0.8369 H       1  LIG1        0.0618
     37 C          12.7149    1.9999    0.4858 C.ar    1  LIG1       -0.0540
     38 C          14.1057    1.9603    0.4868 C.ar    1  LIG1       -0.0612
     39 H          12.1951    2.8666    0.8753 H       1  LIG1        0.0624
     40 H          15.8550    0.8024    0.0148 H       1  LIG1        0.0618
     41 H          12.0846   -1.0487   -0.8532 H       1  LIG1        0.0624
     42 H          14.6666    2.8055    0.8639 H       1  LIG1        0.0618
@<TRIPOS>BOND
     1    11     7    1
     2     8     6    1
     3    41    32    1
     4    36    33    1
     5    19    17    1
     6    29    27    1
     7    21    18    1
     8    31    28    1
     9     6     7   ar
    10     6     3   ar
    11     7     4   ar
    12    32    33   ar
    13    32    34   ar
    14    33    35   ar
    15    17    18   ar
    16    17    14   ar
    17    18    15   ar
    18    27    28   ar
    19    27    24   ar
    20    28    25   ar
    21     9     3    1
    22     3     1   ar
    23     4    14    1
    24     4     2   ar
    25    14    12   ar
    26    15    24    1
    27    15    13   ar
    28    24    22   ar
    29    25    34    1
    30    25    23   ar
    31    34    37   ar
    32    35    40    1
    33    35    38   ar
    34    12    13   ar
    35    12    20    1
    36    13    16    1
    37    22    23   ar
    38    22    30    1
    39    23    26    1
    40     1     2   ar
    41     1    10    1
    42     2     5    1
    43    37    38   ar
    44    37    39    1
    45    38    42    1
