@<TRIPOS>MOLECULE
mol_data/opt/m06hf/geoms/mol2/4aa4aa-4aa-4aa.out
 42 45 0 0 0
SMALL
GASTEIGER

@<TRIPOS>ATOM
      1 C          -0.2752    0.0983    0.0110 C.ar    1  LIG1       -0.0612
      2 C           1.1152    0.0419    0.0139 C.ar    1  LIG1       -0.0540
      3 C          -0.9246    1.3301   -0.0043 C.ar    1  LIG1       -0.0617
      4 C           1.8726    1.2164   -0.0009 C.ar    1  LIG1       -0.0179
      5 H           1.6203   -0.9153    0.0522 H       1  LIG1        0.0624
      6 C          -0.1773    2.5052   -0.0179 C.ar    1  LIG1       -0.0612
      7 C           1.2130    2.4486   -0.0175 C.ar    1  LIG1       -0.0540
      8 H          -0.6756    3.4655   -0.0379 H       1  LIG1        0.0618
      9 H          -2.0060    1.3741   -0.0056 H       1  LIG1        0.0618
     10 H          -0.8499   -0.8184    0.0298 H       1  LIG1        0.0618
     11 H           1.7943    3.3616   -0.0545 H       1  LIG1        0.0624
     12 C           4.1105    2.0003    0.8269 C.ar    1  LIG1       -0.0535
     13 C           5.4991    1.9437    0.8290 C.ar    1  LIG1       -0.0535
     14 C           3.3639    1.1558    0.0009 C.ar    1  LIG1       -0.0178
     15 C           6.1769    1.0415    0.0044 C.ar    1  LIG1       -0.0178
     16 H           6.0645    2.5800    1.4989 H       1  LIG1        0.0624
     17 C           4.0416    0.2534   -0.8234 C.ar    1  LIG1       -0.0535
     18 C           5.4302    0.1973   -0.8221 C.ar    1  LIG1       -0.0535
     19 H           3.4756   -0.3835   -1.4921 H       1  LIG1        0.0624
     20 H           3.5964    2.6812    1.4943 H       1  LIG1        0.0624
     21 H           5.9437   -0.4829   -1.4906 H       1  LIG1        0.0624
     22 C           8.4285    2.1532    0.0138 C.ar    1  LIG1       -0.0535
     23 C           9.8172    2.0967    0.0187 C.ar    1  LIG1       -0.0535
     24 C           7.6675    0.9810    0.0062 C.ar    1  LIG1       -0.0178
     25 C          10.4808    0.8667    0.0097 C.ar    1  LIG1       -0.0178
     26 H          10.3943    3.0126    0.0448 H       1  LIG1        0.0624
     27 C           8.3309   -0.2491    0.0003 C.ar    1  LIG1       -0.0535
     28 C           9.7197   -0.3054   -0.0011 C.ar    1  LIG1       -0.0535
     29 H           7.7539   -1.1653    0.0121 H       1  LIG1        0.0624
     30 H           7.9276    3.1132    0.0007 H       1  LIG1        0.0624
     31 H          10.2207   -1.2651   -0.0259 H       1  LIG1        0.0624
     32 C          12.6442   -0.1032    0.8331 C.ar    1  LIG1       -0.0540
     33 C          14.0343   -0.1608    0.8337 C.ar    1  LIG1       -0.0612
     34 C          11.9722    0.8061    0.0115 C.ar    1  LIG1       -0.0179
     35 C          14.7697    0.6925    0.0150 C.ar    1  LIG1       -0.0617
     36 H          14.5429   -0.8652    1.4791 H       1  LIG1        0.0618
     37 C          12.7178    1.6578   -0.8083 C.ar    1  LIG1       -0.0540
     38 C          14.1080    1.6025   -0.8055 C.ar    1  LIG1       -0.0612
     39 H          12.2023    2.3473   -1.4657 H       1  LIG1        0.0624
     40 H          15.8510    0.6485    0.0163 H       1  LIG1        0.0618
     41 H          12.0728   -0.7485    1.4891 H       1  LIG1        0.0624
     42 H          14.6736    2.2632   -1.4495 H       1  LIG1        0.0618
@<TRIPOS>BOND
     1    19    17    1
     2    21    18    1
     3    39    37    1
     4    42    38    1
     5    17    18   ar
     6    17    14   ar
     7    18    15   ar
     8    37    38   ar
     9    37    34   ar
    10    38    35   ar
    11    11     7    1
    12     8     6    1
    13    31    28    1
    14     6     7   ar
    15     6     3   ar
    16     7     4   ar
    17     9     3    1
    18     3     1   ar
    19    28    27   ar
    20    28    25   ar
    21     4    14    1
    22     4     2   ar
    23    27    24   ar
    24    27    29    1
    25    30    22    1
    26    14    12   ar
    27    15    24    1
    28    15    13   ar
    29    24    22   ar
    30    25    34    1
    31    25    23   ar
    32     1     2   ar
    33     1    10    1
    34    34    32   ar
    35    22    23   ar
    36     2     5    1
    37    35    40    1
    38    35    33   ar
    39    23    26    1
    40    12    13   ar
    41    12    20    1
    42    13    16    1
    43    32    33   ar
    44    32    41    1
    45    33    36    1
