@<TRIPOS>MOLECULE
mol_data/opt/m06hf/geoms/mol2/4aa4aa4aa4aa.out
 42 45 0 0 0
SMALL
GASTEIGER

@<TRIPOS>ATOM
      1 C          -0.2378    0.1240    0.4721 C.ar    1  LIG1       -0.0612
      2 C           1.1536    0.1108    0.4740 C.ar    1  LIG1       -0.0540
      3 C          -0.9255    1.2375   -0.0036 C.ar    1  LIG1       -0.0617
      4 C           1.8736    1.2104   -0.0005 C.ar    1  LIG1       -0.0179
      5 H           1.6889   -0.7456    0.8654 H       1  LIG1        0.0624
      6 C          -0.2153    2.3375   -0.4777 C.ar    1  LIG1       -0.0612
      7 C           1.1760    2.3237   -0.4765 C.ar    1  LIG1       -0.0540
      8 H          -0.7434    3.2032   -0.8556 H       1  LIG1        0.0618
      9 H          -2.0077    1.2480   -0.0048 H       1  LIG1        0.0618
     10 H          -0.7834   -0.7314    0.8488 H       1  LIG1        0.0618
     11 H           1.7288    3.1695   -0.8667 H       1  LIG1        0.0624
     12 C           4.0680    0.0741   -0.4478 C.ar    1  LIG1       -0.0535
     13 C           5.4579    0.0606   -0.4465 C.ar    1  LIG1       -0.0535
     14 C           3.3661    1.1959    0.0012 C.ar    1  LIG1       -0.0178
     15 C           6.1805    1.1686    0.0044 C.ar    1  LIG1       -0.0178
     16 H           5.9899   -0.8026   -0.8270 H       1  LIG1        0.0624
     17 C           4.0887    2.3039    0.4518 C.ar    1  LIG1       -0.0535
     18 C           5.4786    2.2903    0.4537 C.ar    1  LIG1       -0.0535
     19 H           3.5563    3.1673    0.8314 H       1  LIG1        0.0624
     20 H           3.5198   -0.7788   -0.8285 H       1  LIG1        0.0624
     21 H           6.0264    3.1430    0.8355 H       1  LIG1        0.0624
     22 C           8.3731    0.0326    0.4583 C.ar    1  LIG1       -0.0535
     23 C           9.7629    0.0189    0.4595 C.ar    1  LIG1       -0.0535
     24 C           7.6723    1.1540    0.0061 C.ar    1  LIG1       -0.0178
     25 C          10.4867    1.1264    0.0094 C.ar    1  LIG1       -0.0178
     26 H          10.2945   -0.8442    0.8411 H       1  LIG1        0.0624
     27 C           8.3960    2.2613   -0.4444 C.ar    1  LIG1       -0.0535
     28 C           9.7859    2.2477   -0.4424 C.ar    1  LIG1       -0.0535
     29 H           7.8649    3.1241   -0.8271 H       1  LIG1        0.0624
     30 H           7.8243   -0.8196    0.8396 H       1  LIG1        0.0624
     31 H          10.3351    3.1002   -0.8229 H       1  LIG1        0.0624
     32 C          12.6777   -0.0023   -0.4623 C.ar    1  LIG1       -0.0540
     33 C          14.0690   -0.0163   -0.4604 C.ar    1  LIG1       -0.0612
     34 C          11.9792    1.1117    0.0111 C.ar    1  LIG1       -0.0179
     35 C          14.7784    1.0840    0.0143 C.ar    1  LIG1       -0.0617
     36 H          14.5978   -0.8825   -0.8362 H       1  LIG1        0.0618
     37 C          12.6984    2.2116    0.4860 C.ar    1  LIG1       -0.0540
     38 C          14.0898    2.1981    0.4873 C.ar    1  LIG1       -0.0612
     39 H          12.1623    3.0684    0.8755 H       1  LIG1        0.0624
     40 H          15.8605    1.0733    0.0155 H       1  LIG1        0.0618
     41 H          12.1256   -0.8484   -0.8529 H       1  LIG1        0.0624
     42 H          14.6347    3.0537    0.8644 H       1  LIG1        0.0618
@<TRIPOS>BOND
     1    11     7    1
     2     8     6    1
     3    41    32    1
     4    36    33    1
     5    20    12    1
     6    29    27    1
     7    16    13    1
     8    31    28    1
     9     6     7   ar
    10     6     3   ar
    11     7     4   ar
    12    32    33   ar
    13    32    34   ar
    14    33    35   ar
    15    12    13   ar
    16    12    14   ar
    17    13    15   ar
    18    27    28   ar
    19    27    24   ar
    20    28    25   ar
    21     9     3    1
    22     3     1   ar
    23     4    14    1
    24     4     2   ar
    25    14    17   ar
    26    15    24    1
    27    15    18   ar
    28    24    22   ar
    29    25    34    1
    30    25    23   ar
    31    34    37   ar
    32    35    40    1
    33    35    38   ar
    34    17    18   ar
    35    17    19    1
    36    18    21    1
    37    22    23   ar
    38    22    30    1
    39    23    26    1
    40     1     2   ar
    41     1    10    1
    42     2     5    1
    43    37    38   ar
    44    37    39    1
    45    38    42    1
