@<TRIPOS>MOLECULE
mol_data/opt/m06hf/geoms/mol2/4aa4aa-.out
 22 23 0 0 0
SMALL
GASTEIGER

@<TRIPOS>ATOM
      1 C          -0.0449    0.1635    0.4683 C.ar    1  LIG1       -0.0612
      2 C           1.3460    0.1202    0.4697 C.ar    1  LIG1       -0.0540
      3 C          -0.7085    1.2936   -0.0025 C.ar    1  LIG1       -0.0617
      4 C           2.0898    1.2059   -0.0000 C.ar    1  LIG1       -0.0179
      5 H           1.8628   -0.7494    0.8566 H       1  LIG1        0.0624
      6 C           0.0254    2.3798   -0.4722 C.ar    1  LIG1       -0.0612
      7 C           1.4161    2.3359   -0.4713 C.ar    1  LIG1       -0.0540
      8 H          -0.4839    3.2582   -0.8468 H       1  LIG1        0.0618
      9 H          -1.7902    1.3274   -0.0034 H       1  LIG1        0.0618
     10 H          -0.6087   -0.6814    0.8417 H       1  LIG1        0.0618
     11 H           1.9872    3.1712   -0.8577 H       1  LIG1        0.0624
     12 C           4.3249    2.2456    0.4721 C.ar    1  LIG1       -0.0540
     13 C           5.7157    2.2033    0.4730 C.ar    1  LIG1       -0.0612
     14 C           3.5825    1.1596    0.0008 C.ar    1  LIG1       -0.0179
     15 C           6.3808    1.0737    0.0032 C.ar    1  LIG1       -0.0617
     16 H           6.2784    3.0485    0.8476 H       1  LIG1        0.0618
     17 C           4.2575    0.0300   -0.4690 C.ar    1  LIG1       -0.0540
     18 C           5.6484   -0.0130   -0.4676 C.ar    1  LIG1       -0.0612
     19 H           3.6879   -0.8060   -0.8559 H       1  LIG1        0.0624
     20 H           7.4625    1.0404    0.0042 H       1  LIG1        0.0618
     21 H           3.8066    3.1147    0.8585 H       1  LIG1        0.0624
     22 H           6.1588   -0.8913   -0.8410 H       1  LIG1        0.0618
@<TRIPOS>BOND
     1    11     7    1
     2    19    17    1
     3     8     6    1
     4    22    18    1
     5     6     7   ar
     6     6     3   ar
     7     7     4   ar
     8    17    18   ar
     9    17    14   ar
    10    18    15   ar
    11     9     3    1
    12     3     1   ar
    13     4    14    1
    14     4     2   ar
    15    14    12   ar
    16    15    20    1
    17    15    13   ar
    18     1     2   ar
    19     1    10    1
    20     2     5    1
    21    12    13   ar
    22    12    21    1
    23    13    16    1
