@<TRIPOS>MOLECULE
mol_data/opt/m06hf/geoms/mol2/4aa4aa-4aa4aa-.out
 42 45 0 0 0
SMALL
GASTEIGER

@<TRIPOS>ATOM
      1 C          -0.2625    0.1742    0.4710 C.ar    1  LIG1       -0.0612
      2 C           1.1283    0.1291    0.4731 C.ar    1  LIG1       -0.0540
      3 C          -0.9245    1.3030   -0.0049 C.ar    1  LIG1       -0.0617
      4 C           1.8732    1.2121   -0.0013 C.ar    1  LIG1       -0.0179
      5 H           1.6439   -0.7391    0.8649 H       1  LIG1        0.0624
      6 C          -0.1893    2.3865   -0.4790 C.ar    1  LIG1       -0.0612
      7 C           1.2014    2.3411   -0.4775 C.ar    1  LIG1       -0.0540
      8 H          -0.6974    3.2640   -0.8572 H       1  LIG1        0.0618
      9 H          -2.0061    1.3382   -0.0063 H       1  LIG1        0.0618
     10 H          -0.8274   -0.6685    0.8478 H       1  LIG1        0.0618
     11 H           1.7732    3.1740   -0.8679 H       1  LIG1        0.0624
     12 C           4.1126    2.2547    0.4518 C.ar    1  LIG1       -0.0535
     13 C           5.5019    2.2094    0.4542 C.ar    1  LIG1       -0.0535
     14 C           3.3652    1.1636    0.0007 C.ar    1  LIG1       -0.0178
     15 C           6.1782    1.0722    0.0043 C.ar    1  LIG1       -0.0178
     16 H           6.0686    3.0494    0.8366 H       1  LIG1        0.0624
     17 C           4.0414    0.0263   -0.4486 C.ar    1  LIG1       -0.0535
     18 C           5.4307   -0.0186   -0.4474 C.ar    1  LIG1       -0.0535
     19 H           3.4741   -0.8139   -0.8298 H       1  LIG1        0.0624
     20 H           3.6001    3.1300    0.8316 H       1  LIG1        0.0624
     21 H           5.9427   -0.8937   -0.8284 H       1  LIG1        0.0624
     22 C           8.3444   -0.1133    0.4580 C.ar    1  LIG1       -0.0535
     23 C           9.7337   -0.1586    0.4592 C.ar    1  LIG1       -0.0535
     24 C           7.6693    1.0238    0.0063 C.ar    1  LIG1       -0.0178
     25 C          10.4823    0.9324    0.0099 C.ar    1  LIG1       -0.0178
     26 H          10.2452   -1.0339    0.8403 H       1  LIG1        0.0624
     27 C           8.4180    2.1146   -0.4436 C.ar    1  LIG1       -0.0535
     28 C           9.8073    2.0697   -0.4412 C.ar    1  LIG1       -0.0535
     29 H           7.9070    2.9896   -0.8260 H       1  LIG1        0.0624
     30 H           7.7767   -0.9533    0.8390 H       1  LIG1        0.0624
     31 H          10.3755    2.9098   -0.8210 H       1  LIG1        0.0624
     32 C          12.7180    1.9669    0.4881 C.ar    1  LIG1       -0.0540
     33 C          14.1087    1.9219    0.4896 C.ar    1  LIG1       -0.0612
     34 C          11.9743    0.8839    0.0119 C.ar    1  LIG1       -0.0179
     35 C          14.7720    0.7930    0.0155 C.ar    1  LIG1       -0.0617
     36 H          14.6727    2.7646    0.8678 H       1  LIG1        0.0618
     37 C          12.6473   -0.2451   -0.4625 C.ar    1  LIG1       -0.0540
     38 C          14.0381   -0.2905   -0.4604 C.ar    1  LIG1       -0.0612
     39 H          12.0765   -1.0780   -0.8544 H       1  LIG1        0.0624
     40 H          15.8536    0.7579    0.0169 H       1  LIG1        0.0618
     41 H          12.2014    2.8352    0.8785 H       1  LIG1        0.0624
     42 H          14.5472   -1.1680   -0.8373 H       1  LIG1        0.0618
@<TRIPOS>BOND
     1    11     7    1
     2     8     6    1
     3    39    37    1
     4    42    38    1
     5    19    17    1
     6    21    18    1
     7    29    27    1
     8    31    28    1
     9     6     7   ar
    10     6     3   ar
    11     7     4   ar
    12    37    38   ar
    13    37    34   ar
    14    38    35   ar
    15    17    18   ar
    16    17    14   ar
    17    18    15   ar
    18    27    28   ar
    19    27    24   ar
    20    28    25   ar
    21     9     3    1
    22     3     1   ar
    23     4    14    1
    24     4     2   ar
    25    14    12   ar
    26    15    24    1
    27    15    13   ar
    28    24    22   ar
    29    25    34    1
    30    25    23   ar
    31    34    32   ar
    32    35    40    1
    33    35    33   ar
    34    12    13   ar
    35    12    20    1
    36    13    16    1
    37    22    23   ar
    38    22    30    1
    39    23    26    1
    40     1     2   ar
    41     1    10    1
    42     2     5    1
    43    32    33   ar
    44    32    41    1
    45    33    36    1
