@<TRIPOS>MOLECULE
mol_data/opt/m06hf/geoms/mol2/4aa4aa-4aa-4aa-.out
 42 45 0 0 0
SMALL
GASTEIGER

@<TRIPOS>ATOM
      1 C          -0.2792    0.1161    0.0128 C.ar    1  LIG1       -0.0612
      2 C           1.1110    0.0542    0.0155 C.ar    1  LIG1       -0.0540
      3 C          -0.9238    1.3504   -0.0026 C.ar    1  LIG1       -0.0617
      4 C           1.8730    1.2258    0.0003 C.ar    1  LIG1       -0.0179
      5 H           1.6124   -0.9049    0.0538 H       1  LIG1        0.0624
      6 C          -0.1719    2.5225   -0.0165 C.ar    1  LIG1       -0.0612
      7 C           1.2182    2.4605   -0.0164 C.ar    1  LIG1       -0.0540
      8 H          -0.6665    3.4848   -0.0367 H       1  LIG1        0.0618
      9 H          -2.0049    1.3986   -0.0037 H       1  LIG1        0.0618
     10 H          -0.8574   -0.7984    0.0319 H       1  LIG1        0.0618
     11 H           1.8030    3.3712   -0.0536 H       1  LIG1        0.0624
     12 C           4.1141    2.0010    0.8277 C.ar    1  LIG1       -0.0535
     13 C           5.5025    1.9389    0.8295 C.ar    1  LIG1       -0.0535
     14 C           3.3640    1.1594    0.0018 C.ar    1  LIG1       -0.0178
     15 C           6.1765    1.0341    0.0046 C.ar    1  LIG1       -0.0178
     16 H           6.0705    2.5731    1.4991 H       1  LIG1        0.0624
     17 C           4.0379    0.2544   -0.8226 C.ar    1  LIG1       -0.0535
     18 C           5.4264    0.1928   -0.8217 C.ar    1  LIG1       -0.0535
     19 H           3.4693   -0.3804   -1.4912 H       1  LIG1        0.0624
     20 H           3.6028    2.6839    1.4951 H       1  LIG1        0.0624
     21 H           5.9371   -0.4894   -1.4903 H       1  LIG1        0.0624
     22 C           8.4324    2.1370    0.0140 C.ar    1  LIG1       -0.0535
     23 C           9.8209    2.0751    0.0186 C.ar    1  LIG1       -0.0535
     24 C           7.6669    0.9678    0.0061 C.ar    1  LIG1       -0.0178
     25 C          10.4797    0.8425    0.0089 C.ar    1  LIG1       -0.0178
     26 H          10.4016    2.9887    0.0448 H       1  LIG1        0.0624
     27 C           8.3255   -0.2649   -0.0004 C.ar    1  LIG1       -0.0535
     28 C           9.7140   -0.3266   -0.0022 C.ar    1  LIG1       -0.0535
     29 H           7.7449   -1.1789    0.0111 H       1  LIG1        0.0624
     30 H           7.9353    3.0990    0.0014 H       1  LIG1        0.0624
     31 H          10.2113   -1.2882   -0.0275 H       1  LIG1        0.0624
     32 C          12.7195    1.6256   -0.8091 C.ar    1  LIG1       -0.0540
     33 C          14.1095    1.5648   -0.8066 C.ar    1  LIG1       -0.0612
     34 C          11.9708    0.7762    0.0103 C.ar    1  LIG1       -0.0179
     35 C          14.7679    0.6516    0.0130 C.ar    1  LIG1       -0.0617
     36 H          14.6776    2.2239   -1.4503 H       1  LIG1        0.0618
     37 C          12.6395   -0.1363    0.8311 C.ar    1  LIG1       -0.0540
     38 C          14.0294   -0.1994    0.8313 C.ar    1  LIG1       -0.0612
     39 H          12.0658   -0.7800    1.4867 H       1  LIG1        0.0624
     40 H          15.8490    0.6035    0.0141 H       1  LIG1        0.0618
     41 H          12.2066    2.3176   -1.4658 H       1  LIG1        0.0624
     42 H          14.5354   -0.9062    1.4760 H       1  LIG1        0.0618
@<TRIPOS>BOND
     1    19    17    1
     2    21    18    1
     3    41    32    1
     4    36    33    1
     5    17    18   ar
     6    17    14   ar
     7    18    15   ar
     8    32    33   ar
     9    32    34   ar
    10    33    35   ar
    11    11     7    1
    12     8     6    1
    13    31    28    1
    14     6     7   ar
    15     6     3   ar
    16     7     4   ar
    17     9     3    1
    18     3     1   ar
    19    28    27   ar
    20    28    25   ar
    21    27    24   ar
    22    27    29    1
    23     4    14    1
    24     4     2   ar
    25    30    22    1
    26    14    12   ar
    27    15    24    1
    28    15    13   ar
    29    24    22   ar
    30    25    34    1
    31    25    23   ar
    32    34    37   ar
    33     1     2   ar
    34     1    10    1
    35    35    40    1
    36    35    38   ar
    37    22    23   ar
    38     2     5    1
    39    23    26    1
    40    12    13   ar
    41    12    20    1
    42    13    16    1
    43    37    38   ar
    44    37    39    1
    45    38    42    1
