@<TRIPOS>MOLECULE
mol_data/opt/m06hf/geoms/mol2/4aa6ld-6di6ia13ld12ie-13hd-12he.out
 98 105 0 0 0
SMALL
GASTEIGER

@<TRIPOS>ATOM
      1 C          -0.5851    0.2588    0.8320 C.ar    1  LIG1       -0.0612
      2 C           0.8060    0.2559    0.7968 C.ar    1  LIG1       -0.0539
      3 C          -1.2908    1.3591    0.3548 C.ar    1  LIG1       -0.0617
      4 C           1.5004    1.3541    0.2845 C.ar    1  LIG1       -0.0128
      5 H           1.3555   -0.6087    1.1485 H       1  LIG1        0.0624
      6 C          -0.6018    2.4539   -0.1632 C.ar    1  LIG1       -0.0612
      7 C           0.7875    2.4533   -0.2030 C.ar    1  LIG1       -0.0539
      8 H          -1.1471    3.3108   -0.5359 H       1  LIG1        0.0618
      9 H          -2.3724    1.3626    0.3819 H       1  LIG1        0.0618
     10 H          -1.1148   -0.5986    1.2255 H       1  LIG1        0.0618
     11 H           1.3257    3.2990   -0.6086 H       1  LIG1        0.0624
     12 C           3.7752    1.7693   -0.8004 C.ar    1  LIG1        0.2230
     13 C           2.9898    1.3525    0.3081 C.ar    1  LIG1        0.0449
     14 C           3.6900    0.9442    1.4238 C.ar    1  LIG1       -0.0295
     15 C           5.0951    0.9409    1.4265 C.ar    1  LIG1        0.0786
     16 C           5.7628    1.3451    0.2721 C.ar    1  LIG1        0.0949
     17 N           5.0933    1.7411   -0.8100 N.ar    1  LIG1       -0.2110
     18 H           3.1567    0.6524    2.3197 H       1  LIG1        0.0639
     19 O           3.1403    2.2003   -1.8833 O.3     1  LIG1       -0.4792
     20 C           3.9435    2.6627   -2.9779 C.3     1  LIG1        0.0804
     21 H           3.2293    3.0031   -3.7210 H       1  LIG1        0.0660
     22 H           4.5924    3.4722   -2.6469 H       1  LIG1        0.0660
     23 H           4.5473    1.8425   -3.3635 H       1  LIG1        0.0660
     24 N           6.3423    0.2460    3.5897 N.1     1  LIG1       -0.1908
     25 C           5.7989    0.5631    2.6293 C.1     1  LIG1        0.1013
     26 C           7.9077    2.4476   -0.4578 C.ar    1  LIG1        0.1499
     27 C           7.2490    1.3833    0.1699 C.ar    1  LIG1        0.0379
     28 C           8.0548    0.3739    0.6882 C.ar    1  LIG1       -0.0448
     29 C           9.4421    0.4382    0.5853 C.ar    1  LIG1       -0.0237
     30 C           9.9843    1.5497   -0.0816 C.ar    1  LIG1        0.0771
     31 N           9.2250    2.5263   -0.5777 N.ar    1  LIG1       -0.2354
     32 H           7.5994   -0.4728    1.1878 H       1  LIG1        0.0628
     33 N           6.6501    4.5141   -1.4312 N.1     1  LIG1       -0.1893
     34 C           7.1778    3.5893   -1.0053 C.1     1  LIG1        0.1198
     35 C          10.2988   -0.6474    1.2073 C.3     1  LIG1       -0.0377
     36 H          11.2602   -0.2428    1.5205 H       1  LIG1        0.0278
     37 H          10.4770   -1.4537    0.4930 H       1  LIG1        0.0278
     38 H           9.7844   -1.0613    2.0743 H       1  LIG1        0.0278
     39 C          12.1088    2.8703    0.2153 C.ar    1  LIG1        0.0481
     40 C          11.4574    1.7204   -0.2645 C.ar    1  LIG1        0.0217
     41 C          12.2106    0.7579   -0.9327 C.ar    1  LIG1       -0.0488
     42 C          13.5738    0.9430   -1.1133 C.ar    1  LIG1       -0.0335
     43 C          14.1328    2.1110   -0.5957 C.ar    1  LIG1        0.0910
     44 N          13.4166    3.0392    0.0484 N.ar    1  LIG1       -0.2496
     45 H          11.7235   -0.1258   -1.3274 H       1  LIG1        0.0625
     46 C          11.3697    3.9717    0.9469 C.3     1  LIG1       -0.0217
     47 H          10.7107    3.5540    1.7095 H       1  LIG1        0.0293
     48 H          10.7577    4.5345    0.2416 H       1  LIG1        0.0293
     49 H          12.1056    4.6256    1.4084 H       1  LIG1        0.0293
     50 H          14.1958    0.2295   -1.6331 H       1  LIG1        0.0640
     51 C          15.5606    2.4208   -0.7114 C.ar    1  LIG1        0.1090
     52 C          16.6300    1.7509   -1.2734 C.ar    1  LIG1        0.1648
     53 C          17.7873    2.5647   -1.0694 C.ar    1  LIG1        0.1222
     54 C          17.3642    3.7000   -0.3734 C.ar    1  LIG1        0.1041
     55 N          16.0402    3.5872   -0.1829 N.ar    1  LIG1       -0.3466
     56 H          15.4314    4.2437    0.2913 H       1  LIG1        0.1662
     57 O          16.5025    0.5627   -1.9013 O.3     1  LIG1       -0.4916
     58 C          17.6925   -0.1769   -2.1603 C.3     1  LIG1        0.0789
     59 H          17.3614   -1.1507   -2.5103 H       1  LIG1        0.0660
     60 H          18.2894    0.3149   -2.9282 H       1  LIG1        0.0660
     61 H          18.2768   -0.2842   -1.2445 H       1  LIG1        0.0660
     62 N          20.1862    2.2541   -1.9658 N.1     1  LIG1       -0.1907
     63 C          19.1167    2.3850   -1.5655 C.1     1  LIG1        0.1051
     64 C          18.1053    4.8626    0.0930 C.ar    1  LIG1        0.1573
     65 C          19.3578    5.0436    0.5837 C.ar    1  LIG1        0.0129
     66 C          19.4480    6.4617    0.8612 C.ar    1  LIG1        0.0754
     67 C          18.2282    7.0070    0.5595 C.ar    1  LIG1        0.1692
     68 O          17.4136    6.0403    0.0855 O.2     1  LIG1       -0.4502
     69 C          20.4451    4.0357    0.8402 C.3     1  LIG1       -0.0349
     70 H          20.9888    4.3259    1.7390 H       1  LIG1        0.0279
     71 H          21.1379    3.9962   -0.0008 H       1  LIG1        0.0279
     72 H          20.0152    3.0448    0.9814 H       1  LIG1        0.0279
     73 C          20.6193    7.1482    1.3068 C.1     1  LIG1       -0.0655
     74 C          21.6221    7.7057    1.6713 C.1     1  LIG1       -0.1138
     75 H          22.5204    8.1951    1.9705 H       1  LIG1        0.1232
     76 C          17.6635    8.3320    0.6514 C.ar    1  LIG1        0.1061
     77 C          17.9173    9.3854    1.5134 C.ar    1  LIG1        0.0716
     78 C          16.9977   10.4192    1.1526 C.ar    1  LIG1        0.1013
     79 C          16.2008    9.9515    0.1080 C.ar    1  LIG1        0.1039
     80 N          16.6165    8.7067   -0.1751 N.ar    1  LIG1       -0.3468
     81 H          16.2225    8.1292   -0.9039 H       1  LIG1        0.1662
     82 N          18.7926    9.4429    2.5755 N.pl3   1  LIG1       -0.3552
     83 H          19.6426    8.9025    2.4828 H       1  LIG1        0.1424
     84 H          18.9341   10.3685    2.9547 H       1  LIG1        0.1424
     85 N          16.9609   12.7772    2.1873 N.1     1  LIG1       -0.1907
     86 C          16.9707   11.7225    1.7254 C.1     1  LIG1        0.1033
     87 C          15.1100   10.5533   -0.6297 C.ar    1  LIG1        0.1739
     88 C          14.2147   11.5596   -0.3864 C.ar    1  LIG1        0.0881
     89 C          13.3318   11.5635   -1.5401 C.ar    1  LIG1        0.0837
     90 C          13.7576   10.5656   -2.3551 C.ar    1  LIG1        0.1099
     91 O          14.8203    9.9511   -1.8298 O.2     1  LIG1       -0.4583
     92 H          13.4022   10.2149   -3.3079 H       1  LIG1        0.1043
     93 N          14.0337   12.3772    0.6977 N.pl3   1  LIG1       -0.3540
     94 H          14.8352   12.6112    1.2658 H       1  LIG1        0.1425
     95 H          13.3894   13.1389    0.5415 H       1  LIG1        0.1425
     96 C          12.2361   12.4639   -1.7261 C.1     1  LIG1       -0.0646
     97 C          11.3261   13.2407   -1.8422 C.1     1  LIG1       -0.1138
     98 H          10.5140   13.9214   -1.9558 H       1  LIG1        0.1232
@<TRIPOS>BOND
     1    21    20    1
     2    23    20    1
     3    92    90    1
     4    20    22    1
     5    20    19    1
     6    60    58    1
     7    59    58    1
     8    90    91   ar
     9    90    89   ar
    10    58    57    1
    11    58    61    1
    12    62    63    3
    13    98    97    1
    14    57    52    1
    15    19    12    1
    16    97    96    3
    17    91    87   ar
    18    96    89    1
    19    50    42    1
    20    63    53    1
    21    89    88   ar
    22    33    34    3
    23    45    41    1
    24    52    53   ar
    25    52    51   ar
    26    42    41   ar
    27    42    43   ar
    28    53    54   ar
    29    34    26    1
    30    41    40   ar
    31    81    80    1
    32    17    12   ar
    33    17    16   ar
    34    12    13   ar
    35    51    43    1
    36    51    55   ar
    37    87    88   ar
    38    87    79    1
    39    11     7    1
    40    43    44   ar
    41    31    26   ar
    42    31    30   ar
    43     8     6    1
    44    26    27   ar
    45    88    93    1
    46    54    55   ar
    47    54    64    1
    48    40    30    1
    49    40    39   ar
    50     7     6   ar
    51     7     4   ar
    52    55    56    1
    53    80    79   ar
    54    80    76   ar
    55     6     3   ar
    56    30    29   ar
    57    71    69    1
    58    44    39   ar
    59    68    64   ar
    60    68    67   ar
    61    64    65   ar
    62    79    78   ar
    63    27    16    1
    64    27    28   ar
    65    39    46    1
    66    48    46    1
    67    16    15   ar
    68     4    13    1
    69     4     2   ar
    70    13    14   ar
    71     3     9    1
    72     3     1   ar
    73    37    35    1
    74    95    93    1
    75    67    76    1
    76    67    66   ar
    77    65    69    1
    78    65    66   ar
    79    29    28   ar
    80    29    35    1
    81    76    77   ar
    82    28    32    1
    83    93    94    1
    84     2     1   ar
    85     2     5    1
    86     1    10    1
    87    69    72    1
    88    69    70    1
    89    66    73    1
    90    46    49    1
    91    46    47    1
    92    78    77   ar
    93    78    86    1
    94    35    36    1
    95    35    38    1
    96    73    74    3
    97    14    15   ar
    98    14    18    1
    99    15    25    1
   100    77    82    1
   101    74    75    1
   102    86    85    3
   103    83    82    1
   104    82    84    1
   105    25    24    3
