@<TRIPOS>MOLECULE
mol_data/opt/m06hf/geoms/mol2/4ad12lf-13dh6fl-6hl-4hf-4ii6fd-.out
 105 112 0 0 0
SMALL
GASTEIGER

@<TRIPOS>ATOM
      1 C          -0.1587   -0.4295    0.6289 C.ar    1  LIG1       -0.0610
      2 C           1.2204   -0.3922    0.4742 C.ar    1  LIG1       -0.0497
      3 C          -0.9155    0.7379    0.5428 C.ar    1  LIG1       -0.0605
      4 C           1.8774    0.8173    0.2180 C.ar    1  LIG1        0.0384
      5 H           1.8124   -1.2939    0.5531 H       1  LIG1        0.0625
      6 C          -0.2809    1.9450    0.2887 C.ar    1  LIG1       -0.0437
      7 C           1.1061    1.9871    0.1214 C.ar    1  LIG1        0.0625
      8 H          -0.8450    2.8643    0.2106 H       1  LIG1        0.0631
      9 H          -1.9886    0.7095    0.6729 H       1  LIG1        0.0618
     10 H          -0.6442   -1.3756    0.8291 H       1  LIG1        0.0618
     11 N           2.0237    4.3522   -0.4325 N.1     1  LIG1       -0.1908
     12 C           1.6742    3.2878   -0.1825 C.1     1  LIG1        0.0999
     13 C           3.3337    0.8090    0.0665 C.ar    1  LIG1        0.1822
     14 C           4.2186   -0.2082   -0.1453 C.ar    1  LIG1        0.2084
     15 C           5.5321    0.3823   -0.1850 C.ar    1  LIG1        0.2075
     16 C           5.3398    1.7201    0.0168 C.ar    1  LIG1        0.1981
     17 O           4.0147    1.9696    0.1833 O.2     1  LIG1       -0.4457
     18 O           3.9286   -1.5222   -0.2772 O.3     1  LIG1       -0.4884
     19 C           4.3221   -2.0869   -1.5360 C.3     1  LIG1        0.0791
     20 H           4.0206   -3.1301   -1.4995 H       1  LIG1        0.0660
     21 H           3.8038   -1.5693   -2.3450 H       1  LIG1        0.0660
     22 H           5.4012   -2.0053   -1.6587 H       1  LIG1        0.0660
     23 O           6.6324   -0.3521   -0.4459 O.3     1  LIG1       -0.5008
     24 H           7.4447    0.0351   -0.0910 H       1  LIG1        0.2924
     25 C           6.1974    2.8903    0.0653 C.ar    1  LIG1        0.1058
     26 C           7.5697    3.0331    0.2409 C.ar    1  LIG1        0.1013
     27 C           7.8722    4.4241    0.1888 C.ar    1  LIG1        0.0687
     28 C           6.6711    5.0824   -0.0048 C.ar    1  LIG1        0.0745
     29 N           5.6887    4.1248   -0.0895 N.ar    1  LIG1       -0.3490
     30 H           4.7110    4.3400   -0.2734 H       1  LIG1        0.1661
     31 N           9.2019    1.0821    0.6480 N.1     1  LIG1       -0.1907
     32 C           8.4860    1.9658    0.4673 C.1     1  LIG1        0.1033
     33 N           9.1482    5.0239    0.3245 N.pl3   1  LIG1       -0.3553
     34 H           9.8027    4.3962    0.7806 H       1  LIG1        0.1424
     35 H           9.5278    5.2901   -0.5804 H       1  LIG1        0.1424
     36 C           5.1458    7.0231   -0.4812 C.ar    1  LIG1        0.2225
     37 C           6.3865    6.5235   -0.0605 C.ar    1  LIG1        0.0650
     38 C           7.3180    7.4678    0.3641 C.ar    1  LIG1       -0.0035
     39 C           7.0036    8.8243    0.3431 C.ar    1  LIG1        0.1469
     40 C           5.7299    9.2231   -0.0999 C.ar    1  LIG1        0.1197
     41 N           4.8408    8.3007   -0.4892 N.ar    1  LIG1       -0.2087
     42 H           8.2751    7.1110    0.7219 H       1  LIG1        0.0663
     43 O           4.2159    6.1346   -0.8962 O.3     1  LIG1       -0.4919
     44 H           3.3471    6.5410   -1.0051 H       1  LIG1        0.2937
     45 O           7.8705    9.7877    0.7492 O.3     1  LIG1       -0.4929
     46 C           9.0317    9.3825    1.4553 C.3     1  LIG1        0.0789
     47 H           9.5120   10.3011    1.7801 H       1  LIG1        0.0660
     48 H           8.7586    8.7763    2.3219 H       1  LIG1        0.0660
     49 H           9.7074    8.8209    0.8058 H       1  LIG1        0.0660
     50 C           3.9919   11.0577    0.1610 C.ar    1  LIG1        0.1264
     51 C           5.3138   10.6515   -0.1549 C.ar    1  LIG1        0.0470
     52 C           6.2180   11.6439   -0.5195 C.ar    1  LIG1       -0.0052
     53 C           5.8201   12.9765   -0.5652 C.ar    1  LIG1        0.1468
     54 C           4.4857   13.2751   -0.2747 C.ar    1  LIG1        0.1165
     55 N           3.6194   12.3347    0.0957 N.ar    1  LIG1       -0.2280
     56 H           7.2407   11.3712   -0.7383 H       1  LIG1        0.0662
     57 N           3.0328   10.1737    0.5904 N.pl3   1  LIG1       -0.3426
     58 H           2.1048   10.5699    0.6096 H       1  LIG1        0.1437
     59 H           3.1243    9.2275    0.2528 H       1  LIG1        0.1437
     60 O           6.6581   14.0152   -0.8282 O.3     1  LIG1       -0.4929
     61 C           7.7041   13.7947   -1.7561 C.3     1  LIG1        0.0789
     62 H           8.0376   14.7802   -2.0692 H       1  LIG1        0.0660
     63 H           8.5312   13.2529   -1.2910 H       1  LIG1        0.0660
     64 H           7.3384   13.2373   -2.6226 H       1  LIG1        0.0660
     65 C           4.1502   15.4921   -1.4606 C.ar    1  LIG1        0.0348
     66 C           3.6420   16.7934   -1.4156 C.ar    1  LIG1       -0.0292
     67 C           3.9854   14.6815   -0.3269 C.ar    1  LIG1        0.0281
     68 C           2.9628   17.2891   -0.3072 C.ar    1  LIG1        0.0256
     69 H           3.7636   17.4350   -2.2814 H       1  LIG1        0.0643
     70 C           3.2804   15.1629    0.7753 C.ar    1  LIG1       -0.0085
     71 C           2.7685   16.4520    0.7973 C.ar    1  LIG1        0.1253
     72 H           3.1349   14.4967    1.6188 H       1  LIG1        0.0661
     73 N           4.7958   15.0425   -2.6239 N.pl3   1  LIG1       -0.3574
     74 H           4.8489   14.0317   -2.6792 H       1  LIG1        0.1423
     75 H           4.3884   15.4256   -3.4671 H       1  LIG1        0.1423
     76 O           2.0735   16.9476    1.8659 O.3     1  LIG1       -0.5061
     77 H           2.0196   16.2820    2.5599 H       1  LIG1        0.2922
     78 C           3.2793   19.7884   -0.4570 C.ar    1  LIG1       -0.0420
     79 C           2.7033   21.0583   -0.5154 C.ar    1  LIG1       -0.0501
     80 C           2.4268   18.6854   -0.3143 C.ar    1  LIG1       -0.0111
     81 C           1.3251   21.2454   -0.4221 C.ar    1  LIG1       -0.0096
     82 H           3.3396   21.9280   -0.6379 H       1  LIG1        0.0627
     83 C           1.0479   18.8776   -0.1951 C.ar    1  LIG1       -0.0502
     84 C           0.4705   20.1428   -0.2468 C.ar    1  LIG1       -0.0420
     85 H           0.4182   18.0083   -0.0490 H       1  LIG1        0.0627
     86 C           4.7893   19.6421   -0.5386 C.3     1  LIG1       -0.0391
     87 H           5.2661   20.5514   -0.1728 H       1  LIG1        0.0278
     88 H           5.1100   19.4779   -1.5692 H       1  LIG1        0.0278
     89 H           5.1237   18.7947    0.0586 H       1  LIG1        0.0278
     90 C          -1.0294   20.3260   -0.0869 C.3     1  LIG1       -0.0391
     91 H          -1.5004   19.3642    0.1106 H       1  LIG1        0.0278
     92 H          -1.4720   20.7536   -0.9892 H       1  LIG1        0.0278
     93 H          -1.2391   20.9993    0.7458 H       1  LIG1        0.0278
     94 C           0.0431   23.0022   -1.6852 C.ar    1  LIG1        0.2203
     95 C           0.7639   22.6267   -0.5274 C.ar    1  LIG1        0.0450
     96 C           0.9350   23.5879    0.4498 C.ar    1  LIG1       -0.0301
     97 C           0.3813   24.8594    0.2575 C.ar    1  LIG1        0.0706
     98 C          -0.3205   25.1106   -0.9188 C.ar    1  LIG1        0.0488
     99 N          -0.4819   24.1994   -1.8713 N.ar    1  LIG1       -0.2197
    100 H           1.4813   23.3537    1.3546 H       1  LIG1        0.0639
    101 H          -0.7628   26.0836   -1.0930 H       1  LIG1        0.0844
    102 O          -0.1464   22.1244   -2.6799 O.3     1  LIG1       -0.4920
    103 H           0.3270   21.3033   -2.4827 H       1  LIG1        0.2937
    104 N           0.6242   26.7151    2.0505 N.1     1  LIG1       -0.1908
    105 C           0.5191   25.8939    1.2556 C.1     1  LIG1        0.1007
@<TRIPOS>BOND
     1    75    73    1
     2   102   103    1
     3   102    94    1
     4    74    73    1
     5    73    65    1
     6    64    61    1
     7    21    19    1
     8    69    66    1
     9    62    61    1
    10    99    94   ar
    11    99    98   ar
    12    61    63    1
    13    61    60    1
    14    94    95   ar
    15    22    19    1
    16    88    86    1
    17    19    20    1
    18    19    18    1
    19    65    66   ar
    20    65    67   ar
    21    66    68   ar
    22   101    98    1
    23    44    43    1
    24    92    90    1
    25    98    97   ar
    26    43    36    1
    27    60    53    1
    28    56    52    1
    29    82    79    1
    30    35    33    1
    31    53    52   ar
    32    53    54   ar
    33    86    78    1
    34    86    87    1
    35    86    89    1
    36    95    81    1
    37    95    96   ar
    38    52    51   ar
    39    79    78   ar
    40    79    81   ar
    41    41    36   ar
    42    41    40   ar
    43    36    37   ar
    44    78    80   ar
    45    23    15    1
    46    23    24    1
    47    11    12    3
    48    81    84   ar
    49    67    54    1
    50    67    70   ar
    51    80    68    1
    52    80    83   ar
    53    68    71   ar
    54    18    14    1
    55    54    55   ar
    56    30    29    1
    57    84    83   ar
    58    84    90    1
    59    83    85    1
    60    15    14   ar
    61    15    16   ar
    62    12     7    1
    63    51    40    1
    64    51    50   ar
    65    14    13   ar
    66    40    39   ar
    67    29    28   ar
    68    29    25   ar
    69    90    91    1
    70    90    93    1
    71    37    28    1
    72    37    38   ar
    73    28    27   ar
    74    16    25    1
    75    16    17   ar
    76    25    26   ar
    77    13    17   ar
    78    13     4    1
    79    55    50   ar
    80     7     4   ar
    81     7     6   ar
    82    50    57    1
    83    27    26   ar
    84    27    33    1
    85     8     6    1
    86     4     2   ar
    87    26    32    1
    88    59    57    1
    89    97    96   ar
    90    97   105    1
    91     6     3   ar
    92    33    34    1
    93    39    38   ar
    94    39    45    1
    95    38    42    1
    96    96   100    1
    97    32    31    3
    98     2     5    1
    99     2     1   ar
   100     3     1   ar
   101     3     9    1
   102    57    58    1
   103     1    10    1
   104    45    46    1
   105    70    71   ar
   106    70    72    1
   107    71    76    1
   108    49    46    1
   109   105   104    3
   110    46    47    1
   111    46    48    1
   112    76    77    1
