@<TRIPOS>MOLECULE
mol_data/opt/m06hf/geoms/mol2/4ae.out
 14 14 0 0 0
SMALL
GASTEIGER

@<TRIPOS>ATOM
      1 C           0.0487    0.0124    0.0005 C.ar    1  LIG1       -0.0617
      2 C           1.4415   -0.0154    0.0001 C.ar    1  LIG1       -0.0606
      3 C          -0.6251    1.2318    0.0003 C.ar    1  LIG1       -0.0606
      4 C           2.1633    1.1728   -0.0004 C.ar    1  LIG1       -0.0463
      5 H           1.9660   -0.9616    0.0002 H       1  LIG1        0.0618
      6 C           0.0899    2.4242   -0.0001 C.ar    1  LIG1       -0.0463
      7 C           1.4879    2.3972   -0.0005 C.ar    1  LIG1        0.0247
      8 H          -0.4205    3.3775   -0.0002 H       1  LIG1        0.0630
      9 H           3.2447    1.1654   -0.0006 H       1  LIG1        0.0630
     10 H          -1.7066    1.2549    0.0006 H       1  LIG1        0.0618
     11 H          -0.5106   -0.9142    0.0009 H       1  LIG1        0.0618
     12 C           2.2350    3.6351   -0.0010 C.1     1  LIG1       -0.0697
     13 C           2.8559    4.6639   -0.0014 C.1     1  LIG1       -0.1139
     14 H           3.4064    5.5760   -0.0023 H       1  LIG1        0.1232
@<TRIPOS>BOND
     1    14    13    1
     2    13    12    3
     3    12     7    1
     4     9     4    1
     5     7     4   ar
     6     7     6   ar
     7     4     2   ar
     8     8     6    1
     9     6     3   ar
    10     2     5    1
    11     2     1   ar
    12     3     1   ar
    13     3    10    1
    14     1    11    1
