@<TRIPOS>MOLECULE
mol_data/opt/m06hf/geoms/mol2/4ae4ae4ae-4ae-.out
 50 53 0 0 0
SMALL
GASTEIGER

@<TRIPOS>ATOM
      1 C          -0.1442    0.5875    1.4563 C.ar    1  LIG1       -0.0611
      2 C           1.2427    0.5962    1.3535 C.ar    1  LIG1       -0.0529
      3 C          -0.9116    1.3373    0.5687 C.ar    1  LIG1       -0.0606
      4 C           1.8885    1.3468    0.3688 C.ar    1  LIG1       -0.0025
      5 H           1.8440    0.0311    2.0550 H       1  LIG1        0.0624
      6 C          -0.2866    2.0880   -0.4185 C.ar    1  LIG1       -0.0457
      7 C           1.1083    2.0989   -0.5260 C.ar    1  LIG1        0.0324
      8 H          -0.8658    2.6705   -1.1221 H       1  LIG1        0.0630
      9 H          -1.9907    1.3366    0.6443 H       1  LIG1        0.0618
     10 H          -0.6225    0.0036    2.2314 H       1  LIG1        0.0618
     11 C           1.7128    2.8745   -1.5863 C.1     1  LIG1       -0.0691
     12 C           2.1861    3.5263   -2.4782 C.1     1  LIG1       -0.1139
     13 H           2.6185    4.0974   -3.2669 H       1  LIG1        0.1232
     14 C           4.0603    0.1048    0.2770 C.ar    1  LIG1       -0.0533
     15 C           5.4494    0.0743    0.2439 C.ar    1  LIG1       -0.0523
     16 C           3.3794    1.3239    0.2940 C.ar    1  LIG1       -0.0155
     17 C           6.1976    1.2518    0.2281 C.ar    1  LIG1       -0.0024
     18 H           5.9696   -0.8754    0.2453 H       1  LIG1        0.0624
     19 C           4.1156    2.5069    0.2748 C.ar    1  LIG1       -0.0380
     20 C           5.5119    2.4798    0.2420 C.ar    1  LIG1        0.0329
     21 H           3.6096    3.4630    0.2837 H       1  LIG1        0.0636
     22 H           3.4972   -0.8201    0.2788 H       1  LIG1        0.0624
     23 C           6.2200    3.7403    0.1981 C.1     1  LIG1       -0.0690
     24 C           6.7803    4.8030    0.1590 C.1     1  LIG1       -0.1139
     25 H           7.2860    5.7397    0.1180 H       1  LIG1        0.1232
     26 C           8.4741    1.8766    1.1087 C.ar    1  LIG1       -0.0533
     27 C           9.8568    1.7517    1.0833 C.ar    1  LIG1       -0.0523
     28 C           7.6874    1.1725    0.1932 C.ar    1  LIG1       -0.0155
     29 C          10.4966    0.9317    0.1507 C.ar    1  LIG1       -0.0024
     30 H          10.4588    2.2769    1.8141 H       1  LIG1        0.0624
     31 C           8.3140    0.3533   -0.7427 C.ar    1  LIG1       -0.0380
     32 C           9.7064    0.2290   -0.7734 C.ar    1  LIG1        0.0329
     33 H           7.7255   -0.1799   -1.4782 H       1  LIG1        0.0636
     34 H           7.9986    2.5080    1.8477 H       1  LIG1        0.0624
     35 C          10.2975   -0.6084   -1.7936 C.1     1  LIG1       -0.0690
     36 C          10.7588   -1.3103   -2.6536 C.1     1  LIG1       -0.1139
     37 H          11.1801   -1.9274   -3.4135 H       1  LIG1        0.1232
     38 C          12.7583    1.9984    0.1630 C.ar    1  LIG1       -0.0539
     39 C          14.1482    1.9249    0.1973 C.ar    1  LIG1       -0.0600
     40 C          11.9864    0.8344    0.1579 C.ar    1  LIG1       -0.0156
     41 C          14.7812    0.6888    0.2292 C.ar    1  LIG1       -0.0463
     42 H          14.7367    2.8326    0.1936 H       1  LIG1        0.0618
     43 C          12.6212   -0.4076    0.1894 C.ar    1  LIG1       -0.0386
     44 C          14.0150   -0.4813    0.2254 C.ar    1  LIG1        0.0253
     45 H          12.0383   -1.3186    0.1913 H       1  LIG1        0.0636
     46 H          15.8600    0.6160    0.2565 H       1  LIG1        0.0630
     47 H          12.2643    2.9613    0.1202 H       1  LIG1        0.0624
     48 C          14.6665   -1.7716    0.2637 C.1     1  LIG1       -0.0696
     49 C          15.2119   -2.8423    0.2962 C.1     1  LIG1       -0.1139
     50 H          15.6927   -3.7928    0.3268 H       1  LIG1        0.1232
@<TRIPOS>BOND
     1    37    36    1
     2    13    12    1
     3    36    35    3
     4    12    11    3
     5    35    32    1
     6    11     7    1
     7    33    31    1
     8     8     6    1
     9    32    31   ar
    10    32    29   ar
    11    31    28   ar
    12     7     6   ar
    13     7     4   ar
    14     6     3   ar
    15    25    24    1
    16    47    38    1
    17    29    40    1
    18    29    27   ar
    19    40    38   ar
    20    40    43   ar
    21    24    23    3
    22    38    39   ar
    23    43    45    1
    24    43    44   ar
    25    28    17    1
    26    28    26   ar
    27    42    39    1
    28    39    41   ar
    29    23    20    1
    30    44    41   ar
    31    44    48    1
    32    17    20   ar
    33    17    15   ar
    34    41    46    1
    35    20    19   ar
    36    15    18    1
    37    15    14   ar
    38    48    49    3
    39    19    21    1
    40    19    16   ar
    41    14    22    1
    42    14    16   ar
    43    16     4    1
    44    49    50    1
    45     4     2   ar
    46     3     9    1
    47     3     1   ar
    48    27    26   ar
    49    27    30    1
    50    26    34    1
    51     2     1   ar
    52     2     5    1
    53     1    10    1
