@<TRIPOS>MOLECULE
mol_data/opt/m06hf/geoms/mol2/4ae4ae-4ae4ae.out
 50 53 0 0 0
SMALL
GASTEIGER

@<TRIPOS>ATOM
      1 C          -0.1884    0.1334    0.9803 C.ar    1  LIG1       -0.0611
      2 C           1.1990    0.1375    0.8842 C.ar    1  LIG1       -0.0529
      3 C          -0.9196    1.2313    0.5342 C.ar    1  LIG1       -0.0606
      4 C           1.8821    1.2286    0.3432 C.ar    1  LIG1       -0.0025
      5 H           1.7712   -0.7063    1.2490 H       1  LIG1        0.0624
      6 C          -0.2575    2.3253   -0.0070 C.ar    1  LIG1       -0.0457
      7 C           1.1380    2.3320   -0.1087 C.ar    1  LIG1        0.0324
      8 H          -0.8072    3.1844   -0.3665 H       1  LIG1        0.0630
      9 H          -1.9990    1.2366    0.6086 H       1  LIG1        0.0618
     10 H          -0.6948   -0.7218    1.4079 H       1  LIG1        0.0618
     11 C           1.7751    3.4803   -0.7147 C.1     1  LIG1       -0.0691
     12 C           2.2654    4.4506   -1.2277 C.1     1  LIG1       -0.1139
     13 H           2.7063    5.3064   -1.6841 H       1  LIG1        0.1232
     14 C           4.1576    2.2342    0.7441 C.ar    1  LIG1       -0.0533
     15 C           5.5425    2.1566    0.6816 C.ar    1  LIG1       -0.0523
     16 C           3.3715    1.1882    0.2536 C.ar    1  LIG1       -0.0155
     17 C           6.1850    1.0454    0.1304 C.ar    1  LIG1       -0.0024
     18 H           6.1461    2.9588    1.0871 H       1  LIG1        0.0624
     19 C           4.0008    0.0752   -0.2985 C.ar    1  LIG1       -0.0380
     20 C           5.3951   -0.0047   -0.3657 C.ar    1  LIG1        0.0329
     21 H           3.4108   -0.7345   -0.7083 H       1  LIG1        0.0636
     22 H           3.6817    3.0998    1.1852 H       1  LIG1        0.0624
     23 C           5.9837   -1.1702   -0.9877 C.1     1  LIG1       -0.0690
     24 C           6.4354   -2.1503   -1.5168 C.1     1  LIG1       -0.1139
     25 H           6.8432   -3.0125   -1.9910 H       1  LIG1        0.1232
     26 C           8.3964   -0.0854    0.5550 C.ar    1  LIG1       -0.0533
     27 C           9.7847   -0.0767    0.5242 C.ar    1  LIG1       -0.0523
     28 C           7.6757    1.0114    0.0754 C.ar    1  LIG1       -0.0155
     29 C          10.4948    1.0127    0.0140 C.ar    1  LIG1       -0.0024
     30 H          10.3373   -0.9179    0.9234 H       1  LIG1        0.0624
     31 C           8.3723    2.1038   -0.4349 C.ar    1  LIG1       -0.0380
     32 C           9.7700    2.1129   -0.4727 C.ar    1  LIG1        0.0329
     33 H           7.8334    2.9528   -0.8352 H       1  LIG1        0.0636
     34 H           7.8674   -0.9365    0.9636 H       1  LIG1        0.0624
     35 C          10.4304    3.2609   -1.0534 C.1     1  LIG1       -0.0690
     36 C          10.9471    4.2295   -1.5428 C.1     1  LIG1       -0.1139
     37 H          11.4151    5.0831   -1.9757 H       1  LIG1        0.1232
     38 C          12.6417   -0.1472   -0.5308 C.ar    1  LIG1       -0.0539
     39 C          14.0324   -0.2153   -0.5339 C.ar    1  LIG1       -0.0600
     40 C          11.9870    0.9709   -0.0086 C.ar    1  LIG1       -0.0156
     41 C          14.7830    0.8317   -0.0145 C.ar    1  LIG1       -0.0463
     42 H          14.5290   -1.0828   -0.9470 H       1  LIG1        0.0618
     43 C          12.7400    2.0229    0.5127 C.ar    1  LIG1       -0.0386
     44 C          14.1347    1.9545    0.5103 C.ar    1  LIG1        0.0253
     45 H          12.2493    2.8941    0.9247 H       1  LIG1        0.0636
     46 H          15.8639    0.7939   -0.0101 H       1  LIG1        0.0630
     47 H          12.0559   -0.9548   -0.9519 H       1  LIG1        0.0624
     48 C          14.9105    3.0461    1.0552 C.1     1  LIG1       -0.0696
     49 C          15.5588    3.9512    1.5072 C.1     1  LIG1       -0.1139
     50 H          16.1310    4.7546    1.9089 H       1  LIG1        0.1232
@<TRIPOS>BOND
     1    25    24    1
     2    37    36    1
     3    13    12    1
     4    36    35    3
     5    24    23    3
     6    12    11    3
     7    35    32    1
     8    23    20    1
     9    47    38    1
    10    42    39    1
    11    33    31    1
    12    11     7    1
    13    21    19    1
    14    39    38   ar
    15    39    41   ar
    16    38    40   ar
    17    32    31   ar
    18    32    29   ar
    19    31    28   ar
    20     8     6    1
    21    20    19   ar
    22    20    17   ar
    23    19    16   ar
    24     7     6   ar
    25     7     4   ar
    26    41    46    1
    27    41    44   ar
    28    40    29    1
    29    40    43   ar
    30     6     3   ar
    31    29    27   ar
    32    28    17    1
    33    28    26   ar
    34    17    15   ar
    35    16     4    1
    36    16    14   ar
    37     4     2   ar
    38    44    43   ar
    39    44    48    1
    40    43    45    1
    41    27    26   ar
    42    27    30    1
    43     3     9    1
    44     3     1   ar
    45    26    34    1
    46    15    14   ar
    47    15    18    1
    48    14    22    1
    49     2     1   ar
    50     2     5    1
    51     1    10    1
    52    48    49    3
    53    49    50    1
