@<TRIPOS>MOLECULE
mol_data/opt/m06hf/geoms/mol2/4ae4ae4ae4ae-.out
 50 53 0 0 0
SMALL
GASTEIGER

@<TRIPOS>ATOM
      1 C          -0.1661    1.3635    1.6580 C.ar    1  LIG1       -0.0611
      2 C           1.2209    1.3100    1.5710 C.ar    1  LIG1       -0.0529
      3 C          -0.9231    1.6584    0.5270 C.ar    1  LIG1       -0.0606
      4 C           1.8774    1.5486    0.3617 C.ar    1  LIG1       -0.0025
      5 H           1.8136    1.1006    2.4527 H       1  LIG1        0.0624
      6 C          -0.2873    1.8969   -0.6844 C.ar    1  LIG1       -0.0457
      7 C           1.1079    1.8442   -0.7762 C.ar    1  LIG1        0.0324
      8 H          -0.8575    2.1202   -1.5758 H       1  LIG1        0.0630
      9 H          -2.0025    1.7019    0.5878 H       1  LIG1        0.0618
     10 H          -0.6524    1.1827    2.6074 H       1  LIG1        0.0618
     11 C           1.7239    2.0746   -2.0640 C.1     1  LIG1       -0.0691
     12 C           2.2039    2.2705   -3.1483 C.1     1  LIG1       -0.1139
     13 H           2.6408    2.4392   -4.1051 H       1  LIG1        0.1232
     14 C           4.0297    0.3557    0.8191 C.ar    1  LIG1       -0.0533
     15 C           5.4184    0.2926    0.8048 C.ar    1  LIG1       -0.0523
     16 C           3.3678    1.4754    0.3121 C.ar    1  LIG1       -0.0155
     17 C           6.1829    1.3401    0.2905 C.ar    1  LIG1       -0.0024
     18 H           5.9240   -0.5741    1.2117 H       1  LIG1        0.0624
     19 C           4.1206    2.5263   -0.2082 C.ar    1  LIG1       -0.0380
     20 C           5.5162    2.4672   -0.2219 C.ar    1  LIG1        0.0329
     21 H           3.6287    3.4013   -0.6111 H       1  LIG1        0.0636
     22 H           3.4531   -0.4710    1.2146 H       1  LIG1        0.0624
     23 C           6.2443    3.5778   -0.7946 C.1     1  LIG1       -0.0690
     24 C           6.8257    4.5122   -1.2784 C.1     1  LIG1       -0.1139
     25 H           7.3521    5.3332   -1.7074 H       1  LIG1        0.1232
     26 C           8.2889    0.0929   -0.2336 C.ar    1  LIG1       -0.0533
     27 C           9.6736   -0.0278   -0.2155 C.ar    1  LIG1       -0.0523
     28 C           7.6717    1.2311    0.2889 C.ar    1  LIG1       -0.0155
     29 C          10.4786    0.9764    0.3235 C.ar    1  LIG1       -0.0024
     30 H          10.1450   -0.9180   -0.6125 H       1  LIG1        0.0624
     31 C           8.4651    2.2414    0.8292 C.ar    1  LIG1       -0.0380
     32 C           9.8567    2.1227    0.8494 C.ar    1  LIG1        0.0329
     33 H           8.0083    3.1333    1.2364 H       1  LIG1        0.0636
     34 H           7.6808   -0.6918   -0.6664 H       1  LIG1        0.0624
     35 C          10.6290    3.2159    1.3976 C.1     1  LIG1       -0.0690
     36 C          11.2430    4.1423    1.8547 C.1     1  LIG1       -0.1139
     37 H          11.7951    4.9618    2.2526 H       1  LIG1        0.1232
     38 C          12.7099    0.9572    1.4889 C.ar    1  LIG1       -0.0539
     39 C          14.0878    0.7655    1.4713 C.ar    1  LIG1       -0.0600
     40 C          11.9627    0.8106    0.3167 C.ar    1  LIG1       -0.0156
     41 C          14.7352    0.4282    0.2878 C.ar    1  LIG1       -0.0463
     42 H          14.6574    0.8742    2.3844 H       1  LIG1        0.0618
     43 C          12.6107    0.4720   -0.8701 C.ar    1  LIG1       -0.0386
     44 C          13.9953    0.2822   -0.8884 C.ar    1  LIG1        0.0253
     45 H          12.0478    0.3723   -1.7890 H       1  LIG1        0.0636
     46 H          15.8058    0.2764    0.2621 H       1  LIG1        0.0630
     47 H          12.2067    1.2141    2.4117 H       1  LIG1        0.0624
     48 C          14.6589   -0.0620   -2.1258 C.1     1  LIG1       -0.0696
     49 C          15.2100   -0.3494   -3.1542 C.1     1  LIG1       -0.1139
     50 H          15.6961   -0.6028   -4.0675 H       1  LIG1        0.1232
@<TRIPOS>BOND
     1    13    12    1
     2    50    49    1
     3    49    48    3
     4    12    11    3
     5    48    44    1
     6    11     7    1
     7    45    43    1
     8    25    24    1
     9     8     6    1
    10    24    23    3
    11    44    43   ar
    12    44    41   ar
    13    43    40   ar
    14    23    20    1
    15     7     6   ar
    16     7     4   ar
    17     6     3   ar
    18    34    26    1
    19    30    27    1
    20    21    19    1
    21    26    27   ar
    22    26    28   ar
    23    20    19   ar
    24    20    17   ar
    25    27    29   ar
    26    19    16   ar
    27    46    41    1
    28    41    39   ar
    29    28    17    1
    30    28    31   ar
    31    17    15   ar
    32    16     4    1
    33    16    14   ar
    34    40    29    1
    35    40    38   ar
    36    29    32   ar
    37     4     2   ar
    38     3     9    1
    39     3     1   ar
    40    15    14   ar
    41    15    18    1
    42    14    22    1
    43    31    32   ar
    44    31    33    1
    45    32    35    1
    46    35    36    3
    47    39    38   ar
    48    39    42    1
    49    38    47    1
    50     2     1   ar
    51     2     5    1
    52     1    10    1
    53    36    37    1
