@<TRIPOS>MOLECULE
mol_data/opt/m06hf/geoms/mol2/4ae4ae.out
 26 27 0 0 0
SMALL
GASTEIGER

@<TRIPOS>ATOM
      1 C           0.0750    0.1093    0.7805 C.ar    1  LIG1       -0.0611
      2 C           1.4548    0.1420    0.6104 C.ar    1  LIG1       -0.0529
      3 C          -0.6960    1.2111    0.4192 C.ar    1  LIG1       -0.0606
      4 C           2.0913    1.2658    0.0789 C.ar    1  LIG1       -0.0025
      5 H           2.0599   -0.7045    0.9098 H       1  LIG1        0.0624
      6 C          -0.0808    2.3377   -0.1106 C.ar    1  LIG1       -0.0457
      7 C           1.3072    2.3738   -0.2849 C.ar    1  LIG1        0.0324
      8 H          -0.6629    3.2011   -0.4026 H       1  LIG1        0.0630
      9 H          -1.7696    1.1950    0.5509 H       1  LIG1        0.0618
     10 H          -0.3944   -0.7707    1.2000 H       1  LIG1        0.0618
     11 C           1.8980    3.5599   -0.8643 C.1     1  LIG1       -0.0691
     12 C           2.3589    4.5594   -1.3467 C.1     1  LIG1       -0.1139
     13 H           2.7793    5.4402   -1.7735 H       1  LIG1        0.1232
     14 C           4.1872    0.1717   -0.7349 C.ar    1  LIG1       -0.0539
     15 C           5.5718    0.1238   -0.8729 C.ar    1  LIG1       -0.0600
     16 C           3.5751    1.2505   -0.0918 C.ar    1  LIG1       -0.0156
     17 C           6.3594    1.1509   -0.3690 C.ar    1  LIG1       -0.0463
     18 H           6.0351   -0.7131   -1.3783 H       1  LIG1        0.0618
     19 C           4.3652    2.2833    0.4131 C.ar    1  LIG1       -0.0386
     20 C           5.7539    2.2350    0.2756 C.ar    1  LIG1        0.0253
     21 H           3.9074    3.1236    0.9171 H       1  LIG1        0.0636
     22 H           7.4357    1.1282   -0.4694 H       1  LIG1        0.0630
     23 H           3.5711   -0.6199   -1.1430 H       1  LIG1        0.0624
     24 C           6.5679    3.3053    0.8070 C.1     1  LIG1       -0.0696
     25 C           7.2505    4.1909    1.2473 C.1     1  LIG1       -0.1139
     26 H           7.8560    4.9750    1.6391 H       1  LIG1        0.1232
@<TRIPOS>BOND
     1    13    12    1
     2    18    15    1
     3    12    11    3
     4    23    14    1
     5    15    14   ar
     6    15    17   ar
     7    11     7    1
     8    14    16   ar
     9    22    17    1
    10     8     6    1
    11    17    20   ar
    12     7     6   ar
    13     7     4   ar
    14     6     3   ar
    15    16     4    1
    16    16    19   ar
    17     4     2   ar
    18    20    19   ar
    19    20    24    1
    20    19    21    1
    21     3     9    1
    22     3     1   ar
    23     2     1   ar
    24     2     5    1
    25     1    10    1
    26    24    25    3
    27    25    26    1
