@<TRIPOS>MOLECULE
mol_data/opt/m06hf/geoms/mol2/4ae4ae4ae4ae.out
 50 53 0 0 0
SMALL
GASTEIGER

@<TRIPOS>ATOM
      1 C           0.0425    0.8868    2.0058 C.ar    1  LIG1       -0.0611
      2 C           1.4120    0.9507    1.7723 C.ar    1  LIG1       -0.0529
      3 C          -0.8521    1.2192    0.9916 C.ar    1  LIG1       -0.0606
      4 C           1.9145    1.3444    0.5302 C.ar    1  LIG1       -0.0025
      5 H           2.1109    0.7145    2.5649 H       1  LIG1        0.0624
      6 C          -0.3704    1.6103   -0.2510 C.ar    1  LIG1       -0.0457
      7 C           1.0066    1.6745   -0.4905 C.ar    1  LIG1        0.0324
      8 H          -1.0493    1.8637   -1.0538 H       1  LIG1        0.0630
      9 H          -1.9185    1.1746    1.1674 H       1  LIG1        0.0618
     10 H          -0.3245    0.5867    2.9783 H       1  LIG1        0.0618
     11 C           1.4624    2.0552   -1.8091 C.1     1  LIG1       -0.0691
     12 C           1.8129    2.3684   -2.9151 C.1     1  LIG1       -0.1139
     13 H           2.1382    2.6403   -3.8923 H       1  LIG1        0.1232
     14 C           4.1867    0.3008    0.6619 C.ar    1  LIG1       -0.0533
     15 C           5.5672    0.3578    0.5089 C.ar    1  LIG1       -0.0523
     16 C           3.3922    1.3980    0.3240 C.ar    1  LIG1       -0.0155
     17 C           6.1925    1.5050    0.0198 C.ar    1  LIG1       -0.0024
     18 H           6.1777   -0.4917    0.7880 H       1  LIG1        0.0624
     19 C           4.0051    2.5473   -0.1712 C.ar    1  LIG1       -0.0380
     20 C           5.3921    2.6083   -0.3252 C.ar    1  LIG1        0.0329
     21 H           3.4085    3.4076   -0.4433 H       1  LIG1        0.0636
     22 H           3.7191   -0.6016    1.0360 H       1  LIG1        0.0624
     23 C           5.9694    3.8197   -0.8646 C.1     1  LIG1       -0.0690
     24 C           6.4213    4.8381   -1.3164 C.1     1  LIG1       -0.1139
     25 H           6.8342    5.7355   -1.7165 H       1  LIG1        0.1232
     26 C           8.3307    0.4913   -0.7980 C.ar    1  LIG1       -0.0533
     27 C           9.7164    0.4861   -0.9052 C.ar    1  LIG1       -0.0523
     28 C           7.6776    1.5259   -0.1253 C.ar    1  LIG1       -0.0155
     29 C          10.4880    1.5055   -0.3465 C.ar    1  LIG1       -0.0024
     30 H          10.2163   -0.3270   -1.4161 H       1  LIG1        0.0624
     31 C           8.4368    2.5518    0.4337 C.ar    1  LIG1       -0.0380
     32 C           9.8298    2.5487    0.3288 C.ar    1  LIG1        0.0329
     33 H           7.9518    3.3652    0.9562 H       1  LIG1        0.0636
     34 H           7.7490   -0.3047   -1.2464 H       1  LIG1        0.0624
     35 C          10.5620    3.6519    0.9107 C.1     1  LIG1       -0.0690
     36 C          11.1409    4.5823    1.4039 C.1     1  LIG1       -0.1139
     37 H          11.6625    5.4035    1.8376 H       1  LIG1        0.1232
     38 C          12.5441    1.2668   -1.7490 C.ar    1  LIG1       -0.0539
     39 C          13.9267    1.1920   -1.8948 C.ar    1  LIG1       -0.0600
     40 C          11.9734    1.4630   -0.4891 C.ar    1  LIG1       -0.0156
     41 C          14.7525    1.3113   -0.7843 C.ar    1  LIG1       -0.0463
     42 H          14.3589    1.0473   -2.8757 H       1  LIG1        0.0618
     43 C          12.8020    1.5845    0.6265 C.ar    1  LIG1       -0.0386
     44 C          14.1885    1.5083    0.4805 C.ar    1  LIG1        0.0253
     45 H          12.3763    1.7302    1.6099 H       1  LIG1        0.0636
     46 H          15.8283    1.2548   -0.8818 H       1  LIG1        0.0630
     47 H          11.8995    1.1919   -2.6160 H       1  LIG1        0.0624
     48 C          15.0415    1.6282    1.6418 C.1     1  LIG1       -0.0696
     49 C          15.7490    1.7281    2.6079 C.1     1  LIG1       -0.1139
     50 H          16.3736    1.8155    3.4663 H       1  LIG1        0.1232
@<TRIPOS>BOND
     1    13    12    1
     2    12    11    3
     3    42    39    1
     4    47    38    1
     5    39    38   ar
     6    39    41   ar
     7    11     7    1
     8    38    40   ar
     9    25    24    1
    10    30    27    1
    11    24    23    3
    12    34    26    1
    13     8     6    1
    14    27    26   ar
    15    27    29   ar
    16    46    41    1
    17    23    20    1
    18    26    28   ar
    19    41    44   ar
    20     7     6   ar
    21     7     4   ar
    22    40    29    1
    23    40    43   ar
    24    21    19    1
    25    29    32   ar
    26    20    19   ar
    27    20    17   ar
    28     6     3   ar
    29    19    16   ar
    30    28    17    1
    31    28    31   ar
    32    17    15   ar
    33    16     4    1
    34    16    14   ar
    35    32    31   ar
    36    32    35    1
    37    31    33    1
    38    44    43   ar
    39    44    48    1
    40    15    14   ar
    41    15    18    1
    42     4     2   ar
    43    43    45    1
    44    14    22    1
    45    35    36    3
    46     3     9    1
    47     3     1   ar
    48    36    37    1
    49    48    49    3
    50     2     1   ar
    51     2     5    1
    52     1    10    1
    53    49    50    1
