@<TRIPOS>MOLECULE
mol_data/opt/m06hf/geoms/mol2/4ae4ae4ae.out
 38 40 0 0 0
SMALL
GASTEIGER

@<TRIPOS>ATOM
      1 C           0.0784    0.3881    1.4745 C.ar    1  LIG1       -0.0611
      2 C           1.4534    0.4562    1.2773 C.ar    1  LIG1       -0.0529
      3 C          -0.7735    1.1804    0.7090 C.ar    1  LIG1       -0.0606
      4 C           2.0042    1.3089    0.3184 C.ar    1  LIG1       -0.0025
      5 H           2.1202   -0.1425    1.8854 H       1  LIG1        0.0624
      6 C          -0.2439    2.0342   -0.2497 C.ar    1  LIG1       -0.0457
      7 C           1.1386    2.1035   -0.4532 C.ar    1  LIG1        0.0324
      8 H          -0.8895    2.6517   -0.8592 H       1  LIG1        0.0630
      9 H          -1.8438    1.1347    0.8585 H       1  LIG1        0.0618
     10 H          -0.3250   -0.2759    2.2275 H       1  LIG1        0.0618
     11 C           1.6398    2.9827   -1.4863 C.1     1  LIG1       -0.0691
     12 C           2.0264    3.7222   -2.3512 C.1     1  LIG1       -0.1139
     13 H           2.3820    4.3746   -3.1149 H       1  LIG1        0.1232
     14 C           4.1951    0.1492   -0.0256 C.ar    1  LIG1       -0.0533
     15 C           5.5777    0.1662   -0.1681 C.ar    1  LIG1       -0.0523
     16 C           3.4857    1.3412    0.1347 C.ar    1  LIG1       -0.0155
     17 C           6.2905    1.3654   -0.1543 C.ar    1  LIG1       -0.0024
     18 H           6.1212   -0.7637   -0.2773 H       1  LIG1        0.0624
     19 C           4.1863    2.5454    0.1496 C.ar    1  LIG1       -0.0380
     20 C           5.5759    2.5659    0.0057 C.ar    1  LIG1        0.0329
     21 H           3.6590    3.4817    0.2720 H       1  LIG1        0.0636
     22 H           3.6596   -0.7917   -0.0502 H       1  LIG1        0.0624
     23 C           6.2441    3.8485    0.0049 C.1     1  LIG1       -0.0690
     24 C           6.7713    4.9285    0.0057 C.1     1  LIG1       -0.1139
     25 H           7.2481    5.8810    0.0046 H       1  LIG1        0.1232
     26 C           8.3443    0.6163   -1.3683 C.ar    1  LIG1       -0.0539
     27 C           9.7273    0.5544   -1.5157 C.ar    1  LIG1       -0.0600
     28 C           7.7746    1.3378   -0.3164 C.ar    1  LIG1       -0.0156
     29 C          10.5554    1.2094   -0.6131 C.ar    1  LIG1       -0.0463
     30 H          10.1580   -0.0011   -2.3381 H       1  LIG1        0.0618
     31 C           8.6053    1.9969    0.5901 C.ar    1  LIG1       -0.0386
     32 C           9.9923    1.9339    0.4429 C.ar    1  LIG1        0.0253
     33 H           8.1809    2.5551    1.4136 H       1  LIG1        0.0636
     34 H          11.6314    1.1699   -0.7147 H       1  LIG1        0.0630
     35 H           7.6975    0.1207   -2.0816 H       1  LIG1        0.0624
     36 C          10.8472    2.6141    1.3901 C.1     1  LIG1       -0.0696
     37 C          11.5580    3.1779    2.1782 C.1     1  LIG1       -0.1139
     38 H          12.1860    3.6767    2.8793 H       1  LIG1        0.1232
@<TRIPOS>BOND
     1    13    12    1
     2    12    11    3
     3    30    27    1
     4    35    26    1
     5    27    26   ar
     6    27    29   ar
     7    11     7    1
     8    26    28   ar
     9     8     6    1
    10    34    29    1
    11    29    32   ar
    12     7     6   ar
    13     7     4   ar
    14    28    17    1
    15    28    31   ar
    16    18    15    1
    17     6     3   ar
    18    15    17   ar
    19    15    14   ar
    20    17    20   ar
    21    22    14    1
    22    14    16   ar
    23    25    24    1
    24    23    20    1
    25    23    24    3
    26    20    19   ar
    27    16    19   ar
    28    16     4    1
    29    19    21    1
    30     4     2   ar
    31    32    31   ar
    32    32    36    1
    33    31    33    1
    34     3     9    1
    35     3     1   ar
    36     2     1   ar
    37     2     5    1
    38    36    37    3
    39     1    10    1
    40    37    38    1
