@<TRIPOS>MOLECULE
mol_data/opt/m06hf/geoms/mol2/4ae4ae-4ae.out
 38 40 0 0 0
SMALL
GASTEIGER

@<TRIPOS>ATOM
      1 C          -0.1343    0.0947    0.5920 C.ar    1  LIG1       -0.0611
      2 C           1.2564    0.0884    0.5814 C.ar    1  LIG1       -0.0529
      3 C          -0.8270    1.2471    0.2290 C.ar    1  LIG1       -0.0606
      4 C           1.9810    1.2230    0.2088 C.ar    1  LIG1       -0.0025
      5 H           1.7979   -0.7990    0.8840 H       1  LIG1        0.0624
      6 C          -0.1237    2.3847   -0.1450 C.ar    1  LIG1       -0.0457
      7 C           1.2754    2.3817   -0.1599 C.ar    1  LIG1        0.0324
      8 H          -0.6432    3.2865   -0.4384 H       1  LIG1        0.0630
      9 H          -1.9088    1.2602    0.2366 H       1  LIG1        0.0618
     10 H          -0.6735   -0.7948    0.8895 H       1  LIG1        0.0618
     11 C           1.9594    3.5813   -0.5902 C.1     1  LIG1       -0.0691
     12 C           2.4901    4.5954   -0.9569 C.1     1  LIG1       -0.1139
     13 H           2.9680    5.4883   -1.2870 H       1  LIG1        0.1232
     14 C           4.2369    2.1463    0.8514 C.ar    1  LIG1       -0.0533
     15 C           5.6223    2.0552    0.8639 C.ar    1  LIG1       -0.0523
     16 C           3.4730    1.1698    0.2069 C.ar    1  LIG1       -0.0155
     17 C           6.2884    0.9980    0.2380 C.ar    1  LIG1       -0.0024
     18 H           6.2067    2.8010    1.3879 H       1  LIG1        0.0624
     19 C           4.1254    0.1107   -0.4199 C.ar    1  LIG1       -0.0380
     20 C           5.5206    0.0176   -0.4114 C.ar    1  LIG1        0.0329
     21 H           3.5549   -0.6427   -0.9476 H       1  LIG1        0.0636
     22 H           3.7424    2.9685    1.3519 H       1  LIG1        0.0624
     23 C           6.1348   -1.0885   -1.1128 C.1     1  LIG1       -0.0690
     24 C           6.6050   -2.0199   -1.7093 C.1     1  LIG1       -0.1139
     25 H           7.0297   -2.8395   -2.2410 H       1  LIG1        0.1232
     26 C           8.4575   -0.2025    0.6801 C.ar    1  LIG1       -0.0539
     27 C           9.8475   -0.2155    0.7394 C.ar    1  LIG1       -0.0600
     28 C           7.7802    0.9501    0.2719 C.ar    1  LIG1       -0.0156
     29 C          10.5769    0.9165    0.3928 C.ar    1  LIG1       -0.0463
     30 H          10.3632   -1.1098    1.0628 H       1  LIG1        0.0618
     31 C           8.5108    2.0854   -0.0765 C.ar    1  LIG1       -0.0386
     32 C           9.9071    2.0719   -0.0184 C.ar    1  LIG1        0.0253
     33 H           8.0013    2.9793   -0.4124 H       1  LIG1        0.0636
     34 H          11.6576    0.9177    0.4362 H       1  LIG1        0.0630
     35 H           7.8914   -1.0824    0.9560 H       1  LIG1        0.0624
     36 C          10.6533    3.2537   -0.3875 C.1     1  LIG1       -0.0696
     37 C          11.2693    4.2391   -0.6944 C.1     1  LIG1       -0.1139
     38 H          11.8119    5.1144   -0.9675 H       1  LIG1        0.1232
@<TRIPOS>BOND
     1    25    24    1
     2    24    23    3
     3    13    12    1
     4    23    20    1
     5    38    37    1
     6    12    11    3
     7    21    19    1
     8    37    36    3
     9    11     7    1
    10     8     6    1
    11    19    20   ar
    12    19    16   ar
    13    33    31    1
    14    20    17   ar
    15    36    32    1
    16     7     6   ar
    17     7     4   ar
    18     6     3   ar
    19    31    32   ar
    20    31    28   ar
    21    32    29   ar
    22    16     4    1
    23    16    14   ar
    24     4     2   ar
    25     3     9    1
    26     3     1   ar
    27    17    28    1
    28    17    15   ar
    29    28    26   ar
    30    29    34    1
    31    29    27   ar
    32     2     1   ar
    33     2     5    1
    34     1    10    1
    35    26    27   ar
    36    26    35    1
    37    27    30    1
    38    14    15   ar
    39    14    22    1
    40    15    18    1
