@<TRIPOS>MOLECULE
mol_data/opt/m06hf/geoms/mol2/4ae4ae-4ae-4ae-.out
 50 53 0 0 0
SMALL
GASTEIGER

@<TRIPOS>ATOM
      1 C          -0.2437    0.1521    0.6501 C.ar    1  LIG1       -0.0611
      2 C           1.1398    0.1045    0.5197 C.ar    1  LIG1       -0.0529
      3 C          -0.9045    1.3772    0.6060 C.ar    1  LIG1       -0.0606
      4 C           1.8883    1.2700    0.3441 C.ar    1  LIG1       -0.0025
      5 H           1.6594   -0.8442    0.5724 H       1  LIG1        0.0624
      6 C          -0.1766    2.5466    0.4301 C.ar    1  LIG1       -0.0457
      7 C           1.2155    2.5029    0.2986 C.ar    1  LIG1        0.0324
      8 H          -0.6723    3.5069    0.3850 H       1  LIG1        0.0630
      9 H          -1.9807    1.4213    0.7087 H       1  LIG1        0.0618
     10 H          -0.8027   -0.7633    0.7923 H       1  LIG1        0.0618
     11 C           1.9276    3.7440    0.0875 C.1     1  LIG1       -0.0691
     12 C           2.4864    4.7927   -0.0928 C.1     1  LIG1       -0.1139
     13 H           2.9896    5.7165   -0.2598 H       1  LIG1        0.1232
     14 C           4.2246    1.9263    1.0177 C.ar    1  LIG1       -0.0533
     15 C           5.6012    1.7873    0.9015 C.ar    1  LIG1       -0.0523
     16 C           3.3714    1.1730    0.2071 C.ar    1  LIG1       -0.0155
     17 C           6.1675    0.9056   -0.0225 C.ar    1  LIG1       -0.0024
     18 H           6.2572    2.3505    1.5533 H       1  LIG1        0.0624
     19 C           3.9240    0.2928   -0.7194 C.ar    1  LIG1       -0.0380
     20 C           5.3099    0.1553   -0.8438 C.ar    1  LIG1        0.0329
     21 H           3.2801   -0.2805   -1.3738 H       1  LIG1        0.0636
     22 H           3.8055    2.6069    1.7475 H       1  LIG1        0.0624
     23 C           5.8235   -0.7449   -1.8521 C.1     1  LIG1       -0.0690
     24 C           6.2243   -1.4963   -2.7002 C.1     1  LIG1       -0.1139
     25 H           6.5926   -2.1563   -3.4510 H       1  LIG1        0.1232
     26 C           8.4378    1.9430   -0.2098 C.ar    1  LIG1       -0.0533
     27 C           9.8235    1.8479   -0.2557 C.ar    1  LIG1       -0.0523
     28 C           7.6525    0.7923   -0.1112 C.ar    1  LIG1       -0.0155
     29 C          10.4651    0.6098   -0.2046 C.ar    1  LIG1       -0.0024
     30 H          10.4253    2.7459   -0.3168 H       1  LIG1        0.0624
     31 C           8.2815   -0.4503   -0.0619 C.ar    1  LIG1       -0.0380
     32 C           9.6741   -0.5492   -0.1093 C.ar    1  LIG1        0.0329
     33 H           7.6934   -1.3551    0.0117 H       1  LIG1        0.0636
     34 H           7.9587    2.9129   -0.2617 H       1  LIG1        0.0624
     35 C          10.2669   -1.8684   -0.0831 C.1     1  LIG1       -0.0690
     36 C          10.7260   -2.9789   -0.0602 C.1     1  LIG1       -0.1139
     37 H          11.1415   -3.9597   -0.0405 H       1  LIG1        0.1232
     38 C          12.6384    1.2521   -1.2608 C.ar    1  LIG1       -0.0539
     39 C          14.0300    1.2392   -1.3075 C.ar    1  LIG1       -0.0600
     40 C          11.9559    0.5538   -0.2618 C.ar    1  LIG1       -0.0156
     41 C          14.7530    0.5304   -0.3565 C.ar    1  LIG1       -0.0463
     42 H          14.5489    1.7775   -2.0894 H       1  LIG1        0.0618
     43 C          12.6811   -0.1599    0.6924 C.ar    1  LIG1       -0.0386
     44 C          14.0766   -0.1722    0.6462 C.ar    1  LIG1        0.0253
     45 H          12.1678   -0.7011    1.4758 H       1  LIG1        0.0636
     46 H          15.8340    0.5116   -0.3790 H       1  LIG1        0.0630
     47 H          12.0727    1.7891   -2.0119 H       1  LIG1        0.0624
     48 C          14.8235   -0.9071    1.6425 C.1     1  LIG1       -0.0696
     49 C          15.4437   -1.5159    2.4723 C.1     1  LIG1       -0.1139
     50 H          15.9907   -2.0549    3.2104 H       1  LIG1        0.1232
@<TRIPOS>BOND
     1    25    24    1
     2    24    23    3
     3    42    39    1
     4    47    38    1
     5    23    20    1
     6    21    19    1
     7    39    38   ar
     8    39    41   ar
     9    38    40   ar
    10    20    19   ar
    11    20    17   ar
    12    19    16   ar
    13    46    41    1
    14    41    44   ar
    15    30    27    1
    16    40    29    1
    17    40    43   ar
    18    34    26    1
    19    13    12    1
    20    27    26   ar
    21    27    29   ar
    22    26    28   ar
    23    29    32   ar
    24    28    31   ar
    25    28    17    1
    26    32    35    1
    27    32    31   ar
    28    12    11    3
    29    35    36    3
    30    31    33    1
    31    36    37    1
    32    17    15   ar
    33    11     7    1
    34    16     4    1
    35    16    14   ar
    36     7     4   ar
    37     7     6   ar
    38     4     2   ar
    39     8     6    1
    40     6     3   ar
    41     2     5    1
    42     2     1   ar
    43     3     1   ar
    44     3     9    1
    45    44    43   ar
    46    44    48    1
    47     1    10    1
    48    43    45    1
    49    15    14   ar
    50    15    18    1
    51    14    22    1
    52    48    49    3
    53    49    50    1
