@<TRIPOS>MOLECULE
mol_data/opt/m06hf/geoms/mol2/4ae4ae-4ae-4ae.out
 50 53 0 0 0
SMALL
GASTEIGER

@<TRIPOS>ATOM
      1 C          -0.2491   -0.0219    0.1884 C.ar    1  LIG1       -0.0611
      2 C           1.1419   -0.0242    0.1925 C.ar    1  LIG1       -0.0529
      3 C          -0.9425    1.1852    0.1451 C.ar    1  LIG1       -0.0606
      4 C           1.8655    1.1694    0.1526 C.ar    1  LIG1       -0.0025
      5 H           1.6836   -0.9602    0.2471 H       1  LIG1        0.0624
      6 C          -0.2397    2.3820    0.1031 C.ar    1  LIG1       -0.0457
      7 C           1.1593    2.3842    0.1048 C.ar    1  LIG1        0.0324
      8 H          -0.7594    3.3293    0.0596 H       1  LIG1        0.0630
      9 H          -2.0243    1.1945    0.1429 H       1  LIG1        0.0618
     10 H          -0.7884   -0.9590    0.2256 H       1  LIG1        0.0618
     11 C           1.8428    3.6566    0.0254 C.1     1  LIG1       -0.0691
     12 C           2.3723    4.7331   -0.0450 C.1     1  LIG1       -0.1139
     13 H           2.8507    5.6823   -0.1132 H       1  LIG1        0.1232
     14 C           4.1045    1.8759    1.0656 C.ar    1  LIG1       -0.0533
     15 C           5.4905    1.7921    1.0709 C.ar    1  LIG1       -0.0523
     16 C           3.3577    1.1227    0.1559 C.ar    1  LIG1       -0.0155
     17 C           6.1723    0.9651    0.1750 C.ar    1  LIG1       -0.0024
     18 H           6.0615    2.3564    1.7974 H       1  LIG1        0.0624
     19 C           4.0262    0.2940   -0.7417 C.ar    1  LIG1       -0.0380
     20 C           5.4219    0.2105   -0.7418 C.ar    1  LIG1        0.0329
     21 H           3.4685   -0.2773   -1.4725 H       1  LIG1        0.0636
     22 H           3.5958    2.5140    1.7761 H       1  LIG1        0.0624
     23 C           6.0589   -0.6374   -1.7249 C.1     1  LIG1       -0.0690
     24 C           6.5610   -1.3494   -2.5528 C.1     1  LIG1       -0.1139
     25 H           7.0183   -1.9747   -3.2842 H       1  LIG1        0.1232
     26 C           8.4016    2.1017    0.2108 C.ar    1  LIG1       -0.0533
     27 C           9.7896    2.0666    0.2727 C.ar    1  LIG1       -0.0523
     28 C           7.6635    0.9163    0.2114 C.ar    1  LIG1       -0.0155
     29 C          10.4796    0.8551    0.3365 C.ar    1  LIG1       -0.0024
     30 H          10.3539    2.9904    0.2861 H       1  LIG1        0.0624
     31 C           8.3411   -0.3000    0.2741 C.ar    1  LIG1       -0.0380
     32 C           9.7363   -0.3386    0.3344 C.ar    1  LIG1        0.0329
     33 H           7.7904   -1.2308    0.2717 H       1  LIG1        0.0636
     34 H           7.8857    3.0516    0.1484 H       1  LIG1        0.0624
     35 C          10.3823   -1.6324    0.3669 C.1     1  LIG1       -0.0690
     36 C          10.8852   -2.7236    0.3882 C.1     1  LIG1       -0.1139
     37 H          11.3378   -3.6876    0.4019 H       1  LIG1        0.1232
     38 C          12.6586    0.1493    1.3820 C.ar    1  LIG1       -0.0539
     39 C          14.0471    0.2017    1.4472 C.ar    1  LIG1       -0.0600
     40 C          11.9713    0.8651    0.3973 C.ar    1  LIG1       -0.0156
     41 C          14.7658    0.9643    0.5333 C.ar    1  LIG1       -0.0463
     42 H          14.5705   -0.3496    2.2171 H       1  LIG1        0.0618
     43 C          12.6911    1.6289   -0.5201 C.ar    1  LIG1       -0.0386
     44 C          14.0861    1.6810   -0.4552 C.ar    1  LIG1        0.0253
     45 H          12.1744    2.1725   -1.3006 H       1  LIG1        0.0636
     46 H          15.8455    1.0136    0.5756 H       1  LIG1        0.0630
     47 H          12.1000   -0.4391    2.0981 H       1  LIG1        0.0624
     48 C          14.8228    2.4722   -1.4150 C.1     1  LIG1       -0.0696
     49 C          15.4333    3.1293   -2.2146 C.1     1  LIG1       -0.1139
     50 H          15.9738    3.7107   -2.9248 H       1  LIG1        0.1232
@<TRIPOS>BOND
     1    25    24    1
     2    50    49    1
     3    24    23    3
     4    49    48    3
     5    23    20    1
     6    21    19    1
     7    48    44    1
     8    45    43    1
     9    20    19   ar
    10    20    17   ar
    11    19    16   ar
    12    43    44   ar
    13    43    40   ar
    14    44    41   ar
    15    13    12    1
    16    12    11    3
    17    11     7    1
    18     8     6    1
    19     6     7   ar
    20     6     3   ar
    21     7     4   ar
    22     9     3    1
    23     3     1   ar
    24    34    26    1
    25     4    16    1
    26     4     2   ar
    27    16    14   ar
    28    17    28    1
    29    17    15   ar
    30     1     2   ar
    31     1    10    1
    32     2     5    1
    33    26    28   ar
    34    26    27   ar
    35    28    31   ar
    36    33    31    1
    37    27    30    1
    38    27    29   ar
    39    31    32   ar
    40    32    29   ar
    41    32    35    1
    42    29    40    1
    43    35    36    3
    44    36    37    1
    45    40    38   ar
    46    41    46    1
    47    41    39   ar
    48    14    15   ar
    49    14    22    1
    50    15    18    1
    51    38    39   ar
    52    38    47    1
    53    39    42    1
