@<TRIPOS>MOLECULE
mol_data/opt/m06hf/geoms/mol2/4ae4ae4ae-4ae.out
 50 53 0 0 0
SMALL
GASTEIGER

@<TRIPOS>ATOM
      1 C          -0.1448    0.6209    1.4934 C.ar    1  LIG1       -0.0611
      2 C           1.2408    0.6159    1.3761 C.ar    1  LIG1       -0.0529
      3 C          -0.9157    1.3556    0.5960 C.ar    1  LIG1       -0.0606
      4 C           1.8822    1.3376    0.3668 C.ar    1  LIG1       -0.0025
      5 H           1.8447    0.0647    2.0861 H       1  LIG1        0.0624
      6 C          -0.2955    2.0773   -0.4155 C.ar    1  LIG1       -0.0457
      7 C           1.0984    2.0730   -0.5386 C.ar    1  LIG1        0.0324
      8 H          -0.8773    2.6471   -1.1271 H       1  LIG1        0.0630
      9 H          -1.9940    1.3666    0.6836 H       1  LIG1        0.0618
     10 H          -0.6194    0.0609    2.2883 H       1  LIG1        0.0618
     11 C           1.6987    2.8124   -1.6268 C.1     1  LIG1       -0.0691
     12 C           2.1668    3.4318   -2.5441 C.1     1  LIG1       -0.1139
     13 H           2.5931    3.9735   -3.3562 H       1  LIG1        0.1232
     14 C           4.0477    0.0828    0.2932 C.ar    1  LIG1       -0.0533
     15 C           5.4371    0.0455    0.2608 C.ar    1  LIG1       -0.0523
     16 C           3.3725    1.3048    0.2832 C.ar    1  LIG1       -0.0155
     17 C           6.1892    1.2198    0.2196 C.ar    1  LIG1       -0.0024
     18 H           5.9534   -0.9059    0.2838 H       1  LIG1        0.0624
     19 C           4.1130    2.4844    0.2342 C.ar    1  LIG1       -0.0380
     20 C           5.5090    2.4506    0.2028 C.ar    1  LIG1        0.0329
     21 H           3.6110    3.4424    0.2201 H       1  LIG1        0.0636
     22 H           3.4809   -0.8395    0.3172 H       1  LIG1        0.0624
     23 C           6.2220    3.7069    0.1291 C.1     1  LIG1       -0.0690
     24 C           6.7851    4.7670    0.0630 C.1     1  LIG1       -0.1139
     25 H           7.2916    5.7022   -0.0019 H       1  LIG1        0.1232
     26 C           8.4579    1.8541    1.1075 C.ar    1  LIG1       -0.0533
     27 C           9.8412    1.7367    1.0893 C.ar    1  LIG1       -0.0523
     28 C           7.6793    1.1389    0.1934 C.ar    1  LIG1       -0.0155
     29 C          10.4896    0.9141    0.1648 C.ar    1  LIG1       -0.0024
     30 H          10.4378    2.2724    1.8170 H       1  LIG1        0.0624
     31 C           8.3134    0.3145   -0.7320 C.ar    1  LIG1       -0.0380
     32 C           9.7070    0.1990   -0.7569 C.ar    1  LIG1        0.0329
     33 H           7.7300   -0.2276   -1.4652 H       1  LIG1        0.0636
     34 H           7.9756    2.4903    1.8381 H       1  LIG1        0.0624
     35 C          10.3044   -0.6388   -1.7734 C.1     1  LIG1       -0.0690
     36 C          10.7658   -1.3379   -2.6356 C.1     1  LIG1       -0.1139
     37 H          11.1845   -1.9476   -3.4025 H       1  LIG1        0.1232
     38 C          12.6384   -0.4003    0.2097 C.ar    1  LIG1       -0.0539
     39 C          14.0281   -0.4531    0.2549 C.ar    1  LIG1       -0.0600
     40 C          11.9805    0.8325    0.1770 C.ar    1  LIG1       -0.0156
     41 C          14.7762    0.7188    0.2679 C.ar    1  LIG1       -0.0463
     42 H          14.5288   -1.4114    0.2863 H       1  LIG1        0.0618
     43 C          12.7300    2.0080    0.1901 C.ar    1  LIG1       -0.0386
     44 C          14.1258    1.9551    0.2348 C.ar    1  LIG1        0.0253
     45 H          12.2354    2.9696    0.1476 H       1  LIG1        0.0636
     46 H          15.8567    0.6897    0.3040 H       1  LIG1        0.0630
     47 H          12.0582   -1.3136    0.2074 H       1  LIG1        0.0624
     48 C          14.8928    3.1804    0.2452 C.1     1  LIG1       -0.0696
     49 C          15.5291    4.1998    0.2556 C.1     1  LIG1       -0.1139
     50 H          16.0907    5.1049    0.2635 H       1  LIG1        0.1232
@<TRIPOS>BOND
     1    37    36    1
     2    13    12    1
     3    36    35    3
     4    12    11    3
     5    35    32    1
     6    11     7    1
     7    33    31    1
     8     8     6    1
     9    32    31   ar
    10    32    29   ar
    11    31    28   ar
    12     7     6   ar
    13     7     4   ar
    14     6     3   ar
    15    25    24    1
    16    24    23    3
    17    23    20    1
    18    45    43    1
    19    29    40    1
    20    29    27   ar
    21    40    43   ar
    22    40    38   ar
    23    43    44   ar
    24    28    17    1
    25    28    26   ar
    26    20    17   ar
    27    20    19   ar
    28    47    38    1
    29    38    39   ar
    30    17    15   ar
    31    21    19    1
    32    19    16   ar
    33    44    48    1
    34    44    41   ar
    35    48    49    3
    36    39    41   ar
    37    39    42    1
    38    49    50    1
    39    15    18    1
    40    15    14   ar
    41    41    46    1
    42    16    14   ar
    43    16     4    1
    44    14    22    1
    45     4     2   ar
    46     3     9    1
    47     3     1   ar
    48    27    26   ar
    49    27    30    1
    50    26    34    1
    51     2     1   ar
    52     2     5    1
    53     1    10    1
