@<TRIPOS>MOLECULE
mol_data/opt/m06hf/geoms/mol2/4ae4ae-.out
 26 27 0 0 0
SMALL
GASTEIGER

@<TRIPOS>ATOM
      1 C          -0.0653    0.2018    0.6412 C.ar    1  LIG1       -0.0611
      2 C           1.3246    0.1727    0.6759 C.ar    1  LIG1       -0.0529
      3 C          -0.7250    1.3238    0.1457 C.ar    1  LIG1       -0.0606
      4 C           2.0817    1.2538    0.2194 C.ar    1  LIG1       -0.0025
      5 H           1.8412   -0.6895    1.0786 H       1  LIG1        0.0624
      6 C           0.0110    2.4079   -0.3135 C.ar    1  LIG1       -0.0457
      7 C           1.4098    2.3818   -0.2817 C.ar    1  LIG1        0.0324
      8 H          -0.4826    3.2849   -0.7092 H       1  LIG1        0.0630
      9 H          -1.8058    1.3537    0.1157 H       1  LIG1        0.0618
     10 H          -0.6305   -0.6458    1.0056 H       1  LIG1        0.0618
     11 C           2.1294    3.5245   -0.7996 C.1     1  LIG1       -0.0691
     12 C           2.6906    4.4913   -1.2412 C.1     1  LIG1       -0.1139
     13 H           3.1986    5.3400   -1.6366 H       1  LIG1        0.1232
     14 C           4.3256    2.1883    0.8763 C.ar    1  LIG1       -0.0539
     15 C           5.7104    2.0807    0.9543 C.ar    1  LIG1       -0.0600
     16 C           3.5724    1.1761    0.2746 C.ar    1  LIG1       -0.0156
     17 C           6.3596    0.9672    0.4330 C.ar    1  LIG1       -0.0463
     18 H           6.2850    2.8656    1.4273 H       1  LIG1        0.0618
     19 C           4.2223    0.0596   -0.2486 C.ar    1  LIG1       -0.0386
     20 C           5.6136   -0.0479   -0.1720 C.ar    1  LIG1        0.0253
     21 H           3.6540   -0.7243   -0.7319 H       1  LIG1        0.0636
     22 H           7.4354    0.8733    0.4886 H       1  LIG1        0.0630
     23 H           3.8205    3.0521    1.2883 H       1  LIG1        0.0624
     24 C           6.2775   -1.2081   -0.7223 C.1     1  LIG1       -0.0696
     25 C           6.8288   -2.1736   -1.1780 C.1     1  LIG1       -0.1139
     26 H           7.3187   -3.0284   -1.5828 H       1  LIG1        0.1232
@<TRIPOS>BOND
     1    13    12    1
     2    26    25    1
     3    12    11    3
     4    25    24    3
     5    11     7    1
     6    21    19    1
     7    24    20    1
     8     8     6    1
     9     6     7   ar
    10     6     3   ar
    11     7     4   ar
    12    19    20   ar
    13    19    16   ar
    14    20    17   ar
    15     9     3    1
    16     3     1   ar
    17     4    16    1
    18     4     2   ar
    19    16    14   ar
    20    17    22    1
    21    17    15   ar
    22     1     2   ar
    23     1    10    1
    24     2     5    1
    25    14    15   ar
    26    14    23    1
    27    15    18    1
