@<TRIPOS>MOLECULE
mol_data/opt/m06hf/geoms/mol2/4ae4ae-4ae4ae-.out
 50 53 0 0 0
SMALL
GASTEIGER

@<TRIPOS>ATOM
      1 C          -0.2486    0.2114    0.7347 C.ar    1  LIG1       -0.0611
      2 C           1.1420    0.1932    0.7173 C.ar    1  LIG1       -0.0529
      3 C          -0.9353    1.3251    0.2578 C.ar    1  LIG1       -0.0606
      4 C           1.8725    1.2771    0.2259 C.ar    1  LIG1       -0.0025
      5 H           1.6792   -0.6633    1.1048 H       1  LIG1        0.0624
      6 C          -0.2255    2.4121   -0.2352 C.ar    1  LIG1       -0.0457
      7 C           1.1734    2.3970   -0.2564 C.ar    1  LIG1        0.0324
      8 H          -0.7403    3.2827   -0.6180 H       1  LIG1        0.0630
      9 H          -2.0169    1.3466    0.2690 H       1  LIG1        0.0618
     10 H          -0.7925   -0.6384    1.1248 H       1  LIG1        0.0618
     11 C           1.8636    3.5394   -0.8135 C.1     1  LIG1       -0.0691
     12 C           2.4015    4.5028   -1.2903 C.1     1  LIG1       -0.1139
     13 H           2.8867    5.3495   -1.7176 H       1  LIG1        0.1232
     14 C           4.1403    2.2365    0.7637 C.ar    1  LIG1       -0.0533
     15 C           5.5253    2.1375    0.7687 C.ar    1  LIG1       -0.0523
     16 C           3.3639    1.2117    0.2166 C.ar    1  LIG1       -0.0155
     17 C           6.1777    1.0262    0.2294 C.ar    1  LIG1       -0.0024
     18 H           6.1194    2.9233    1.2179 H       1  LIG1        0.0624
     19 C           4.0028    0.0980   -0.3222 C.ar    1  LIG1       -0.0380
     20 C           5.3975   -0.0027   -0.3229 C.ar    1  LIG1        0.0329
     21 H           3.4221   -0.6953   -0.7746 H       1  LIG1        0.0636
     22 H           3.6566    3.1025    1.1962 H       1  LIG1        0.0624
     23 C           5.9961   -1.1669   -0.9381 C.1     1  LIG1       -0.0690
     24 C           6.4543   -2.1475   -1.4610 C.1     1  LIG1       -0.1139
     25 H           6.8670   -3.0121   -1.9271 H       1  LIG1        0.1232
     26 C           8.3512   -0.1477    0.7319 C.ar    1  LIG1       -0.0533
     27 C           9.7394   -0.1579    0.7682 C.ar    1  LIG1       -0.0523
     28 C           7.6687    0.9712    0.2473 C.ar    1  LIG1       -0.0155
     29 C          10.4877    0.9349    0.3239 C.ar    1  LIG1       -0.0024
     30 H          10.2616   -1.0177    1.1689 H       1  LIG1        0.0624
     31 C           8.4038    2.0667   -0.1986 C.ar    1  LIG1       -0.0380
     32 C           9.8016    2.0579   -0.1670 C.ar    1  LIG1        0.0329
     33 H           7.8959    2.9328   -0.6031 H       1  LIG1        0.0636
     34 H           7.7923   -1.0015    1.0914 H       1  LIG1        0.0624
     35 C          10.5031    3.2124   -0.6836 C.1     1  LIG1       -0.0690
     36 C          11.0527    4.1860   -1.1254 C.1     1  LIG1       -0.1139
     37 H          11.5497    5.0406   -1.5225 H       1  LIG1        0.1232
     38 C          12.7243    1.8946    0.9689 C.ar    1  LIG1       -0.0539
     39 C          14.1113    1.8065    1.0306 C.ar    1  LIG1       -0.0600
     40 C          11.9785    0.8733    0.3731 C.ar    1  LIG1       -0.0156
     41 C          14.7700    0.7034    0.4994 C.ar    1  LIG1       -0.0463
     42 H          14.6797    2.5992    1.4981 H       1  LIG1        0.0618
     43 C          12.6381   -0.2338   -0.1581 C.ar    1  LIG1       -0.0386
     44 C          14.0315   -0.3218   -0.0976 C.ar    1  LIG1        0.0253
     45 H          12.0758   -1.0245   -0.6375 H       1  LIG1        0.0636
     46 H          15.8479    0.6249    0.5412 H       1  LIG1        0.0630
     47 H          12.2132    2.7513    1.3881 H       1  LIG1        0.0624
     48 C          14.7071   -1.4708   -0.6573 C.1     1  LIG1       -0.0696
     49 C          15.2716   -2.4247   -1.1211 C.1     1  LIG1       -0.1139
     50 H          15.7706   -3.2705   -1.5333 H       1  LIG1        0.1232
@<TRIPOS>BOND
     1    25    24    1
     2    13    12    1
     3    50    49    1
     4    37    36    1
     5    24    23    3
     6    12    11    3
     7    36    35    3
     8    49    48    3
     9    23    20    1
    10    11     7    1
    11    21    19    1
    12    35    32    1
    13    48    44    1
    14    45    43    1
    15     8     6    1
    16    33    31    1
    17    20    19   ar
    18    20    17   ar
    19    19    16   ar
    20     7     6   ar
    21     7     4   ar
    22     6     3   ar
    23    31    32   ar
    24    31    28   ar
    25    32    29   ar
    26    43    44   ar
    27    43    40   ar
    28    44    41   ar
    29    16     4    1
    30    16    14   ar
    31     4     2   ar
    32    17    28    1
    33    17    15   ar
    34    28    26   ar
    35     3     9    1
    36     3     1   ar
    37    29    40    1
    38    29    27   ar
    39    40    38   ar
    40    41    46    1
    41    41    39   ar
    42     2     1   ar
    43     2     5    1
    44    26    27   ar
    45    26    34    1
    46     1    10    1
    47    14    15   ar
    48    14    22    1
    49    27    30    1
    50    15    18    1
    51    38    39   ar
    52    38    47    1
    53    39    42    1
