@<TRIPOS>MOLECULE
mol_data/opt/m06hf/geoms/mol2/4ae6hf13fe-12ei-.out
 49 52 0 0 0
SMALL
GASTEIGER

@<TRIPOS>ATOM
      1 C          -0.0555    1.0557   -1.4701 C.ar    1  LIG1       -0.0611
      2 C           1.3230    0.9112   -1.3412 C.ar    1  LIG1       -0.0528
      3 C          -0.7751    1.7460   -0.4980 C.ar    1  LIG1       -0.0606
      4 C           1.9997    1.4476   -0.2451 C.ar    1  LIG1        0.0009
      5 H           1.8927    0.3825   -2.0949 H       1  LIG1        0.0624
      6 C          -0.1165    2.2842    0.6011 C.ar    1  LIG1       -0.0457
      7 C           1.2679    2.1384    0.7364 C.ar    1  LIG1        0.0325
      8 H          -0.6615    2.8143    1.3700 H       1  LIG1        0.0630
      9 H          -1.8465    1.8632   -0.5936 H       1  LIG1        0.0618
     10 H          -0.5632    0.6329   -2.3267 H       1  LIG1        0.0618
     11 C           1.9318    2.6801    1.8990 C.1     1  LIG1       -0.0691
     12 C           2.4733    3.1290    2.8727 C.1     1  LIG1       -0.1139
     13 H           2.9666    3.5261    3.7292 H       1  LIG1        0.1232
     14 C           4.3557    2.3767   -0.2892 C.ar    1  LIG1        0.1249
     15 C           3.4770    1.2762   -0.1279 C.ar    1  LIG1        0.0263
     16 C           4.0392    0.0359    0.0873 C.ar    1  LIG1       -0.0070
     17 C           5.4278   -0.1275    0.1692 C.ar    1  LIG1        0.1450
     18 C           6.2058    1.0186    0.0233 C.ar    1  LIG1        0.1341
     19 N           5.6644    2.2270   -0.2141 N.ar    1  LIG1       -0.2266
     20 H           3.4154   -0.8415    0.2052 H       1  LIG1        0.0662
     21 N           3.8700    3.6463   -0.5123 N.pl3   1  LIG1       -0.3426
     22 H           4.5514    4.3064   -0.8532 H       1  LIG1        0.1437
     23 H           2.9385    3.7263   -0.8897 H       1  LIG1        0.1437
     24 O           5.8874   -1.3875    0.3471 O.3     1  LIG1       -0.5045
     25 H           6.8385   -1.4296    0.5474 H       1  LIG1        0.2922
     26 C           7.6807    1.0379    0.0672 C.ar    1  LIG1        0.1124
     27 C           8.6769    0.1494    0.4127 C.ar    1  LIG1        0.1598
     28 C           9.9351    0.7775    0.2254 C.ar    1  LIG1        0.0950
     29 C           9.6611    2.0668   -0.2218 C.ar    1  LIG1        0.1030
     30 N           8.3190    2.1895   -0.3037 N.ar    1  LIG1       -0.3465
     31 H           7.7945    3.0129   -0.5717 H       1  LIG1        0.1662
     32 O           8.5044   -1.1241    0.8745 O.3     1  LIG1       -0.5034
     33 H           9.3507   -1.5908    0.8523 H       1  LIG1        0.2923
     34 C          11.1715    0.0829    0.3924 C.1     1  LIG1       -0.0637
     35 C          12.1575   -0.5918    0.5363 C.1     1  LIG1       -0.1137
     36 H          13.0509   -1.1600    0.6531 H       1  LIG1        0.1232
     37 C          10.5327    3.1692   -0.5929 C.ar    1  LIG1        0.1677
     38 C          11.7670    3.5843   -0.1811 C.ar    1  LIG1        0.0747
     39 C          12.0662    4.7819   -0.9400 C.ar    1  LIG1        0.0034
     40 C          10.9831    4.9860   -1.7219 C.ar    1  LIG1        0.0968
     41 O          10.0526    4.0205   -1.5230 O.2     1  LIG1       -0.4599
     42 H          10.7379    5.7441   -2.4447 H       1  LIG1        0.1032
     43 C          12.5869    3.0270    0.8490 C.1     1  LIG1       -0.0656
     44 C          13.2874    2.5970    1.7255 C.1     1  LIG1       -0.1138
     45 H          13.8924    2.2037    2.5089 H       1  LIG1        0.1232
     46 C          13.3229    5.5999   -0.8258 C.3     1  LIG1       -0.0355
     47 H          13.2835    6.4524   -1.5024 H       1  LIG1        0.0279
     48 H          14.1900    4.9870   -1.0734 H       1  LIG1        0.0279
     49 H          13.4403    5.9602    0.1968 H       1  LIG1        0.0279
@<TRIPOS>BOND
     1    42    40    1
     2    10     1    1
     3     5     2    1
     4    40    41   ar
     5    40    39   ar
     6    41    37   ar
     7    47    46    1
     8     1     2   ar
     9     1     3   ar
    10     2     4   ar
    11    48    46    1
    12    39    46    1
    13    39    38   ar
    14    23    21    1
    15    22    21    1
    16    46    49    1
    17     9     3    1
    18    37    29    1
    19    37    38   ar
    20    31    30    1
    21    21    14    1
    22     3     6   ar
    23    30    29   ar
    24    30    26   ar
    25    14    19   ar
    26    14    15   ar
    27     4    15    1
    28     4     7   ar
    29    29    28   ar
    30    19    18   ar
    31    38    43    1
    32    15    16   ar
    33    18    26    1
    34    18    17   ar
    35    26    27   ar
    36    16    17   ar
    37    16    20    1
    38    17    24    1
    39    28    34    1
    40    28    27   ar
    41    24    25    1
    42    34    35    3
    43    27    32    1
    44    35    36    1
    45     6     7   ar
    46     6     8    1
    47     7    11    1
    48    43    44    3
    49    33    32    1
    50    44    45    1
    51    11    12    3
    52    12    13    1
