@<TRIPOS>MOLECULE
mol_data/opt/m06hf/geoms/mol2/4af.out
 13 13 0 0 0
SMALL
GASTEIGER

@<TRIPOS>ATOM
      1 C           0.0530    0.0203    0.0005 C.ar    1  LIG1       -0.0615
      2 C           1.4475    0.0110    0.0001 C.ar    1  LIG1       -0.0583
      3 C          -0.6204    1.2372    0.0004 C.ar    1  LIG1       -0.0583
      4 C           2.1638    1.2010   -0.0004 C.ar    1  LIG1       -0.0202
      5 H           1.9828   -0.9295    0.0002 H       1  LIG1        0.0619
      6 C           0.0861    2.4375   -0.0002 C.ar    1  LIG1       -0.0202
      7 C           1.4787    2.4151   -0.0006 C.ar    1  LIG1        0.1169
      8 H          -0.4415    3.3845   -0.0003 H       1  LIG1        0.0654
      9 H           3.2449    1.2171   -0.0008 H       1  LIG1        0.0654
     10 H          -1.7022    1.2604    0.0007 H       1  LIG1        0.0619
     11 H          -0.4998   -0.9090    0.0010 H       1  LIG1        0.0618
     12 O           2.2289    3.5529   -0.0011 O.3     1  LIG1       -0.5068
     13 H           1.6622    4.3308   -0.0012 H       1  LIG1        0.2921
@<TRIPOS>BOND
     1    13    12    1
     2    12     7    1
     3     9     4    1
     4     7     4   ar
     5     7     6   ar
     6     4     2   ar
     7     8     6    1
     8     6     3   ar
     9     2     5    1
    10     2     1   ar
    11     3     1   ar
    12     3    10    1
    13     1    11    1
