@<TRIPOS>MOLECULE
mol_data/opt/m06hf/geoms/mol2/4af13al-6if-6hl-.out
 53 56 0 0 0
SMALL
GASTEIGER

@<TRIPOS>ATOM
      1 C          -0.0021   -0.3361   -1.0626 C.ar    1  LIG1       -0.0609
      2 C           1.3187   -0.2168   -0.6507 C.ar    1  LIG1       -0.0491
      3 C          -0.7189    0.8034   -1.4148 C.ar    1  LIG1       -0.0583
      4 C           1.9571    1.0245   -0.5661 C.ar    1  LIG1        0.0398
      5 H           1.8821   -1.1052   -0.3982 H       1  LIG1        0.0625
      6 C          -0.1041    2.0482   -1.3546 C.ar    1  LIG1       -0.0195
      7 C           1.2178    2.1582   -0.9356 C.ar    1  LIG1        0.1259
      8 H          -0.6493    2.9433   -1.6335 H       1  LIG1        0.0654
      9 H          -1.7470    0.7283   -1.7415 H       1  LIG1        0.0619
     10 H          -0.4655   -1.3116   -1.1153 H       1  LIG1        0.0618
     11 O           1.8336    3.3835   -0.8773 O.3     1  LIG1       -0.5061
     12 H           1.2191    4.0821   -1.1251 H       1  LIG1        0.2922
     13 C           3.3510    1.0995   -0.0932 C.ar    1  LIG1        0.0540
     14 C           4.1174    0.1285    0.5399 C.ar    1  LIG1        0.0061
     15 C           5.3917    0.7006    0.7592 C.ar    1  LIG1        0.1459
     16 C           5.3760    2.0016    0.2753 C.ar    1  LIG1        0.0910
     17 N           4.1246    2.2042   -0.2359 N.ar    1  LIG1       -0.3511
     18 H           3.7980    3.0446   -0.6876 H       1  LIG1        0.1660
     19 H           3.7859   -0.8538    0.8296 H       1  LIG1        0.0676
     20 O           6.4843    0.1467    1.3480 O.3     1  LIG1       -0.4930
     21 C           6.2682   -1.0980    1.9853 C.3     1  LIG1        0.0789
     22 H           7.2096   -1.3651    2.4581 H       1  LIG1        0.0660
     23 H           5.4830   -1.0071    2.7398 H       1  LIG1        0.0660
     24 H           5.9927   -1.8611    1.2528 H       1  LIG1        0.0660
     25 C           6.2023    4.3923    0.4062 C.ar    1  LIG1        0.0484
     26 C           6.4448    3.0087    0.2795 C.ar    1  LIG1        0.0264
     27 C           7.7692    2.5817    0.1996 C.ar    1  LIG1       -0.0071
     28 C           8.7947    3.5149    0.2066 C.ar    1  LIG1        0.1435
     29 C           8.4690    4.8763    0.2660 C.ar    1  LIG1        0.1159
     30 N           7.2005    5.2691    0.3931 N.ar    1  LIG1       -0.2475
     31 H           8.0079    1.5280    0.1517 H       1  LIG1        0.0662
     32 C           4.8151    4.9818    0.5879 C.3     1  LIG1       -0.0217
     33 H           4.2009    4.3559    1.2356 H       1  LIG1        0.0293
     34 H           4.3078    5.0990   -0.3747 H       1  LIG1        0.0293
     35 H           4.9291    5.9719    1.0244 H       1  LIG1        0.0293
     36 O          10.0776    3.0660    0.1502 O.3     1  LIG1       -0.5046
     37 H          10.6748    3.7629    0.4531 H       1  LIG1        0.2922
     38 C           9.5297    7.0230    1.0945 C.ar    1  LIG1        0.1257
     39 C           9.5351    5.9167    0.2187 C.ar    1  LIG1        0.0469
     40 C          10.5739    5.8173   -0.7125 C.ar    1  LIG1       -0.0059
     41 C          11.5872    6.7687   -0.7195 C.ar    1  LIG1        0.1389
     42 C          11.5069    7.8018    0.2150 C.ar    1  LIG1        0.0713
     43 N          10.5125    7.9293    1.0783 N.ar    1  LIG1       -0.2364
     44 H          10.5607    4.9996   -1.4231 H       1  LIG1        0.0662
     45 H          12.2892    8.5516    0.2333 H       1  LIG1        0.0868
     46 N           8.5399    7.1973    2.0303 N.pl3   1  LIG1       -0.3426
     47 H           8.5595    8.1065    2.4678 H       1  LIG1        0.1437
     48 H           7.6340    6.8315    1.7670 H       1  LIG1        0.1437
     49 O          12.6555    6.7829   -1.5645 O.3     1  LIG1       -0.4936
     50 C          12.7252    5.7520   -2.5282 C.3     1  LIG1        0.0789
     51 H          13.6358    5.9311   -3.0936 H       1  LIG1        0.0660
     52 H          12.7783    4.7713   -2.0464 H       1  LIG1        0.0660
     53 H          11.8613    5.7877   -3.1978 H       1  LIG1        0.0660
@<TRIPOS>BOND
     1    53    50    1
     2    51    50    1
     3    50    52    1
     4    50    49    1
     5     9     3    1
     6     8     6    1
     7    49    41    1
     8    44    40    1
     9     3     6   ar
    10     3     1   ar
    11     6     7   ar
    12    12    11    1
    13    10     1    1
    14     1     2   ar
    15     7    11    1
    16     7     4   ar
    17    41    40   ar
    18    41    42   ar
    19    40    39   ar
    20    18    17    1
    21     2     4   ar
    22     2     5    1
    23     4    13    1
    24    34    32    1
    25    17    13   ar
    26    17    16   ar
    27    13    14   ar
    28    36    28    1
    29    36    37    1
    30    31    27    1
    31    27    28   ar
    32    27    26   ar
    33    28    29   ar
    34    42    45    1
    35    42    43   ar
    36    39    29    1
    37    39    38   ar
    38    29    30   ar
    39    16    26    1
    40    16    15   ar
    41    26    25   ar
    42    30    25   ar
    43    25    32    1
    44    14    15   ar
    45    14    19    1
    46    32    35    1
    47    32    33    1
    48    15    20    1
    49    43    38   ar
    50    38    46    1
    51    24    21    1
    52    20    21    1
    53    48    46    1
    54    21    22    1
    55    21    23    1
    56    46    47    1
