@<TRIPOS>MOLECULE
mol_data/opt/m06hf/geoms/mol2/4af12eh13la6fh6ee4ai-6ah6dd.out
 96 103 0 0 0
SMALL
GASTEIGER

@<TRIPOS>ATOM
      1 C           0.7139   -0.1229    3.4279 C.ar    1  LIG1       -0.0609
      2 C           1.8762   -0.1595    2.6683 C.ar    1  LIG1       -0.0475
      3 C           0.2392    1.1001    3.8918 C.ar    1  LIG1       -0.0583
      4 C           2.5843    1.0082    2.3691 C.ar    1  LIG1        0.0599
      5 H           2.2508   -1.1012    2.2898 H       1  LIG1        0.0626
      6 C           0.9264    2.2723    3.6000 C.ar    1  LIG1       -0.0195
      7 C           2.0973    2.2374    2.8449 C.ar    1  LIG1        0.1275
      8 H           0.5599    3.2260    3.9627 H       1  LIG1        0.0654
      9 H          -0.6673    1.1489    4.4804 H       1  LIG1        0.0619
     10 H           0.1809   -1.0377    3.6463 H       1  LIG1        0.0618
     11 O           2.7913    3.3737    2.5694 O.3     1  LIG1       -0.5061
     12 H           2.3400    4.1382    2.9426 H       1  LIG1        0.2922
     13 C           3.8145    0.9228    1.5718 C.ar    1  LIG1        0.1564
     14 C           4.7290   -0.0839    1.3836 C.ar    1  LIG1        0.0918
     15 C           5.7298    0.4264    0.4717 C.ar    1  LIG1        0.0888
     16 C           5.3268    1.6936    0.1753 C.ar    1  LIG1        0.1771
     17 O           4.1720    1.9825    0.8375 O.2     1  LIG1       -0.4499
     18 C           4.7705   -1.3846    1.9749 C.1     1  LIG1       -0.0640
     19 C           4.8415   -2.4906    2.4431 C.1     1  LIG1       -0.1137
     20 H           4.9055   -3.4619    2.8759 H       1  LIG1        0.1232
     21 N           6.8833   -0.2375    0.0940 N.pl3   1  LIG1       -0.3540
     22 H           6.7943   -1.2443    0.1188 H       1  LIG1        0.1425
     23 H           7.2977    0.1209   -0.7587 H       1  LIG1        0.1425
     24 C           5.8700    2.7849   -0.6030 C.ar    1  LIG1        0.1266
     25 C           6.7989    2.8393   -1.6238 C.ar    1  LIG1        0.1489
     26 C           6.9426    4.1969   -2.0130 C.ar    1  LIG1        0.0063
     27 C           6.0846    4.9340   -1.2133 C.ar    1  LIG1        0.0557
     28 N           5.4438    4.0626   -0.3784 N.ar    1  LIG1       -0.3486
     29 H           4.8205    4.3130    0.3803 H       1  LIG1        0.1661
     30 O           7.3991    1.7248   -2.1332 O.3     1  LIG1       -0.4929
     31 C           8.3094    1.9581   -3.1934 C.3     1  LIG1        0.0789
     32 H           8.6917    0.9850   -3.4892 H       1  LIG1        0.0660
     33 H           7.7960    2.4265   -4.0364 H       1  LIG1        0.0660
     34 H           9.1310    2.5940   -2.8552 H       1  LIG1        0.0660
     35 H           7.5556    4.5973   -2.8026 H       1  LIG1        0.0676
     36 C           4.5667    6.9103   -0.8747 C.ar    1  LIG1        0.2223
     37 C           5.8445    6.3844   -1.1633 C.ar    1  LIG1        0.0615
     38 C           6.8647    7.2929   -1.4027 C.ar    1  LIG1       -0.0247
     39 C           6.6207    8.6681   -1.3421 C.ar    1  LIG1        0.0519
     40 C           5.3226    9.0646   -0.9964 C.ar    1  LIG1        0.0981
     41 N           4.3336    8.1956   -0.7847 N.ar    1  LIG1       -0.2105
     42 H           7.8636    6.9275   -1.6096 H       1  LIG1        0.0645
     43 O           3.5034    6.0914   -0.6364 O.3     1  LIG1       -0.4919
     44 H           3.6028    5.2719   -1.1389 H       1  LIG1        0.2937
     45 N           7.6451    9.5984   -1.5493 N.pl3   1  LIG1       -0.3563
     46 H           8.4343    9.2323   -2.0641 H       1  LIG1        0.1424
     47 H           7.3317   10.4843   -1.9263 H       1  LIG1        0.1424
     48 C           3.9195   11.1046   -1.5390 C.ar    1  LIG1        0.1231
     49 C           4.9846   10.5099   -0.8422 C.ar    1  LIG1        0.0373
     50 C           5.7151   11.3274    0.0112 C.ar    1  LIG1       -0.0323
     51 C           5.3629   12.6685    0.1774 C.ar    1  LIG1        0.0513
     52 C           4.2444   13.1555   -0.5273 C.ar    1  LIG1        0.0877
     53 N           3.5722   12.3782   -1.3730 N.ar    1  LIG1       -0.2365
     54 H           6.5705   10.9296    0.5436 H       1  LIG1        0.0638
     55 C           3.1584   10.3531   -2.5162 C.1     1  LIG1       -0.0491
     56 C           2.5361    9.7485   -3.3455 C.1     1  LIG1       -0.1124
     57 H           1.9745    9.2059   -4.0706 H       1  LIG1        0.1232
     58 C           6.1925   13.4917    1.0227 C.1     1  LIG1       -0.0675
     59 C           6.9294   14.1292    1.7260 C.1     1  LIG1       -0.1138
     60 H           7.5784   14.7067    2.3428 H       1  LIG1        0.1232
     61 C           3.7806   15.2788    0.7716 C.ar    1  LIG1       -0.0519
     62 C           3.2866   16.5775    0.8018 C.ar    1  LIG1       -0.0531
     63 C           3.7509   14.5627   -0.4243 C.ar    1  LIG1        0.0019
     64 C           2.7680   17.1745   -0.3479 C.ar    1  LIG1       -0.0134
     65 H           3.3135   17.1449    1.7238 H       1  LIG1        0.0624
     66 C           3.1973   15.1503   -1.5635 C.ar    1  LIG1       -0.0490
     67 C           2.7103   16.4546   -1.5514 C.ar    1  LIG1       -0.0421
     68 H           3.1387   14.5583   -2.4687 H       1  LIG1        0.0627
     69 H           4.1728   14.8297    1.6728 H       1  LIG1        0.0624
     70 C           2.1134   17.0514   -2.8150 C.3     1  LIG1       -0.0391
     71 H           1.8269   16.2521   -3.4974 H       1  LIG1        0.0278
     72 H           2.8364   17.6928   -3.3222 H       1  LIG1        0.0278
     73 H           1.2327   17.6501   -2.5809 H       1  LIG1        0.0278
     74 C           2.8755   19.6089   -0.9922 C.ar    1  LIG1        0.0361
     75 C           2.2667   18.5795   -0.2626 C.ar    1  LIG1        0.0023
     76 C           1.2081   18.9096    0.5729 C.ar    1  LIG1       -0.0298
     77 C           0.7702   20.2353    0.6590 C.ar    1  LIG1        0.0516
     78 C           1.4371   21.1763   -0.1415 C.ar    1  LIG1        0.0943
     79 N           2.4635   20.8648   -0.9284 N.ar    1  LIG1       -0.2524
     80 H           0.7220   18.1367    1.1576 H       1  LIG1        0.0643
     81 H           3.7242   19.4013   -1.6315 H       1  LIG1        0.0836
     82 N          -0.3080   20.5963    1.4655 N.pl3   1  LIG1       -0.3563
     83 H          -0.5823   19.8911    2.1361 H       1  LIG1        0.1424
     84 H          -0.2423   21.5143    1.8869 H       1  LIG1        0.1424
     85 C           1.9468   23.6491   -0.0555 C.ar    1  LIG1        0.1493
     86 C           1.0156   22.6076   -0.1665 C.ar    1  LIG1        0.0392
     87 C          -0.3161   22.9715   -0.3599 C.ar    1  LIG1       -0.0309
     88 C          -0.6356   24.3232   -0.4429 C.ar    1  LIG1        0.0705
     89 C           0.3795   25.2788   -0.3339 C.ar    1  LIG1        0.0464
     90 N           1.6448   24.9426   -0.1383 N.ar    1  LIG1       -0.2427
     91 H          -1.0830   22.2118   -0.4460 H       1  LIG1        0.0638
     92 H           0.1506   26.3346   -0.4028 H       1  LIG1        0.0843
     93 N           4.4506   23.1557    0.4677 N.1     1  LIG1       -0.1893
     94 C           3.3511   23.3557    0.2139 C.1     1  LIG1        0.1198
     95 N          -3.0876   25.0890   -0.8009 N.1     1  LIG1       -0.1908
     96 C          -2.0037   24.7488   -0.6451 C.1     1  LIG1        0.1007
@<TRIPOS>BOND
     1    57    56    1
     2    33    31    1
     3    71    70    1
     4    32    31    1
     5    56    55    3
     6    72    70    1
     7    31    34    1
     8    31    30    1
     9    70    73    1
    10    70    67    1
    11    35    26    1
    12    55    48    1
    13    68    66    1
    14    30    25    1
    15    46    45    1
    16    26    25   ar
    17    26    27   ar
    18    47    45    1
    19    81    74    1
    20    25    24   ar
    21    42    38    1
    22    66    67   ar
    23    66    63   ar
    24    67    64   ar
    25    45    39    1
    26    48    53   ar
    27    48    49   ar
    28    38    39   ar
    29    38    37   ar
    30    53    52   ar
    31    39    40   ar
    32    27    37    1
    33    27    28   ar
    34    37    36   ar
    35    44    43    1
    36    40    49    1
    37    40    41   ar
    38    74    79   ar
    39    74    75   ar
    40    79    78   ar
    41    36    41   ar
    42    36    43    1
    43    49    50   ar
    44    95    96    3
    45    23    21    1
    46    96    88    1
    47    24    28   ar
    48    24    16    1
    49    52    63    1
    50    52    51   ar
    51    91    87    1
    52    88    87   ar
    53    88    89   ar
    54    63    61   ar
    55    92    89    1
    56    28    29    1
    57    87    86   ar
    58    64    75    1
    59    64    62   ar
    60    89    90   ar
    61    75    76   ar
    62    86    78    1
    63    86    85   ar
    64    78    77   ar
    65    90    85   ar
    66    85    94    1
    67    50    51   ar
    68    50    54    1
    69    21    22    1
    70    21    15    1
    71    16    15   ar
    72    16    17   ar
    73    51    58    1
    74    94    93    3
    75    15    14   ar
    76    76    77   ar
    77    76    80    1
    78    77    82    1
    79    61    62   ar
    80    61    69    1
    81    62    65    1
    82    17    13   ar
    83    58    59    3
    84    14    13   ar
    85    14    18    1
    86    82    84    1
    87    82    83    1
    88    13     4    1
    89    59    60    1
    90    18    19    3
    91     5     2    1
    92     4     2   ar
    93     4     7   ar
    94    19    20    1
    95    11     7    1
    96    11    12    1
    97     2     1   ar
    98     7     6   ar
    99     1    10    1
   100     1     3   ar
   101     6     3   ar
   102     6     8    1
   103     3     9    1
