@<TRIPOS>MOLECULE
mol_data/opt/m06hf/geoms/mol2/4af12ea-12ah-6fl.out
 45 48 0 0 0
SMALL
GASTEIGER

@<TRIPOS>ATOM
      1 C          -0.0132    0.1059    0.5848 C.ar    1  LIG1       -0.0609
      2 C           1.3681    0.0567    0.4528 C.ar    1  LIG1       -0.0475
      3 C          -0.6773    1.3116    0.3767 C.ar    1  LIG1       -0.0583
      4 C           2.1021    1.1937    0.1031 C.ar    1  LIG1        0.0599
      5 H           1.9006   -0.8688    0.6266 H       1  LIG1        0.0626
      6 C           0.0346    2.4530    0.0298 C.ar    1  LIG1       -0.0195
      7 C           1.4204    2.4068   -0.1134 C.ar    1  LIG1        0.1275
      8 H          -0.4807    3.3908   -0.1416 H       1  LIG1        0.0654
      9 H          -1.7526    1.3683    0.4822 H       1  LIG1        0.0619
     10 H          -0.5631   -0.7839    0.8581 H       1  LIG1        0.0618
     11 O           2.1287    3.5023   -0.4812 O.3     1  LIG1       -0.5061
     12 H           1.5938    4.3048   -0.4879 H       1  LIG1        0.2922
     13 C           3.5638    1.1068   -0.0224 C.ar    1  LIG1        0.1546
     14 C           4.4445    0.0774   -0.2637 C.ar    1  LIG1        0.0712
     15 C           5.7620    0.6617   -0.2762 C.ar    1  LIG1        0.0033
     16 C           5.5726    1.9853   -0.0416 C.ar    1  LIG1        0.1719
     17 O           4.2615    2.2406    0.1233 O.2     1  LIG1       -0.4504
     18 C           4.1385   -1.3004   -0.5057 C.1     1  LIG1       -0.0658
     19 C           3.9072   -2.4617   -0.7123 C.1     1  LIG1       -0.1138
     20 H           3.7033   -3.4894   -0.9049 H       1  LIG1        0.1232
     21 H           6.6883    0.1490   -0.4680 H       1  LIG1        0.0669
     22 C           6.3914    3.1888    0.0081 C.ar    1  LIG1        0.1725
     23 C           7.7077    3.5072    0.0840 C.ar    1  LIG1        0.0086
     24 C           7.7702    4.9498    0.0582 C.ar    1  LIG1        0.0718
     25 C           6.4788    5.3946   -0.0273 C.ar    1  LIG1        0.1615
     26 O           5.6595    4.3231   -0.0590 O.2     1  LIG1       -0.4497
     27 H           8.5364    2.8226    0.1579 H       1  LIG1        0.0675
     28 N           8.9266    5.7802    0.1133 N.pl3   1  LIG1       -0.3550
     29 H           9.4526    5.6136    0.9659 H       1  LIG1        0.1424
     30 H           9.5369    5.6045   -0.6795 H       1  LIG1        0.1424
     31 C           4.4303    6.8746   -0.1691 C.ar    1  LIG1        0.2235
     32 C           5.8304    6.7102   -0.0966 C.ar    1  LIG1        0.0838
     33 C           6.6356    7.8570   -0.0985 C.ar    1  LIG1       -0.0026
     34 C           6.0386    9.1036   -0.1731 C.ar    1  LIG1        0.1390
     35 C           4.6433    9.1565   -0.2421 C.ar    1  LIG1        0.0730
     36 N           3.8786    8.0796   -0.2394 N.ar    1  LIG1       -0.2172
     37 H           7.7074    7.7190   -0.0402 H       1  LIG1        0.0663
     38 H           4.1555   10.1224   -0.3013 H       1  LIG1        0.0868
     39 O           3.5334    5.8678   -0.1732 O.3     1  LIG1       -0.4919
     40 H           3.9387    4.9900   -0.1220 H       1  LIG1        0.2937
     41 O           6.6991   10.2918   -0.1851 O.3     1  LIG1       -0.4936
     42 C           8.1113   10.2396   -0.1451 C.3     1  LIG1        0.0789
     43 H           8.4499   11.2717   -0.1756 H       1  LIG1        0.0660
     44 H           8.4546    9.7635    0.7771 H       1  LIG1        0.0660
     45 H           8.5022    9.6945   -1.0083 H       1  LIG1        0.0660
@<TRIPOS>BOND
     1    45    42    1
     2    20    19    1
     3    19    18    3
     4    30    28    1
     5    18    14    1
     6    12    11    1
     7    11     7    1
     8    21    15    1
     9    38    35    1
    10    15    14   ar
    11    15    16   ar
    12    14    13   ar
    13    35    36   ar
    14    35    34   ar
    15    36    31   ar
    16    41    34    1
    17    41    42    1
    18    43    42    1
    19    39    31    1
    20    39    40    1
    21    34    33   ar
    22    31    32   ar
    23    42    44    1
    24     8     6    1
    25     7     6   ar
    26     7     4   ar
    27    33    32   ar
    28    33    37    1
    29    32    25    1
    30    26    25   ar
    31    26    22   ar
    32    16    22    1
    33    16    17   ar
    34    25    24   ar
    35    13     4    1
    36    13    17   ar
    37    22    23   ar
    38     6     3   ar
    39    24    23   ar
    40    24    28    1
    41    23    27    1
    42     4     2   ar
    43    28    29    1
    44     3     9    1
    45     3     1   ar
    46     2     1   ar
    47     2     5    1
    48     1    10    1
