@<TRIPOS>MOLECULE
mol_data/opt/m06hf/geoms/mol2/4af4af-4af-4af-.out
 46 49 0 0 0
SMALL
GASTEIGER

@<TRIPOS>ATOM
      1 C          -0.2382    0.0563    0.0542 C.ar    1  LIG1       -0.0610
      2 C           1.1532    0.0720    0.0385 C.ar    1  LIG1       -0.0505
      3 C          -0.9311    1.2578    0.1520 C.ar    1  LIG1       -0.0583
      4 C           1.8772    1.2627    0.1162 C.ar    1  LIG1        0.0237
      5 H           1.7035   -0.8593   -0.0167 H       1  LIG1        0.0625
      6 C          -0.2332    2.4576    0.2362 C.ar    1  LIG1       -0.0196
      7 C           1.1597    2.4633    0.2200 C.ar    1  LIG1        0.1245
      8 H          -0.7685    3.3981    0.3105 H       1  LIG1        0.0654
      9 H          -2.0131    1.2672    0.1674 H       1  LIG1        0.0619
     10 H          -0.7713   -0.8825   -0.0025 H       1  LIG1        0.0618
     11 O           1.8633    3.6287    0.2930 O.3     1  LIG1       -0.5062
     12 H           1.2602    4.3784    0.3229 H       1  LIG1        0.2922
     13 C           4.1411    2.0052    0.9528 C.ar    1  LIG1       -0.0531
     14 C           5.5242    1.9111    0.9145 C.ar    1  LIG1       -0.0500
     15 C           3.3695    1.2363    0.0737 C.ar    1  LIG1       -0.0109
     16 C           6.1736    1.0598    0.0162 C.ar    1  LIG1        0.0237
     17 H           6.1271    2.4867    1.6063 H       1  LIG1        0.0625
     18 C           4.0053    0.3988   -0.8400 C.ar    1  LIG1       -0.0117
     19 C           5.3946    0.3081   -0.8710 C.ar    1  LIG1        0.1251
     20 H           3.4407   -0.1765   -1.5622 H       1  LIG1        0.0660
     21 H           3.6543    2.6641    1.6573 H       1  LIG1        0.0624
     22 O           5.9419   -0.5191   -1.8018 O.3     1  LIG1       -0.5061
     23 H           6.8995   -0.3946   -1.8300 H       1  LIG1        0.2922
     24 C           8.4375    2.1310   -0.1338 C.ar    1  LIG1       -0.0531
     25 C           9.8224    2.0382   -0.1528 C.ar    1  LIG1       -0.0500
     26 C           7.6635    0.9707   -0.0193 C.ar    1  LIG1       -0.0109
     27 C          10.4691    0.8037   -0.0662 C.ar    1  LIG1        0.0237
     28 H          10.4273    2.9333   -0.2278 H       1  LIG1        0.0625
     29 C           8.2973   -0.2709    0.0605 C.ar    1  LIG1       -0.0117
     30 C           9.6889   -0.3559    0.0327 C.ar    1  LIG1        0.1251
     31 H           7.7282   -1.1861    0.1705 H       1  LIG1        0.0660
     32 H           7.9488    3.0928   -0.2149 H       1  LIG1        0.0624
     33 O          10.2352   -1.5956    0.0994 O.3     1  LIG1       -0.5061
     34 H          11.1917   -1.5450   -0.0284 H       1  LIG1        0.2922
     35 C          12.6771    1.2809   -1.1572 C.ar    1  LIG1       -0.0537
     36 C          14.0632    1.1861   -1.1799 C.ar    1  LIG1       -0.0577
     37 C          11.9596    0.7084   -0.1011 C.ar    1  LIG1       -0.0110
     38 C          14.7486    0.5178   -0.1688 C.ar    1  LIG1       -0.0201
     39 H          14.6200    1.6259   -1.9967 H       1  LIG1        0.0619
     40 C          12.6419    0.0429    0.9193 C.ar    1  LIG1       -0.0124
     41 C          14.0333   -0.0524    0.8812 C.ar    1  LIG1        0.1174
     42 H          12.1146   -0.3792    1.7664 H       1  LIG1        0.0660
     43 H          15.8297    0.4423   -0.1947 H       1  LIG1        0.0654
     44 H          12.1437    1.7807   -1.9548 H       1  LIG1        0.0624
     45 O          14.6350   -0.7127    1.9058 O.3     1  LIG1       -0.5067
     46 H          15.5922   -0.7073    1.8001 H       1  LIG1        0.2921
@<TRIPOS>BOND
     1    39    36    1
     2    44    35    1
     3    23    22    1
     4    22    19    1
     5    20    18    1
     6    36    35   ar
     7    36    38   ar
     8    35    37   ar
     9    19    18   ar
    10    19    16   ar
    11    18    15   ar
    12    28    25    1
    13    32    24    1
    14    43    38    1
    15    38    41   ar
    16    25    24   ar
    17    25    27   ar
    18    24    26   ar
    19    37    27    1
    20    37    40   ar
    21    27    30   ar
    22    34    33    1
    23    26    16    1
    24    26    29   ar
    25     5     2    1
    26    10     1    1
    27    16    14   ar
    28    30    29   ar
    29    30    33    1
    30     2     1   ar
    31     2     4   ar
    32     1     3   ar
    33    29    31    1
    34    15     4    1
    35    15    13   ar
    36     4     7   ar
    37     3     9    1
    38     3     6   ar
    39     7     6   ar
    40     7    11    1
    41     6     8    1
    42    11    12    1
    43    41    40   ar
    44    41    45    1
    45    14    13   ar
    46    14    17    1
    47    40    42    1
    48    13    21    1
    49    46    45    1
