@<TRIPOS>MOLECULE
mol_data/opt/m06hf/geoms/mol2/4af4af4af4af-.out
 46 49 0 0 0
SMALL
GASTEIGER

@<TRIPOS>ATOM
      1 C          -0.1854   -0.0100    0.4769 C.ar    1  LIG1       -0.0610
      2 C           1.2028    0.0848    0.4838 C.ar    1  LIG1       -0.0505
      3 C          -0.9386    1.0620    0.0112 C.ar    1  LIG1       -0.0583
      4 C           1.8647    1.2286    0.0329 C.ar    1  LIG1        0.0237
      5 H           1.7992   -0.7365    0.8610 H       1  LIG1        0.0625
      6 C          -0.3039    2.2164   -0.4340 C.ar    1  LIG1       -0.0196
      7 C           1.0865    2.3026   -0.4226 C.ar    1  LIG1        0.1245
      8 H          -0.8867    3.0567   -0.7944 H       1  LIG1        0.0654
      9 H          -2.0192    1.0076   -0.0032 H       1  LIG1        0.0619
     10 H          -0.6702   -0.9072    0.8360 H       1  LIG1        0.0618
     11 O           1.7283    3.4260   -0.8551 O.3     1  LIG1       -0.5062
     12 H           1.0986    4.0341   -1.2561 H       1  LIG1        0.2922
     13 C           4.0835    0.1640   -0.4103 C.ar    1  LIG1       -0.0531
     14 C           5.4727    0.1909   -0.3846 C.ar    1  LIG1       -0.0500
     15 C           3.3564    1.2739    0.0238 C.ar    1  LIG1       -0.0109
     16 C           6.1803    1.3064    0.0656 C.ar    1  LIG1        0.0237
     17 H           6.0332   -0.6615   -0.7477 H       1  LIG1        0.0625
     18 C           4.0479    2.4018    0.4657 C.ar    1  LIG1       -0.0117
     19 C           5.4384    2.4207    0.4835 C.ar    1  LIG1        0.1251
     20 H           3.4939    3.2730    0.7948 H       1  LIG1        0.0660
     21 H           3.5637   -0.7033   -0.7952 H       1  LIG1        0.0624
     22 O           6.1170    3.5211    0.9205 O.3     1  LIG1       -0.5061
     23 H           5.4930    4.1955    1.2086 H       1  LIG1        0.2922
     24 C           8.3417    0.1438    0.5417 C.ar    1  LIG1       -0.0531
     25 C           9.7312    0.1045    0.5271 C.ar    1  LIG1       -0.0500
     26 C           7.6717    1.2845    0.0965 C.ar    1  LIG1       -0.0109
     27 C          10.4923    1.1845    0.0797 C.ar    1  LIG1        0.0237
     28 H          10.2487   -0.7732    0.8941 H       1  LIG1        0.0625
     29 C           8.4185    2.3770   -0.3458 C.ar    1  LIG1       -0.0117
     30 C           9.8084    2.3304   -0.3507 C.ar    1  LIG1        0.1251
     31 H           7.9083    3.2701   -0.6864 H       1  LIG1        0.0660
     32 H           7.7782   -0.6972    0.9235 H       1  LIG1        0.0624
     33 O          10.5455    3.3906   -0.7890 O.3     1  LIG1       -0.5061
     34 H           9.9612    4.1045   -1.0648 H       1  LIG1        0.2922
     35 C          12.7737    2.1471    0.5561 C.ar    1  LIG1       -0.0537
     36 C          14.1555    2.0165    0.5681 C.ar    1  LIG1       -0.0577
     37 C          11.9830    1.1021    0.0637 C.ar    1  LIG1       -0.0110
     38 C          14.7687    0.8590    0.0930 C.ar    1  LIG1       -0.0201
     39 H          14.7683    2.8214    0.9529 H       1  LIG1        0.0619
     40 C          12.5917   -0.0548   -0.4179 C.ar    1  LIG1       -0.0124
     41 C          13.9797   -0.1744   -0.4016 C.ar    1  LIG1        0.1174
     42 H          12.0074   -0.8673   -0.8296 H       1  LIG1        0.0660
     43 H          15.8488    0.7632    0.1040 H       1  LIG1        0.0654
     44 H          12.3005    3.0480    0.9193 H       1  LIG1        0.0624
     45 O          14.5098   -1.3334   -0.8888 O.3     1  LIG1       -0.5067
     46 H          15.4714   -1.2987   -0.8596 H       1  LIG1        0.2921
@<TRIPOS>BOND
     1    12    11    1
     2    34    33    1
     3    45    46    1
     4    45    41    1
     5    11     7    1
     6    42    40    1
     7    21    13    1
     8     8     6    1
     9    33    30    1
    10    17    14    1
    11    31    29    1
    12     6     7   ar
    13     6     3   ar
    14     7     4   ar
    15    40    41   ar
    16    40    37   ar
    17    13    14   ar
    18    13    15   ar
    19    41    38   ar
    20    14    16   ar
    21    30    29   ar
    22    30    27   ar
    23    29    26   ar
    24     9     3    1
    25     3     1   ar
    26    15     4    1
    27    15    18   ar
    28     4     2   ar
    29    37    27    1
    30    37    35   ar
    31    16    26    1
    32    16    19   ar
    33    27    25   ar
    34    38    43    1
    35    38    36   ar
    36    26    24   ar
    37    18    19   ar
    38    18    20    1
    39     1     2   ar
    40     1    10    1
    41    19    22    1
    42     2     5    1
    43    25    24   ar
    44    25    28    1
    45    24    32    1
    46    35    36   ar
    47    35    44    1
    48    36    39    1
    49    22    23    1
