@<TRIPOS>MOLECULE
mol_data/opt/m06hf/geoms/mol2/4af4af-4af4af.out
 46 49 0 0 0
SMALL
GASTEIGER

@<TRIPOS>ATOM
      1 C          -0.2095    0.0145    0.5497 C.ar    1  LIG1       -0.0610
      2 C           1.1804    0.0712    0.5119 C.ar    1  LIG1       -0.0505
      3 C          -0.9461    1.1341    0.1794 C.ar    1  LIG1       -0.0583
      4 C           1.8586    1.2228    0.1089 C.ar    1  LIG1        0.0237
      5 H           1.7653   -0.7878    0.8170 H       1  LIG1        0.0625
      6 C          -0.2941    2.2956   -0.2206 C.ar    1  LIG1       -0.0196
      7 C           1.0977    2.3434   -0.2547 C.ar    1  LIG1        0.1245
      8 H          -0.8645    3.1708   -0.5119 H       1  LIG1        0.0654
      9 H          -2.0278    1.1115    0.2034 H       1  LIG1        0.0619
     10 H          -0.7075   -0.8897    0.8708 H       1  LIG1        0.0618
     11 O           1.7585    3.4680   -0.6508 O.3     1  LIG1       -0.5062
     12 H           1.1287    4.1444   -0.9201 H       1  LIG1        0.2922
     13 C           4.0891    2.3081    0.5752 C.ar    1  LIG1       -0.0531
     14 C           5.4750    2.2553    0.5653 C.ar    1  LIG1       -0.0500
     15 C           3.3509    1.2352    0.0626 C.ar    1  LIG1       -0.0109
     16 C           6.1595    1.1501    0.0523 C.ar    1  LIG1        0.0237
     17 H           6.0514    3.0705    0.9861 H       1  LIG1        0.0625
     18 C           4.0212    0.1361   -0.4695 C.ar    1  LIG1       -0.0117
     19 C           5.4128    0.0913   -0.4778 C.ar    1  LIG1        0.1251
     20 H           3.4815   -0.6905   -0.9131 H       1  LIG1        0.0660
     21 H           3.5748    3.1674    0.9804 H       1  LIG1        0.0624
     22 O           5.9967   -1.0049   -1.0326 O.3     1  LIG1       -0.5061
     23 H           6.9478   -0.8594   -1.1201 H       1  LIG1        0.2922
     24 C           8.3311   -0.0028    0.5818 C.ar    1  LIG1       -0.0531
     25 C           9.7225   -0.0284    0.5675 C.ar    1  LIG1       -0.0500
     26 C           7.6509    1.0955    0.0471 C.ar    1  LIG1       -0.0109
     27 C          10.4747    1.0179    0.0340 C.ar    1  LIG1        0.0237
     28 H          10.2478   -0.8683    1.0049 H       1  LIG1        0.0625
     29 C           8.3895    2.1530   -0.4863 C.ar    1  LIG1       -0.0117
     30 C           9.7809    2.1213   -0.4869 C.ar    1  LIG1        0.1251
     31 H           7.8678    2.9998   -0.9199 H       1  LIG1        0.0660
     32 H           7.7733   -0.8120    1.0373 H       1  LIG1        0.0624
     33 O          10.5088    3.1486   -1.0054 O.3     1  LIG1       -0.5061
     34 H           9.9291    3.7887   -1.4318 H       1  LIG1        0.2922
     35 C          12.5802   -0.2651   -0.3506 C.ar    1  LIG1       -0.0537
     36 C          13.9692   -0.3706   -0.3233 C.ar    1  LIG1       -0.0577
     37 C          11.9652    0.9334    0.0142 C.ar    1  LIG1       -0.0110
     38 C          14.7539    0.7076    0.0606 C.ar    1  LIG1       -0.0201
     39 H          14.4428   -1.3000   -0.6112 H       1  LIG1        0.0619
     40 C          12.7511    2.0241    0.3949 C.ar    1  LIG1       -0.0124
     41 C          14.1367    1.9069    0.4146 C.ar    1  LIG1        0.1174
     42 H          12.2767    2.9579    0.6713 H       1  LIG1        0.0660
     43 H          15.8335    0.6520    0.0871 H       1  LIG1        0.0654
     44 H          11.9752   -1.1015   -0.6754 H       1  LIG1        0.0624
     45 O          14.9465    2.9392    0.7833 O.3     1  LIG1       -0.5067
     46 H          14.4243    3.7311    0.9471 H       1  LIG1        0.2921
@<TRIPOS>BOND
     1    34    33    1
     2    23    22    1
     3    22    19    1
     4    33    30    1
     5    12    11    1
     6    31    29    1
     7    20    18    1
     8    44    35    1
     9    11     7    1
    10    39    36    1
    11     8     6    1
    12    30    29   ar
    13    30    27   ar
    14    29    26   ar
    15    19    18   ar
    16    19    16   ar
    17    18    15   ar
    18    35    36   ar
    19    35    37   ar
    20    36    38   ar
    21     7     6   ar
    22     7     4   ar
    23     6     3   ar
    24    37    27    1
    25    37    40   ar
    26    27    25   ar
    27    26    16    1
    28    26    24   ar
    29    16    14   ar
    30    38    43    1
    31    38    41   ar
    32    15     4    1
    33    15    13   ar
    34     4     2   ar
    35     3     9    1
    36     3     1   ar
    37    40    41   ar
    38    40    42    1
    39    41    45    1
    40     2     1   ar
    41     2     5    1
    42     1    10    1
    43    14    13   ar
    44    14    17    1
    45    25    24   ar
    46    25    28    1
    47    13    21    1
    48    24    32    1
    49    45    46    1
