@<TRIPOS>MOLECULE
mol_data/opt/m06hf/geoms/mol2/4af4af4af.out
 35 37 0 0 0
SMALL
GASTEIGER

@<TRIPOS>ATOM
      1 C          -0.0739    0.3448    1.0831 C.ar    1  LIG1       -0.0610
      2 C           1.3140    0.3926    0.9954 C.ar    1  LIG1       -0.0505
      3 C          -0.8359    1.1957    0.2904 C.ar    1  LIG1       -0.0583
      4 C           1.9660    1.2717    0.1290 C.ar    1  LIG1        0.0237
      5 H           1.9185   -0.2506    1.6228 H       1  LIG1        0.0625
      6 C          -0.2102    2.0860   -0.5757 C.ar    1  LIG1       -0.0196
      7 C           1.1797    2.1262   -0.6570 C.ar    1  LIG1        0.1245
      8 H          -0.7999    2.7532   -1.1945 H       1  LIG1        0.0654
      9 H          -1.9165    1.1755    0.3456 H       1  LIG1        0.0619
     10 H          -0.5513   -0.3434    1.7670 H       1  LIG1        0.0618
     11 O           1.8153    2.9889   -1.5013 O.3     1  LIG1       -0.5062
     12 H           1.1757    3.4255   -2.0733 H       1  LIG1        0.2922
     13 C           4.1541    0.0651    0.0112 C.ar    1  LIG1       -0.0531
     14 C           5.5438    0.0675   -0.0281 C.ar    1  LIG1       -0.0500
     15 C           3.4561    1.2731    0.0439 C.ar    1  LIG1       -0.0109
     16 C           6.2770    1.2546   -0.0404 C.ar    1  LIG1        0.0237
     17 H           6.0841   -0.8708   -0.0425 H       1  LIG1        0.0625
     18 C           4.1742    2.4695    0.0366 C.ar    1  LIG1       -0.0117
     19 C           5.5643    2.4615   -0.0022 C.ar    1  LIG1        0.1251
     20 H           3.6408    3.4125    0.0538 H       1  LIG1        0.0660
     21 H           3.6115   -0.8711   -0.0017 H       1  LIG1        0.0624
     22 O           6.2734    3.6274   -0.0039 O.3     1  LIG1       -0.5061
     23 H           5.6789    4.3733   -0.1363 H       1  LIG1        0.2922
     24 C           8.3840    0.3449   -1.0229 C.ar    1  LIG1       -0.0537
     25 C           9.7742    0.2730   -1.0792 C.ar    1  LIG1       -0.0577
     26 C           7.7668    1.2162   -0.1240 C.ar    1  LIG1       -0.0110
     27 C          10.5585    1.0622   -0.2498 C.ar    1  LIG1       -0.0201
     28 H          10.2493   -0.3997   -1.7815 H       1  LIG1        0.0619
     29 C           8.5523    2.0172    0.7087 C.ar    1  LIG1       -0.0124
     30 C           9.9388    1.9370    0.6419 C.ar    1  LIG1        0.1174
     31 H           8.0754    2.7020    1.3998 H       1  LIG1        0.0660
     32 H          11.6391    1.0266   -0.2763 H       1  LIG1        0.0654
     33 H           7.7769   -0.2547   -1.6883 H       1  LIG1        0.0624
     34 O          10.7493    2.6929    1.4359 O.3     1  LIG1       -0.5067
     35 H          10.2235    3.2799    1.9893 H       1  LIG1        0.2921
@<TRIPOS>BOND
     1    12    11    1
     2    28    25    1
     3    33    24    1
     4    11     7    1
     5     8     6    1
     6    25    24   ar
     7    25    27   ar
     8    24    26   ar
     9     7     6   ar
    10     7     4   ar
    11     6     3   ar
    12    32    27    1
    13    27    30   ar
    14    23    22    1
    15    26    16    1
    16    26    29   ar
    17    17    14    1
    18    16    14   ar
    19    16    19   ar
    20    14    13   ar
    21    22    19    1
    22    19    18   ar
    23    21    13    1
    24    13    15   ar
    25    18    15   ar
    26    18    20    1
    27    15     4    1
    28     4     2   ar
    29     3     9    1
    30     3     1   ar
    31    30    29   ar
    32    30    34    1
    33    29    31    1
    34     2     1   ar
    35     2     5    1
    36     1    10    1
    37    34    35    1
