@<TRIPOS>MOLECULE
mol_data/opt/m06hf/geoms/mol2/4af4af-4af-4af.out
 46 49 0 0 0
SMALL
GASTEIGER

@<TRIPOS>ATOM
      1 C          -0.2226   -0.0158   -0.1263 C.ar    1  LIG1       -0.0610
      2 C           1.1684    0.0248   -0.1063 C.ar    1  LIG1       -0.0505
      3 C          -0.9397    1.1666    0.0175 C.ar    1  LIG1       -0.0583
      4 C           1.8672    1.2225    0.0522 C.ar    1  LIG1        0.0237
      5 H           1.7375   -0.8923   -0.1967 H       1  LIG1        0.0625
      6 C          -0.2672    2.3728    0.1804 C.ar    1  LIG1       -0.0196
      7 C           1.1253    2.4037    0.1998 C.ar    1  LIG1        0.1245
      8 H          -0.8218    3.2983    0.2906 H       1  LIG1        0.0654
      9 H          -2.0218    1.1567    0.0059 H       1  LIG1        0.0619
     10 H          -0.7367   -0.9594   -0.2455 H       1  LIG1        0.0618
     11 O           1.8058    3.5750    0.3525 O.3     1  LIG1       -0.5062
     12 H           1.1893    4.3133    0.3945 H       1  LIG1        0.2922
     13 C           4.0869    1.9483    1.0072 C.ar    1  LIG1       -0.0531
     14 C           5.4720    1.8801    1.0112 C.ar    1  LIG1       -0.0500
     15 C           3.3603    1.2242    0.0549 C.ar    1  LIG1       -0.0109
     16 C           6.1666    1.0986    0.0835 C.ar    1  LIG1        0.0237
     17 H           6.0404    2.4195    1.7590 H       1  LIG1        0.0625
     18 C           4.0415    0.4578   -0.8879 C.ar    1  LIG1       -0.0117
     19 C           5.4327    0.3924   -0.8763 C.ar    1  LIG1        0.1251
     20 H           3.5118   -0.0793   -1.6640 H       1  LIG1        0.0660
     21 H           3.5632    2.5519    1.7346 H       1  LIG1        0.0624
     22 O           6.0271   -0.3647   -1.8372 O.3     1  LIG1       -0.5061
     23 H           6.9841   -0.2375   -1.8103 H       1  LIG1        0.2922
     24 C           8.4129    2.2154    0.0678 C.ar    1  LIG1       -0.0531
     25 C           9.7995    2.1484    0.0947 C.ar    1  LIG1       -0.0500
     26 C           7.6586    1.0370    0.0956 C.ar    1  LIG1       -0.0109
     27 C          10.4657    0.9225    0.1436 C.ar    1  LIG1        0.0237
     28 H          10.3891    3.0571    0.0900 H       1  LIG1        0.0625
     29 C           8.3128   -0.1962    0.1360 C.ar    1  LIG1       -0.0117
     30 C           9.7059   -0.2547    0.1553 C.ar    1  LIG1        0.1251
     31 H           7.7576   -1.1254    0.1798 H       1  LIG1        0.0660
     32 H           7.9080    3.1708    0.0188 H       1  LIG1        0.0624
     33 O          10.2770   -1.4845    0.1817 O.3     1  LIG1       -0.5061
     34 H          11.2377   -1.4030    0.1109 H       1  LIG1        0.2922
     35 C          12.6112    0.1770    1.2119 C.ar    1  LIG1       -0.0537
     36 C          14.0052    0.1141    1.2247 C.ar    1  LIG1       -0.0577
     37 C          11.9578    0.8482    0.1745 C.ar    1  LIG1       -0.0110
     38 C          14.7509    0.7148    0.2216 C.ar    1  LIG1       -0.0201
     39 H          14.5111   -0.3994    2.0316 H       1  LIG1        0.0619
     40 C          12.7057    1.4518   -0.8400 C.ar    1  LIG1       -0.0124
     41 C          14.0957    1.3884   -0.8107 C.ar    1  LIG1        0.1174
     42 H          12.1944    1.9557   -1.6531 H       1  LIG1        0.0660
     43 H          15.8317    0.6811    0.2118 H       1  LIG1        0.0654
     44 H          12.0316   -0.2634    2.0141 H       1  LIG1        0.0624
     45 O          14.8727    1.9582   -1.7690 O.3     1  LIG1       -0.5067
     46 H          14.3322    2.3912   -2.4378 H       1  LIG1        0.2921
@<TRIPOS>BOND
     1    46    45    1
     2    22    23    1
     3    22    19    1
     4    45    41    1
     5    20    18    1
     6    42    40    1
     7    18    19   ar
     8    18    15   ar
     9    19    16   ar
    10    40    41   ar
    11    40    37   ar
    12    41    38   ar
    13    10     1    1
    14     5     2    1
    15     1     2   ar
    16     1     3   ar
    17     2     4   ar
    18     9     3    1
    19     3     6   ar
    20    32    24    1
    21     4    15    1
    22     4     7   ar
    23    15    13   ar
    24    24    25   ar
    25    24    26   ar
    26    16    26    1
    27    16    14   ar
    28    28    25    1
    29    25    27   ar
    30    26    29   ar
    31    34    33    1
    32    29    30   ar
    33    29    31    1
    34    27    30   ar
    35    27    37    1
    36    30    33    1
    37    37    35   ar
    38     6     7   ar
    39     6     8    1
    40     7    11    1
    41    43    38    1
    42    38    36   ar
    43    11    12    1
    44    13    14   ar
    45    13    21    1
    46    14    17    1
    47    35    36   ar
    48    35    44    1
    49    36    39    1
