@<TRIPOS>MOLECULE
mol_data/opt/m06hf/geoms/mol2/4af4af-4af.out
 35 37 0 0 0
SMALL
GASTEIGER

@<TRIPOS>ATOM
      1 C          -0.1366    0.0289    0.2402 C.ar    1  LIG1       -0.0610
      2 C           1.2546    0.0547    0.2581 C.ar    1  LIG1       -0.0505
      3 C          -0.8365    1.2112    0.0277 C.ar    1  LIG1       -0.0583
      4 C           1.9714    1.2371    0.0656 C.ar    1  LIG1        0.0237
      5 H           1.8092   -0.8571    0.4429 H       1  LIG1        0.0625
      6 C          -0.1459    2.4034   -0.1613 C.ar    1  LIG1       -0.0196
      7 C           1.2469    2.4194   -0.1422 C.ar    1  LIG1        0.1245
      8 H          -0.6864    3.3285   -0.3282 H       1  LIG1        0.0654
      9 H          -1.9185    1.2133    0.0111 H       1  LIG1        0.0619
     10 H          -0.6642   -0.9015    0.3974 H       1  LIG1        0.0618
     11 O           1.9432    3.5760   -0.3318 O.3     1  LIG1       -0.5062
     12 H           1.3393    4.2964   -0.5397 H       1  LIG1        0.2922
     13 C           4.2027    2.1908    0.7603 C.ar    1  LIG1       -0.0531
     14 C           5.5874    2.1146    0.7809 C.ar    1  LIG1       -0.0500
     15 C           3.4647    1.2198    0.0729 C.ar    1  LIG1       -0.0109
     16 C           6.2700    1.0813    0.1338 C.ar    1  LIG1        0.0237
     17 H           6.1644    2.8518    1.3260 H       1  LIG1        0.0625
     18 C           4.1350    0.1942   -0.5906 C.ar    1  LIG1       -0.0117
     19 C           5.5254    0.1204   -0.5597 C.ar    1  LIG1        0.1251
     20 H           3.5971   -0.5481   -1.1655 H       1  LIG1        0.0660
     21 H           3.6894    2.9924    1.2714 H       1  LIG1        0.0624
     22 O           6.1115   -0.9009   -1.2395 O.3     1  LIG1       -0.5061
     23 H           7.0706   -0.7835   -1.2409 H       1  LIG1        0.2922
     24 C           8.4119   -0.1400    0.6188 C.ar    1  LIG1       -0.0537
     25 C           9.8064   -0.1921    0.6215 C.ar    1  LIG1       -0.0577
     26 C           7.7619    1.0052    0.1499 C.ar    1  LIG1       -0.0110
     27 C          10.5570    0.8814    0.1651 C.ar    1  LIG1       -0.0201
     28 H          10.3094   -1.0759    0.9915 H       1  LIG1        0.0619
     29 C           8.5154    2.0872   -0.3139 C.ar    1  LIG1       -0.0124
     30 C           9.9055    2.0241   -0.3015 C.ar    1  LIG1        0.1174
     31 H           8.0063    2.9661   -0.6945 H       1  LIG1        0.0660
     32 H          11.6381    0.8636    0.1580 H       1  LIG1        0.0654
     33 H           7.8277   -0.9672    1.0030 H       1  LIG1        0.0624
     34 O          10.6857    3.0465   -0.7438 O.3     1  LIG1       -0.5067
     35 H          10.1440    3.7738   -1.0673 H       1  LIG1        0.2921
@<TRIPOS>BOND
     1    23    22    1
     2    22    19    1
     3    20    18    1
     4    35    34    1
     5    34    30    1
     6    31    29    1
     7    18    19   ar
     8    18    15   ar
     9    19    16   ar
    10    12    11    1
    11    11     7    1
    12     8     6    1
    13    29    30   ar
    14    29    26   ar
    15    30    27   ar
    16     6     7   ar
    17     6     3   ar
    18     7     4   ar
    19     9     3    1
    20     3     1   ar
    21     4    15    1
    22     4     2   ar
    23    15    13   ar
    24    16    26    1
    25    16    14   ar
    26    26    24   ar
    27    32    27    1
    28    27    25   ar
    29     1     2   ar
    30     1    10    1
    31     2     5    1
    32    24    25   ar
    33    24    33    1
    34    25    28    1
    35    13    14   ar
    36    13    21    1
    37    14    17    1
