@<TRIPOS>MOLECULE
mol_data/opt/m06hf/geoms/mol2/4af4af4af4af.out
 46 49 0 0 0
SMALL
GASTEIGER

@<TRIPOS>ATOM
      1 C          -0.1586    0.6849    1.4292 C.ar    1  LIG1       -0.0610
      2 C           1.2271    0.7431    1.3200 C.ar    1  LIG1       -0.0505
      3 C          -0.9443    1.1694    0.3894 C.ar    1  LIG1       -0.0583
      4 C           1.8541    1.2759    0.1922 C.ar    1  LIG1        0.0237
      5 H           1.8493    0.3860    2.1314 H       1  LIG1        0.0625
      6 C          -0.3443    1.7120   -0.7418 C.ar    1  LIG1       -0.0196
      7 C           1.0439    1.7688   -0.8407 C.ar    1  LIG1        0.1245
      8 H          -0.9528    2.0926   -1.5547 H       1  LIG1        0.0654
      9 H          -2.0239    1.1326    0.4551 H       1  LIG1        0.0619
     10 H          -0.6165    0.2716    2.3172 H       1  LIG1        0.0618
     11 O           1.6551    2.2974   -1.9395 O.3     1  LIG1       -0.5062
     12 H           0.9996    2.5259   -2.6068 H       1  LIG1        0.2922
     13 C           4.0793    0.1807    0.5114 C.ar    1  LIG1       -0.0531
     14 C           5.4684    0.2134    0.4743 C.ar    1  LIG1       -0.0500
     15 C           3.3439    1.2950    0.1043 C.ar    1  LIG1       -0.0109
     16 C           6.1663    1.3381    0.0325 C.ar    1  LIG1        0.0237
     17 H           6.0349   -0.6486    0.8044 H       1  LIG1        0.0625
     18 C           4.0260    2.4284   -0.3391 C.ar    1  LIG1       -0.0117
     19 C           5.4160    2.4517   -0.3727 C.ar    1  LIG1        0.1251
     20 H           3.4653    3.2955   -0.6678 H       1  LIG1        0.0660
     21 H           3.5653   -0.7130    0.8396 H       1  LIG1        0.0624
     22 O           6.0874    3.5598   -0.8014 O.3     1  LIG1       -0.5061
     23 H           5.4677    4.1934   -1.1781 H       1  LIG1        0.2922
     24 C           8.3258    0.1991   -0.5115 C.ar    1  LIG1       -0.0531
     25 C           9.7153    0.1747   -0.5365 C.ar    1  LIG1       -0.0500
     26 C           7.6568    1.3248   -0.0282 C.ar    1  LIG1       -0.0109
     27 C          10.4800    1.2554   -0.0955 C.ar    1  LIG1        0.0237
     28 H          10.2307   -0.7059   -0.8992 H       1  LIG1        0.0625
     29 C           8.4059    2.4118    0.4229 C.ar    1  LIG1       -0.0117
     30 C           9.7957    2.3786    0.3910 C.ar    1  LIG1        0.1251
     31 H           7.8975    3.2947    0.7917 H       1  LIG1        0.0660
     32 H           7.7603   -0.6449   -0.8838 H       1  LIG1        0.0624
     33 O          10.5311    3.4410    0.8311 O.3     1  LIG1       -0.5061
     34 H           9.9533    4.1918    1.0042 H       1  LIG1        0.2922
     35 C          12.5826    0.6839   -1.3175 C.ar    1  LIG1       -0.0537
     36 C          13.9714    0.6021   -1.3868 C.ar    1  LIG1       -0.0577
     37 C          11.9698    1.2068   -0.1769 C.ar    1  LIG1       -0.0110
     38 C          14.7613    1.0390   -0.3323 C.ar    1  LIG1       -0.0201
     39 H          14.4420    0.2012   -2.2751 H       1  LIG1        0.0619
     40 C          12.7612    1.6517    0.8845 C.ar    1  LIG1       -0.0124
     41 C          14.1468    1.5671    0.8022 C.ar    1  LIG1        0.1174
     42 H          12.2900    2.0699    1.7658 H       1  LIG1        0.0660
     43 H          15.8411    0.9886   -0.3634 H       1  LIG1        0.0654
     44 H          11.9744    0.3675   -2.1549 H       1  LIG1        0.0624
     45 O          14.9578    1.9867    1.8155 O.3     1  LIG1       -0.5067
     46 H          14.4284    2.3328    2.5411 H       1  LIG1        0.2921
@<TRIPOS>BOND
     1    12    11    1
     2    39    36    1
     3    44    35    1
     4    11     7    1
     5     8     6    1
     6    36    35   ar
     7    36    38   ar
     8    35    37   ar
     9    23    22    1
    10    28    25    1
    11    32    24    1
    12     7     6   ar
    13     7     4   ar
    14    22    19    1
    15     6     3   ar
    16    20    18    1
    17    25    24   ar
    18    25    27   ar
    19    24    26   ar
    20    19    18   ar
    21    19    16   ar
    22    43    38    1
    23    18    15   ar
    24    38    41   ar
    25    37    27    1
    26    37    40   ar
    27    27    30   ar
    28    26    16    1
    29    26    29   ar
    30    16    14   ar
    31    15     4    1
    32    15    13   ar
    33     4     2   ar
    34     3     9    1
    35     3     1   ar
    36    30    29   ar
    37    30    33    1
    38    29    31    1
    39    14    13   ar
    40    14    17    1
    41    13    21    1
    42    41    40   ar
    43    41    45    1
    44    33    34    1
    45    40    42    1
    46     2     1   ar
    47     2     5    1
    48     1    10    1
    49    45    46    1
