@<TRIPOS>MOLECULE
mol_data/opt/m06hf/geoms/mol2/4af4af4af-4af-.out
 46 49 0 0 0
SMALL
GASTEIGER

@<TRIPOS>ATOM
      1 C          -0.1724    0.2493    0.9711 C.ar    1  LIG1       -0.0610
      2 C           1.2159    0.3213    0.9166 C.ar    1  LIG1       -0.0505
      3 C          -0.9304    1.1480    0.2290 C.ar    1  LIG1       -0.0583
      4 C           1.8736    1.2706    0.1317 C.ar    1  LIG1        0.0237
      5 H           1.8161   -0.3602    1.5067 H       1  LIG1        0.0625
      6 C          -0.2999    2.1096   -0.5530 C.ar    1  LIG1       -0.0196
      7 C           1.0908    2.1739   -0.6013 C.ar    1  LIG1        0.1245
      8 H          -0.8862    2.8151   -1.1315 H       1  LIG1        0.0654
      9 H          -2.0113    1.1086    0.2580 H       1  LIG1        0.0619
     10 H          -0.6538   -0.4948    1.5905 H       1  LIG1        0.0618
     11 O           1.7289    3.1105   -1.3608 O.3     1  LIG1       -0.5062
     12 H           1.0943    3.5799   -1.9122 H       1  LIG1        0.2922
     13 C           4.0697    0.0863   -0.0138 C.ar    1  LIG1       -0.0531
     14 C           5.4593    0.0948   -0.0167 C.ar    1  LIG1       -0.0500
     15 C           3.3651    1.2876    0.0764 C.ar    1  LIG1       -0.0109
     16 C           6.1896    1.2815    0.0596 C.ar    1  LIG1        0.0237
     17 H           6.0014   -0.8415   -0.0680 H       1  LIG1        0.0625
     18 C           4.0793    2.4836    0.1522 C.ar    1  LIG1       -0.0117
     19 C           5.4702    2.4822    0.1441 C.ar    1  LIG1        0.1251
     20 H           3.5432    3.4236    0.2105 H       1  LIG1        0.0660
     21 H           3.5321   -0.8492   -0.0961 H       1  LIG1        0.0624
     22 O           6.1719    3.6493    0.2143 O.3     1  LIG1       -0.5061
     23 H           5.5666    4.3973    0.1826 H       1  LIG1        0.2922
     24 C           8.4431    2.0372    0.9086 C.ar    1  LIG1       -0.0531
     25 C           9.8259    1.9293    0.9009 C.ar    1  LIG1       -0.0500
     26 C           7.6813    1.2477    0.0388 C.ar    1  LIG1       -0.0109
     27 C          10.4842    1.0439    0.0434 C.ar    1  LIG1        0.0237
     28 H          10.4203    2.5200    1.5872 H       1  LIG1        0.0625
     29 C           8.3277    0.3786   -0.8378 C.ar    1  LIG1       -0.0117
     30 C           9.7161    0.2735   -0.8372 C.ar    1  LIG1        0.1251
     31 H           7.7724   -0.2123   -1.5545 H       1  LIG1        0.0660
     32 H           7.9484    2.7208    1.5833 H       1  LIG1        0.0624
     33 O          10.2745   -0.5880   -1.7297 O.3     1  LIG1       -0.5061
     34 H          11.2351   -0.4881   -1.7253 H       1  LIG1        0.2922
     35 C          12.7671    2.0755   -0.1116 C.ar    1  LIG1       -0.0537
     36 C          14.1518    1.9613   -0.1007 C.ar    1  LIG1       -0.0577
     37 C          11.9737    0.9329    0.0446 C.ar    1  LIG1       -0.0110
     38 C          14.7635    0.7197    0.0542 C.ar    1  LIG1       -0.0201
     39 H          14.7665    2.8433   -0.2234 H       1  LIG1        0.0619
     40 C          12.5824   -0.3139    0.2047 C.ar    1  LIG1       -0.0124
     41 C          13.9735   -0.4168    0.2065 C.ar    1  LIG1        0.1174
     42 H          11.9939   -1.2098    0.3607 H       1  LIG1        0.0660
     43 H          15.8442    0.6354    0.0570 H       1  LIG1        0.0654
     44 H          12.2922    3.0370   -0.2539 H       1  LIG1        0.0624
     45 O          14.5015   -1.6601    0.3681 O.3     1  LIG1       -0.5067
     46 H          15.4637   -1.6234    0.3730 H       1  LIG1        0.2921
@<TRIPOS>BOND
     1    12    11    1
     2    33    34    1
     3    33    30    1
     4    31    29    1
     5    11     7    1
     6     8     6    1
     7    29    30   ar
     8    29    26   ar
     9    30    27   ar
    10     7     6   ar
    11     7     4   ar
    12     6     3   ar
    13    44    35    1
    14    39    36    1
    15    35    36   ar
    16    35    37   ar
    17    36    38   ar
    18    21    13    1
    19    17    14    1
    20    14    13   ar
    21    14    16   ar
    22    13    15   ar
    23    26    16    1
    24    26    24   ar
    25    27    37    1
    26    27    25   ar
    27    37    40   ar
    28    38    43    1
    29    38    41   ar
    30    16    19   ar
    31    15     4    1
    32    15    18   ar
    33     4     2   ar
    34    19    18   ar
    35    19    22    1
    36    18    20    1
    37    23    22    1
    38    40    41   ar
    39    40    42    1
    40    41    45    1
    41     3     9    1
    42     3     1   ar
    43    45    46    1
    44    25    24   ar
    45    25    28    1
    46    24    32    1
    47     2     1   ar
    48     2     5    1
    49     1    10    1
