@<TRIPOS>MOLECULE
mol_data/opt/m06hf/geoms/mol2/4af4af4af-4af.out
 46 49 0 0 0
SMALL
GASTEIGER

@<TRIPOS>ATOM
      1 C          -0.1983    0.0597   -0.5563 C.ar    1  LIG1       -0.0610
      2 C           1.1911    0.1336   -0.5385 C.ar    1  LIG1       -0.0505
      3 C          -0.9429    1.1251   -0.0625 C.ar    1  LIG1       -0.0583
      4 C           1.8620    1.2501   -0.0360 C.ar    1  LIG1        0.0237
      5 H           1.7818   -0.6826   -0.9353 H       1  LIG1        0.0625
      6 C          -0.2985    2.2527    0.4346 C.ar    1  LIG1       -0.0196
      7 C           1.0929    2.3184    0.4467 C.ar    1  LIG1        0.1245
      8 H          -0.8746    3.0882    0.8168 H       1  LIG1        0.0654
      9 H          -2.0244    1.0871   -0.0672 H       1  LIG1        0.0619
     10 H          -0.6903   -0.8163   -0.9553 H       1  LIG1        0.0618
     11 O           1.7447    3.4157    0.9287 O.3     1  LIG1       -0.5062
     12 H           1.1198    4.0123    1.3537 H       1  LIG1        0.2922
     13 C           4.0547    0.1413    0.4239 C.ar    1  LIG1       -0.0531
     14 C           5.4448    0.1473    0.4257 C.ar    1  LIG1       -0.0500
     15 C           3.3540    1.2717    0.0010 C.ar    1  LIG1       -0.0109
     16 C           6.1754    1.2630    0.0163 C.ar    1  LIG1        0.0237
     17 H           5.9863   -0.7220    0.7779 H       1  LIG1        0.0625
     18 C           4.0694    2.3983   -0.4055 C.ar    1  LIG1       -0.0117
     19 C           5.4602    2.3965   -0.3957 C.ar    1  LIG1        0.1251
     20 H           3.5349    3.2831   -0.7305 H       1  LIG1        0.0660
     21 H           3.5139   -0.7265    0.7777 H       1  LIG1        0.0624
     22 O           6.1674    3.4898   -0.8006 O.3     1  LIG1       -0.5061
     23 H           5.5633    4.1905   -1.0676 H       1  LIG1        0.2922
     24 C           8.4182    2.2885    0.5462 C.ar    1  LIG1       -0.0531
     25 C           9.8013    2.1954    0.5865 C.ar    1  LIG1       -0.0500
     26 C           7.6675    1.2290    0.0240 C.ar    1  LIG1       -0.0109
     27 C          10.4709    1.0627    0.1151 C.ar    1  LIG1        0.0237
     28 H          10.3865    3.0009    1.0134 H       1  LIG1        0.0625
     29 C           8.3232    0.1018   -0.4656 C.ar    1  LIG1       -0.0117
     30 C           9.7126    0.0164   -0.4232 C.ar    1  LIG1        0.1251
     31 H           7.7747   -0.7166   -0.9133 H       1  LIG1        0.0660
     32 H           7.9147    3.1689    0.9190 H       1  LIG1        0.0624
     33 O          10.2830   -1.1069   -0.9367 O.3     1  LIG1       -0.5061
     34 H          11.2416   -0.9945   -0.9834 H       1  LIG1        0.2922
     35 C          12.5914   -0.1374    0.7347 C.ar    1  LIG1       -0.0537
     36 C          13.9847   -0.2051    0.7616 C.ar    1  LIG1       -0.0577
     37 C          11.9607    0.9704    0.1592 C.ar    1  LIG1       -0.0110
     38 C          14.7559    0.8185    0.2312 C.ar    1  LIG1       -0.0201
     39 H          14.4707   -1.0611    1.2113 H       1  LIG1        0.0619
     40 C          12.7357    2.0015   -0.3789 C.ar    1  LIG1       -0.0124
     41 C          14.1244    1.9267   -0.3357 C.ar    1  LIG1        0.1174
     42 H          12.2450    2.8498   -0.8439 H       1  LIG1        0.0660
     43 H          15.8367    0.7884    0.2431 H       1  LIG1        0.0654
     44 H          11.9932   -0.9217    1.1824 H       1  LIG1        0.0624
     45 O          14.9227    2.9029   -0.8452 O.3     1  LIG1       -0.5067
     46 H          14.3936    3.6213   -1.2070 H       1  LIG1        0.2921
@<TRIPOS>BOND
     1    46    45    1
     2    23    22    1
     3    34    33    1
     4    10     1    1
     5    33    30    1
     6     5     2    1
     7    31    29    1
     8    45    41    1
     9    42    40    1
    10    22    19    1
    11    20    18    1
    12     1     2   ar
    13     1     3   ar
    14     2     4   ar
    15    29    30   ar
    16    29    26   ar
    17    30    27   ar
    18    18    19   ar
    19    18    15   ar
    20    19    16   ar
    21    40    41   ar
    22    40    37   ar
    23    41    38   ar
    24     9     3    1
    25     3     6   ar
    26     4    15    1
    27     4     7   ar
    28    15    13   ar
    29    16    26    1
    30    16    14   ar
    31    26    24   ar
    32    27    37    1
    33    27    25   ar
    34    37    35   ar
    35    38    43    1
    36    38    36   ar
    37    13    14   ar
    38    13    21    1
    39    14    17    1
    40     6     7   ar
    41     6     8    1
    42     7    11    1
    43    24    25   ar
    44    24    32    1
    45    25    28    1
    46    35    36   ar
    47    35    44    1
    48    36    39    1
    49    11    12    1
