@<TRIPOS>MOLECULE
mol_data/opt/m06hf/geoms/mol2/4af4af.out
 24 25 0 0 0
SMALL
GASTEIGER

@<TRIPOS>ATOM
      1 C          -0.0091    0.1104    0.5746 C.ar    1  LIG1       -0.0610
      2 C           1.3809    0.1334    0.5087 C.ar    1  LIG1       -0.0505
      3 C          -0.7288    1.2236    0.1559 C.ar    1  LIG1       -0.0583
      4 C           2.0759    1.2449    0.0298 C.ar    1  LIG1        0.0237
      5 H           1.9534   -0.7199    0.8505 H       1  LIG1        0.0625
      6 C          -0.0599    2.3465   -0.3194 C.ar    1  LIG1       -0.0196
      7 C           1.3316    2.3604   -0.3807 C.ar    1  LIG1        0.1245
      8 H          -0.6166    3.2179   -0.6458 H       1  LIG1        0.0654
      9 H          -1.8101    1.2271    0.2017 H       1  LIG1        0.0619
     10 H          -0.5200   -0.7634    0.9549 H       1  LIG1        0.0618
     11 O           2.0097    3.4498   -0.8429 O.3     1  LIG1       -0.5062
     12 H           1.3942    4.1048   -1.1882 H       1  LIG1        0.2922
     13 C           4.2165    0.0897   -0.5440 C.ar    1  LIG1       -0.0537
     14 C           5.6088    0.0453   -0.5771 C.ar    1  LIG1       -0.0577
     15 C           3.5670    1.2210   -0.0478 C.ar    1  LIG1       -0.0110
     16 C           6.3634    1.1185   -0.1245 C.ar    1  LIG1       -0.0201
     17 H           6.1090   -0.8315   -0.9671 H       1  LIG1        0.0619
     18 C           4.3225    2.3059    0.4037 C.ar    1  LIG1       -0.0124
     19 C           5.7112    2.2506    0.3631 C.ar    1  LIG1        0.1174
     20 H           3.8200    3.1898    0.7779 H       1  LIG1        0.0660
     21 H           7.4447    1.1090   -0.1436 H       1  LIG1        0.0654
     22 H           3.6332   -0.7399   -0.9212 H       1  LIG1        0.0624
     23 O           6.4903    3.2832    0.7939 O.3     1  LIG1       -0.5067
     24 H           5.9393    4.0127    1.0953 H       1  LIG1        0.2921
@<TRIPOS>BOND
     1    12    11    1
     2    17    14    1
     3    22    13    1
     4    11     7    1
     5     8     6    1
     6    14    13   ar
     7    14    16   ar
     8    13    15   ar
     9     7     6   ar
    10     7     4   ar
    11     6     3   ar
    12    21    16    1
    13    16    19   ar
    14    15     4    1
    15    15    18   ar
    16     4     2   ar
    17     3     9    1
    18     3     1   ar
    19    19    18   ar
    20    19    23    1
    21    18    20    1
    22     2     1   ar
    23     2     5    1
    24     1    10    1
    25    23    24    1
