@<TRIPOS>MOLECULE
mol_data/opt/m06hf/geoms/mol2/4af4af-.out
 24 25 0 0 0
SMALL
GASTEIGER

@<TRIPOS>ATOM
      1 C          -0.0357    0.1300    0.4969 C.ar    1  LIG1       -0.0610
      2 C           1.3559    0.1366    0.4983 C.ar    1  LIG1       -0.0505
      3 C          -0.7213    1.2630    0.0740 C.ar    1  LIG1       -0.0583
      4 C           2.0867    1.2509    0.0823 C.ar    1  LIG1        0.0237
      5 H           1.9007   -0.7327    0.8454 H       1  LIG1        0.0625
      6 C          -0.0165    2.3882   -0.3403 C.ar    1  LIG1       -0.0196
      7 C           1.3766    2.3849   -0.3374 C.ar    1  LIG1        0.1245
      8 H          -0.5465    3.2745   -0.6716 H       1  LIG1        0.0654
      9 H          -1.8032    1.2790    0.0671 H       1  LIG1        0.0619
     10 H          -0.5749   -0.7461    0.8294 H       1  LIG1        0.0618
     11 O           2.0876    3.4732   -0.7474 O.3     1  LIG1       -0.5062
     12 H           1.4925    4.1485   -1.0886 H       1  LIG1        0.2922
     13 C           4.3365    2.2785    0.5810 C.ar    1  LIG1       -0.0537
     14 C           5.7212    2.1860    0.6076 C.ar    1  LIG1       -0.0577
     15 C           3.5800    1.2118    0.0801 C.ar    1  LIG1       -0.0110
     16 C           6.3719    1.0456    0.1408 C.ar    1  LIG1       -0.0201
     17 H           6.3077    3.0073    0.9984 H       1  LIG1        0.0619
     18 C           4.2265    0.0730   -0.3955 C.ar    1  LIG1       -0.0124
     19 C           5.6170   -0.0089   -0.3632 C.ar    1  LIG1        0.1174
     20 H           3.6702   -0.7546   -0.8161 H       1  LIG1        0.0660
     21 H           7.4538    0.9809    0.1630 H       1  LIG1        0.0654
     22 H           3.8357    3.1664    0.9392 H       1  LIG1        0.0624
     23 O           6.1829   -1.1516   -0.8475 O.3     1  LIG1       -0.5067
     24 H           7.1423   -1.1004   -0.7880 H       1  LIG1        0.2921
@<TRIPOS>BOND
     1    12    11    1
     2    23    24    1
     3    23    19    1
     4    20    18    1
     5    11     7    1
     6     8     6    1
     7    18    19   ar
     8    18    15   ar
     9    19    16   ar
    10     6     7   ar
    11     6     3   ar
    12     7     4   ar
    13     9     3    1
    14     3     1   ar
    15    15     4    1
    16    15    13   ar
    17     4     2   ar
    18    16    21    1
    19    16    14   ar
    20     1     2   ar
    21     1    10    1
    22     2     5    1
    23    13    14   ar
    24    13    22    1
    25    14    17    1
