@<TRIPOS>MOLECULE
mol_data/opt/m06hf/geoms/mol2/4af4af-4af4af-.out
 46 49 0 0 0
SMALL
GASTEIGER

@<TRIPOS>ATOM
      1 C          -0.2134    0.0434    0.5074 C.ar    1  LIG1       -0.0610
      2 C           1.1772    0.0920    0.4941 C.ar    1  LIG1       -0.0505
      3 C          -0.9371    1.1671    0.1246 C.ar    1  LIG1       -0.0583
      4 C           1.8695    1.2400    0.1052 C.ar    1  LIG1        0.0237
      5 H           1.7518   -0.7705    0.8086 H       1  LIG1        0.0625
      6 C          -0.2710    2.3253   -0.2613 C.ar    1  LIG1       -0.0196
      7 C           1.1216    2.3651   -0.2703 C.ar    1  LIG1        0.1245
      8 H          -0.8311    3.2035   -0.5634 H       1  LIG1        0.0654
      9 H          -2.0191    1.1496    0.1274 H       1  LIG1        0.0619
     10 H          -0.7225   -0.8584    0.8181 H       1  LIG1        0.0618
     11 O           1.7955    3.4864   -0.6533 O.3     1  LIG1       -0.5062
     12 H           1.1737    4.1716   -0.9192 H       1  LIG1        0.2922
     13 C           4.1008    2.3090    0.6071 C.ar    1  LIG1       -0.0531
     14 C           5.4864    2.2477    0.6133 C.ar    1  LIG1       -0.0500
     15 C           3.3622    1.2422    0.0822 C.ar    1  LIG1       -0.0109
     16 C           6.1709    1.1403    0.1050 C.ar    1  LIG1        0.0237
     17 H           6.0622    3.0588    1.0423 H       1  LIG1        0.0625
     18 C           4.0327    0.1401   -0.4433 C.ar    1  LIG1       -0.0117
     19 C           5.4241    0.0863   -0.4347 C.ar    1  LIG1        0.1251
     20 H           3.4936   -0.6819   -0.8954 H       1  LIG1        0.0660
     21 H           3.5867    3.1706    1.0082 H       1  LIG1        0.0624
     22 O           6.0068   -1.0139   -0.9827 O.3     1  LIG1       -0.5061
     23 H           6.9585   -0.8723   -1.0692 H       1  LIG1        0.2922
     24 C           8.3377   -0.0240    0.6375 C.ar    1  LIG1       -0.0531
     25 C           9.7295   -0.0518    0.6295 C.ar    1  LIG1       -0.0500
     26 C           7.6623    1.0814    0.1116 C.ar    1  LIG1       -0.0109
     27 C          10.4841    1.0014    0.1149 C.ar    1  LIG1        0.0237
     28 H          10.2527   -0.8989    1.0559 H       1  LIG1        0.0625
     29 C           8.4047    2.1444   -0.4060 C.ar    1  LIG1       -0.0117
     30 C           9.7960    2.1117   -0.3983 C.ar    1  LIG1        0.1251
     31 H           7.8859    2.9953   -0.8352 H       1  LIG1        0.0660
     32 H           7.7768   -0.8380    1.0800 H       1  LIG1        0.0624
     33 O          10.5303    3.1402   -0.9020 O.3     1  LIG1       -0.5061
     34 H           9.9552    3.7914   -1.3178 H       1  LIG1        0.2922
     35 C          12.7626    1.9950    0.5394 C.ar    1  LIG1       -0.0537
     36 C          14.1449    1.8674    0.5575 C.ar    1  LIG1       -0.0577
     37 C          11.9753    0.9234    0.1025 C.ar    1  LIG1       -0.0110
     38 C          14.7598    0.6879    0.1425 C.ar    1  LIG1       -0.0201
     39 H          14.7562    2.6919    0.9003 H       1  LIG1        0.0619
     40 C          12.5849   -0.2560   -0.3189 C.ar    1  LIG1       -0.0124
     41 C          13.9733   -0.3717   -0.2983 C.ar    1  LIG1        0.1174
     42 H          12.0025   -1.0902   -0.6876 H       1  LIG1        0.0660
     43 H          15.8399    0.5953    0.1579 H       1  LIG1        0.0654
     44 H          12.2890    2.9124    0.8581 H       1  LIG1        0.0624
     45 O          14.5033   -1.5519   -0.7275 O.3     1  LIG1       -0.5067
     46 H          15.4651   -1.5180   -0.7003 H       1  LIG1        0.2921
@<TRIPOS>BOND
     1    34    33    1
     2    23    22    1
     3    22    19    1
     4    12    11    1
     5    33    30    1
     6    20    18    1
     7    31    29    1
     8    45    46    1
     9    45    41    1
    10    42    40    1
    11    11     7    1
    12     8     6    1
    13    18    19   ar
    14    18    15   ar
    15    19    16   ar
    16    29    30   ar
    17    29    26   ar
    18    30    27   ar
    19    40    41   ar
    20    40    37   ar
    21    41    38   ar
    22     7     6   ar
    23     7     4   ar
    24     6     3   ar
    25    15     4    1
    26    15    13   ar
    27    37    27    1
    28    37    35   ar
    29    16    26    1
    30    16    14   ar
    31     4     2   ar
    32    26    24   ar
    33    27    25   ar
    34     3     9    1
    35     3     1   ar
    36    38    43    1
    37    38    36   ar
    38     2     1   ar
    39     2     5    1
    40     1    10    1
    41    35    36   ar
    42    35    44    1
    43    36    39    1
    44    13    14   ar
    45    13    21    1
    46    14    17    1
    47    25    24   ar
    48    25    28    1
    49    24    32    1
