@<TRIPOS>MOLECULE
mol_data/opt/m06hf/geoms/mol2/4af6el-6he12hi12ae13ea6da-6ld-.out
 96 103 0 0 0
SMALL
GASTEIGER

@<TRIPOS>ATOM
      1 C          -0.3395    0.1933   -0.8021 C.ar    1  LIG1       -0.0610
      2 C           1.0522    0.2211   -0.8234 C.ar    1  LIG1       -0.0505
      3 C          -1.0142    0.7492    0.2799 C.ar    1  LIG1       -0.0583
      4 C           1.7765    0.7980    0.2179 C.ar    1  LIG1        0.0263
      5 H           1.5957   -0.1879   -1.6665 H       1  LIG1        0.0625
      6 C          -0.3070    1.3160    1.3359 C.ar    1  LIG1       -0.0196
      7 C           1.0852    1.3378    1.3095 C.ar    1  LIG1        0.1246
      8 H          -0.8320    1.7312    2.1886 H       1  LIG1        0.0654
      9 H          -2.0958    0.7398    0.3109 H       1  LIG1        0.0619
     10 H          -0.8876   -0.2485   -1.6226 H       1  LIG1        0.0618
     11 O           1.8263    1.8418    2.3283 O.3     1  LIG1       -0.5062
     12 H           1.2793    2.3550    2.9318 H       1  LIG1        0.2922
     13 C           3.9894    2.0177    0.1460 C.ar    1  LIG1        0.1219
     14 C           3.2652    0.8266    0.1799 C.ar    1  LIG1        0.0229
     15 C           3.9943   -0.3631    0.1557 C.ar    1  LIG1       -0.0073
     16 C           5.3804   -0.3354    0.0936 C.ar    1  LIG1        0.1467
     17 C           6.0383    0.9222    0.0281 C.ar    1  LIG1        0.1172
     18 N           5.3216    2.0389    0.0692 N.ar    1  LIG1       -0.2340
     19 H           3.4547   -1.2988    0.2113 H       1  LIG1        0.0662
     20 C           3.3209    3.3037    0.1711 C.1     1  LIG1       -0.0492
     21 C           2.7649    4.3684    0.1861 C.1     1  LIG1       -0.1124
     22 H           2.2712    5.3126    0.2059 H       1  LIG1        0.1232
     23 O           6.1421   -1.4505    0.1102 O.3     1  LIG1       -0.4929
     24 C           5.5133   -2.6959    0.3632 C.3     1  LIG1        0.0789
     25 H           6.3188   -3.4217    0.4220 H       1  LIG1        0.0660
     26 H           4.9702   -2.6616    1.3101 H       1  LIG1        0.0660
     27 H           4.8349   -2.9600   -0.4516 H       1  LIG1        0.0660
     28 C           8.2017    2.2150    0.4377 C.ar    1  LIG1        0.1264
     29 C           7.5167    1.0566   -0.0622 C.ar    1  LIG1        0.0447
     30 C           8.3046    0.0903   -0.6655 C.ar    1  LIG1       -0.0316
     31 C           9.6970    0.2121   -0.7378 C.ar    1  LIG1        0.0545
     32 C          10.2723    1.3425   -0.1310 C.ar    1  LIG1        0.1253
     33 N           9.5386    2.2955    0.4175 N.ar    1  LIG1       -0.2274
     34 H           7.8421   -0.7788   -1.1084 H       1  LIG1        0.0638
     35 N           7.5763    3.2678    0.9831 N.pl3   1  LIG1       -0.3426
     36 H           8.1650    4.0381    1.2699 H       1  LIG1        0.1437
     37 H           6.5817    3.3723    0.8487 H       1  LIG1        0.1437
     38 C          10.4572   -0.7649   -1.4675 C.1     1  LIG1       -0.0674
     39 C          11.0650   -1.6021   -2.0850 C.1     1  LIG1       -0.1138
     40 H          11.5995   -2.3272   -2.6534 H       1  LIG1        0.1232
     41 C          11.7253    1.5844   -0.0815 C.ar    1  LIG1        0.1760
     42 C          12.8364    0.8124    0.1414 C.ar    1  LIG1        0.0762
     43 C          13.9565    1.7185    0.2017 C.ar    1  LIG1        0.0197
     44 C          13.4203    2.9542    0.0029 C.ar    1  LIG1        0.1754
     45 O          12.0933    2.8913   -0.1553 O.2     1  LIG1       -0.4480
     46 N          12.9484   -0.5508    0.4153 N.pl3   1  LIG1       -0.3548
     47 H          12.1402   -1.0856    0.1218 H       1  LIG1        0.1424
     48 H          13.7886   -0.9522    0.0155 H       1  LIG1        0.1424
     49 C          15.3803    1.3402    0.5054 C.3     1  LIG1       -0.0342
     50 H          15.9220    2.2024    0.8950 H       1  LIG1        0.0279
     51 H          15.8957    0.9759   -0.3864 H       1  LIG1        0.0279
     52 H          15.3886    0.5530    1.2613 H       1  LIG1        0.0279
     53 C          14.0193    4.2777   -0.0808 C.ar    1  LIG1        0.1722
     54 C          15.2547    4.7254   -0.4275 C.ar    1  LIG1        0.0034
     55 C          15.1982    6.1627   -0.3425 C.ar    1  LIG1        0.0726
     56 C          13.9249    6.4616    0.0616 C.ar    1  LIG1        0.1684
     57 O          13.2172    5.3249    0.2186 O.2     1  LIG1       -0.4489
     58 H          16.0940    4.1376   -0.7558 H       1  LIG1        0.0669
     59 C          16.2310    7.0705   -0.7360 C.1     1  LIG1       -0.0658
     60 C          17.1047    7.8085   -1.1026 C.1     1  LIG1       -0.1138
     61 H          17.8664    8.4785   -1.4268 H       1  LIG1        0.1232
     62 C          13.1689    7.6871    0.2647 C.ar    1  LIG1        0.0993
     63 C          13.5328    8.9726    0.6513 C.ar    1  LIG1        0.0536
     64 C          12.3473    9.7533    0.6358 C.ar    1  LIG1       -0.0202
     65 C          11.3074    8.9255    0.2633 C.ar    1  LIG1        0.0509
     66 N          11.8275    7.6788    0.0514 N.ar    1  LIG1       -0.3507
     67 H          11.3144    6.8455   -0.2105 H       1  LIG1        0.1660
     68 C          14.8240    9.4088    1.0873 C.1     1  LIG1       -0.0674
     69 C          15.8935    9.7844    1.4853 C.1     1  LIG1       -0.1138
     70 H          16.8472   10.0979    1.8408 H       1  LIG1        0.1232
     71 H          12.2747   10.7908    0.9149 H       1  LIG1        0.0651
     72 C           8.8194    8.4095    0.3222 C.ar    1  LIG1        0.1498
     73 C           9.8927    9.2754    0.0709 C.ar    1  LIG1        0.0342
     74 C           9.5452   10.5509   -0.3900 C.ar    1  LIG1       -0.0479
     75 C           8.2139   10.8837   -0.5733 C.ar    1  LIG1       -0.0348
     76 C           7.2324    9.9240   -0.3000 C.ar    1  LIG1        0.0776
     77 N           7.5401    8.7115    0.1426 N.ar    1  LIG1       -0.2355
     78 H          10.3295   11.2554   -0.6326 H       1  LIG1        0.0626
     79 N           9.2036    5.9905    1.2113 N.1     1  LIG1       -0.1893
     80 C           9.0468    7.0593    0.8282 C.1     1  LIG1        0.1198
     81 H           7.9305   11.8546   -0.9563 H       1  LIG1        0.0639
     82 C           4.9462    9.3469   -1.2176 C.ar    1  LIG1        0.2239
     83 C           5.7832   10.2235   -0.4775 C.ar    1  LIG1        0.0631
     84 C           5.1980   11.3418    0.0735 C.ar    1  LIG1       -0.0286
     85 C           3.8207   11.5533   -0.0983 C.ar    1  LIG1        0.0707
     86 C           3.0902   10.6165   -0.8154 C.ar    1  LIG1        0.0488
     87 N           3.6471    9.5383   -1.3643 N.ar    1  LIG1       -0.2195
     88 H           5.7865   12.0412    0.6543 H       1  LIG1        0.0639
     89 H           2.0234   10.7402   -0.9528 H       1  LIG1        0.0844
     90 O           5.5179    8.3054   -1.8025 O.3     1  LIG1       -0.4792
     91 C           4.6767    7.3871   -2.5043 C.3     1  LIG1        0.0804
     92 H           5.3529    6.6412   -2.9089 H       1  LIG1        0.0660
     93 H           3.9690    6.9312   -1.8139 H       1  LIG1        0.0660
     94 H           4.1371    7.9041   -3.2962 H       1  LIG1        0.0660
     95 N           2.6414   13.6233    0.9210 N.1     1  LIG1       -0.1908
     96 C           3.1647   12.7066    0.4703 C.1     1  LIG1        0.1007
@<TRIPOS>BOND
     1    94    91    1
     2    92    91    1
     3    40    39    1
     4    91    93    1
     5    91    90    1
     6    39    38    3
     7    90    82    1
     8     5     2    1
     9    10     1    1
    10    38    31    1
    11    61    60    1
    12    87    82   ar
    13    87    86   ar
    14    82    83   ar
    15    34    30    1
    16    60    59    3
    17    81    75    1
    18    89    86    1
    19     2     1   ar
    20     2     4   ar
    21    86    85   ar
    22     1     3   ar
    23    58    54    1
    24    31    30   ar
    25    31    32   ar
    26    59    55    1
    27    30    29   ar
    28    78    74    1
    29    75    74   ar
    30    75    76   ar
    31    83    76    1
    32    83    84   ar
    33    27    24    1
    34    54    55   ar
    35    54    53   ar
    36    74    73   ar
    37    51    49    1
    38    55    56   ar
    39    76    77   ar
    40    67    66    1
    41    45    41   ar
    42    45    44   ar
    43    32    41    1
    44    32    33   ar
    45    85    84   ar
    46    85    96    1
    47    41    42   ar
    48    53    44    1
    49    53    57   ar
    50    29    17    1
    51    29    28   ar
    52    44    43   ar
    53    48    46    1
    54    17    18   ar
    55    17    16   ar
    56    66    65   ar
    57    66    62   ar
    58    56    57   ar
    59    56    62    1
    60    18    13   ar
    61    73    65    1
    62    73    72   ar
    63    84    88    1
    64    16    23    1
    65    16    15   ar
    66    23    24    1
    67    47    46    1
    68    42    43   ar
    69    42    46    1
    70    77    72   ar
    71    13    20    1
    72    13    14   ar
    73    15    14   ar
    74    15    19    1
    75    20    21    3
    76    14     4    1
    77    21    22    1
    78    43    49    1
    79     4     7   ar
    80    65    64   ar
    81    62    63   ar
    82     3     9    1
    83     3     6   ar
    84    72    80    1
    85    24    25    1
    86    24    26    1
    87    33    28   ar
    88    28    35    1
    89    96    95    3
    90    49    50    1
    91    49    52    1
    92    64    63   ar
    93    64    71    1
    94    63    68    1
    95    80    79    3
    96    37    35    1
    97    35    36    1
    98    68    69    3
    99     7     6   ar
   100     7    11    1
   101     6     8    1
   102    69    70    1
   103    11    12    1
