@<TRIPOS>MOLECULE
mol_data/opt/m06hf/geoms/mol2/4ag.out
 13 13 0 0 0
SMALL
GASTEIGER

@<TRIPOS>ATOM
      1 C           0.0355   -0.0159    0.0005 C.ar    1  LIG1       -0.0617
      2 C           1.4280   -0.0294    0.0001 C.ar    1  LIG1       -0.0607
      3 C          -0.6374    1.2020    0.0004 C.ar    1  LIG1       -0.0607
      4 C           2.1432    1.1632   -0.0004 C.ar    1  LIG1       -0.0486
      5 H           1.9628   -0.9699    0.0002 H       1  LIG1        0.0618
      6 C           0.0710    2.4003   -0.0002 C.ar    1  LIG1       -0.0486
      7 C           1.4652    2.3831   -0.0006 C.ar    1  LIG1        0.0047
      8 H          -0.4643    3.3412   -0.0003 H       1  LIG1        0.0628
      9 H           3.2260    1.1479   -0.0007 H       1  LIG1        0.0628
     10 H          -1.7192    1.2260    0.0007 H       1  LIG1        0.0618
     11 H          -0.5188   -0.9446    0.0010 H       1  LIG1        0.0618
     12 S           2.4481    3.8700   -0.0013 S.3     1  LIG1       -0.1426
     13 H           1.4215    4.7259   -0.0013 H       1  LIG1        0.1071
@<TRIPOS>BOND
     1    13    12    1
     2    12     7    1
     3     9     4    1
     4     7     4   ar
     5     7     6   ar
     6     4     2   ar
     7     8     6    1
     8     6     3   ar
     9     2     5    1
    10     2     1   ar
    11     3     1   ar
    12     3    10    1
    13     1    11    1
