@<TRIPOS>MOLECULE
mol_data/opt/m06hf/geoms/mol2/4ag4ag4ag-4ag-.out
 46 49 0 0 0
SMALL
GASTEIGER

@<TRIPOS>ATOM
      1 C          -0.2101    0.1079    0.7610 C.ar    1  LIG1       -0.0611
      2 C           1.1781    0.1660    0.7339 C.ar    1  LIG1       -0.0530
      3 C          -0.9476    1.1092    0.1365 C.ar    1  LIG1       -0.0607
      4 C           1.8442    1.2095    0.0874 C.ar    1  LIG1       -0.0047
      5 H           1.7694   -0.5961    1.2265 H       1  LIG1        0.0624
      6 C          -0.2999    2.1529   -0.5148 C.ar    1  LIG1       -0.0480
      7 C           1.0947    2.2069   -0.5514 C.ar    1  LIG1        0.0124
      8 H          -0.8836    2.9238   -1.0020 H       1  LIG1        0.0629
      9 H          -2.0293    1.0815    0.1527 H       1  LIG1        0.0618
     10 H          -0.7098   -0.7063    1.2682 H       1  LIG1        0.0618
     11 S           1.9589    3.4995   -1.4260 S.3     1  LIG1       -0.1420
     12 H           0.8600    4.0338   -1.9685 H       1  LIG1        0.1071
     13 C           4.0501    0.1594   -0.4732 C.ar    1  LIG1       -0.0534
     14 C           5.4386    0.1826   -0.4697 C.ar    1  LIG1       -0.0524
     15 C           3.3395    1.2268    0.0771 C.ar    1  LIG1       -0.0158
     16 C           6.1452    1.2565    0.0755 C.ar    1  LIG1       -0.0047
     17 H           5.9980   -0.6314   -0.9140 H       1  LIG1        0.0624
     18 C           4.0351    2.2979    0.6379 C.ar    1  LIG1       -0.0402
     19 C           5.4297    2.3209    0.6435 C.ar    1  LIG1        0.0130
     20 H           3.4745    3.1095    1.0868 H       1  LIG1        0.0635
     21 H           3.5134   -0.6691   -0.9172 H       1  LIG1        0.0624
     22 S           6.3280    3.6616    1.4048 S.3     1  LIG1       -0.1420
     23 H           5.2407    4.2871    1.8650 H       1  LIG1        0.1071
     24 C           8.3338    0.1665    0.6215 C.ar    1  LIG1       -0.0534
     25 C           9.7214    0.1387    0.5670 C.ar    1  LIG1       -0.0524
     26 C           7.6396    1.2334    0.0496 C.ar    1  LIG1       -0.0158
     27 C          10.4406    1.1666   -0.0445 C.ar    1  LIG1       -0.0047
     28 H          10.2701   -0.6792    1.0171 H       1  LIG1        0.0624
     29 C           8.3487    2.2588   -0.5768 C.ar    1  LIG1       -0.0402
     30 C           9.7424    2.2351   -0.6227 C.ar    1  LIG1        0.0130
     31 H           7.8002    3.0666   -1.0467 H       1  LIG1        0.0635
     32 H           7.7861   -0.6247    1.1173 H       1  LIG1        0.0624
     33 S          10.6711    3.5116   -1.4520 S.3     1  LIG1       -0.1420
     34 H           9.6003    4.2283   -1.8075 H       1  LIG1        0.1071
     35 C          12.5608    0.0580   -0.7830 C.ar    1  LIG1       -0.0539
     36 C          13.9498   -0.0132   -0.8135 C.ar    1  LIG1       -0.0602
     37 C          11.9339    1.0952   -0.0910 C.ar    1  LIG1       -0.0158
     38 C          14.7182    0.9489   -0.1669 C.ar    1  LIG1       -0.0485
     39 H          14.4383   -0.8123   -1.3555 H       1  LIG1        0.0618
     40 C          12.7026    2.0491    0.5778 C.ar    1  LIG1       -0.0408
     41 C          14.0937    1.9811    0.5338 C.ar    1  LIG1        0.0053
     42 H          12.2053    2.8327    1.1369 H       1  LIG1        0.0635
     43 H          15.7993    0.9055   -0.2111 H       1  LIG1        0.0628
     44 H          11.9571   -0.6753   -1.3019 H       1  LIG1        0.0624
     45 S          15.1291    3.1501    1.3950 S.3     1  LIG1       -0.1426
     46 H          14.2234    4.1302    1.4646 H       1  LIG1        0.1071
@<TRIPOS>BOND
     1    12    11    1
     2    34    33    1
     3    33    30    1
     4    11     7    1
     5    39    36    1
     6    44    35    1
     7    31    29    1
     8     8     6    1
     9    21    13    1
    10    17    14    1
    11    36    35   ar
    12    36    38   ar
    13    35    37   ar
    14    30    29   ar
    15    30    27   ar
    16    29    26   ar
    17     7     6   ar
    18     7     4   ar
    19     6     3   ar
    20    13    14   ar
    21    13    15   ar
    22    14    16   ar
    23    43    38    1
    24    38    41   ar
    25    37    27    1
    26    37    40   ar
    27    27    25   ar
    28    26    16    1
    29    26    24   ar
    30    16    19   ar
    31    15     4    1
    32    15    18   ar
    33     4     2   ar
    34     3     9    1
    35     3     1   ar
    36    41    40   ar
    37    41    45    1
    38    25    24   ar
    39    25    28    1
    40    40    42    1
    41    24    32    1
    42    18    19   ar
    43    18    20    1
    44    19    22    1
    45     2     1   ar
    46     2     5    1
    47     1    10    1
    48    45    46    1
    49    22    23    1
