@<TRIPOS>MOLECULE
mol_data/opt/m06hf/geoms/mol2/4ag4ag4ag4ag.out
 46 49 0 0 0
SMALL
GASTEIGER

@<TRIPOS>ATOM
      1 C          -0.1342    1.3587    1.7224 C.ar    1  LIG1       -0.0611
      2 C           1.2495    1.3547    1.5891 C.ar    1  LIG1       -0.0530
      3 C          -0.9299    1.3579    0.5806 C.ar    1  LIG1       -0.0607
      4 C           1.8514    1.3486    0.3294 C.ar    1  LIG1       -0.0047
      5 H           1.8864    1.3678    2.4648 H       1  LIG1        0.0624
      6 C          -0.3457    1.3473   -0.6810 C.ar    1  LIG1       -0.0480
      7 C           1.0437    1.3369   -0.8157 C.ar    1  LIG1        0.0124
      8 H          -0.9747    1.3424   -1.5621 H       1  LIG1        0.0629
      9 H          -2.0084    1.3644    0.6680 H       1  LIG1        0.0618
     10 H          -0.5860    1.3678    2.7051 H       1  LIG1        0.0618
     11 S           1.8323    1.2804   -2.4162 S.3     1  LIG1       -0.1420
     12 H           0.7008    1.0921   -3.1029 H       1  LIG1        0.1071
     13 C           4.0826    0.2824    0.7507 C.ar    1  LIG1       -0.0534
     14 C           5.4688    0.2984    0.6602 C.ar    1  LIG1       -0.0524
     15 C           3.3437    1.3438    0.2275 C.ar    1  LIG1       -0.0158
     16 C           6.1403    1.3591    0.0499 C.ar    1  LIG1       -0.0047
     17 H           6.0532   -0.5168    1.0681 H       1  LIG1        0.0624
     18 C           4.0055    2.4115   -0.3785 C.ar    1  LIG1       -0.0402
     19 C           5.3965    2.4211   -0.4815 C.ar    1  LIG1        0.0130
     20 H           3.4214    3.2359   -0.7705 H       1  LIG1        0.0635
     21 H           3.5689   -0.5500    1.2140 H       1  LIG1        0.0624
     22 S           6.2619    3.7474   -1.3036 S.3     1  LIG1       -0.1420
     23 H           5.1587    4.3508   -1.7574 H       1  LIG1        0.1071
     24 C           8.2769    0.3206   -0.7516 C.ar    1  LIG1       -0.0534
     25 C           9.6641    0.3025   -0.8185 C.ar    1  LIG1       -0.0524
     26 C           7.6325    1.3334   -0.0403 C.ar    1  LIG1       -0.0158
     27 C          10.4302    1.2857   -0.1894 C.ar    1  LIG1       -0.0047
     28 H          10.1751   -0.4817   -1.3627 H       1  LIG1        0.0624
     29 C           8.3888    2.3145    0.6005 C.ar    1  LIG1       -0.0402
     30 C           9.7814    2.3056    0.5187 C.ar    1  LIG1        0.0130
     31 H           7.8789    3.0870    1.1635 H       1  LIG1        0.0635
     32 H           7.6894   -0.4364   -1.2549 H       1  LIG1        0.0624
     33 S          10.7643    3.5843    1.2810 S.3     1  LIG1       -0.1420
     34 H           9.7316    4.4015    1.5128 H       1  LIG1        0.1071
     35 C          12.5302    1.3695   -1.5520 C.ar    1  LIG1       -0.0539
     36 C          13.9154    1.3208   -1.6574 C.ar    1  LIG1       -0.0602
     37 C          11.9206    1.2439   -0.3015 C.ar    1  LIG1       -0.0158
     38 C          14.7020    1.1593   -0.5194 C.ar    1  LIG1       -0.0485
     39 H          14.3885    1.4268   -2.6247 H       1  LIG1        0.0618
     40 C          12.7060    1.0519    0.8355 C.ar    1  LIG1       -0.0408
     41 C          14.0958    1.0214    0.7276 C.ar    1  LIG1        0.0053
     42 H          12.2285    0.9114    1.7981 H       1  LIG1        0.0635
     43 H          15.7815    1.1487   -0.5948 H       1  LIG1        0.0628
     44 H          11.9133    1.5188   -2.4289 H       1  LIG1        0.0624
     45 S          15.1361    0.7282    2.1509 S.3     1  LIG1       -0.1426
     46 H          14.4654    1.5209    2.9938 H       1  LIG1        0.1071
@<TRIPOS>BOND
     1    12    11    1
     2    39    36    1
     3    44    35    1
     4    11     7    1
     5    23    22    1
     6    36    35   ar
     7    36    38   ar
     8     8     6    1
     9    35    37   ar
    10    28    25    1
    11    22    19    1
    12    32    24    1
    13    25    24   ar
    14    25    27   ar
    15     7     6   ar
    16     7     4   ar
    17    20    18    1
    18    24    26   ar
    19     6     3   ar
    20    43    38    1
    21    38    41   ar
    22    19    18   ar
    23    19    16   ar
    24    18    15   ar
    25    37    27    1
    26    37    40   ar
    27    27    30   ar
    28    26    16    1
    29    26    29   ar
    30    16    14   ar
    31    15     4    1
    32    15    13   ar
    33     4     2   ar
    34    30    29   ar
    35    30    33    1
    36     3     9    1
    37     3     1   ar
    38    29    31    1
    39    14    13   ar
    40    14    17    1
    41    41    40   ar
    42    41    45    1
    43    13    21    1
    44    40    42    1
    45    33    34    1
    46     2     1   ar
    47     2     5    1
    48     1    10    1
    49    45    46    1
