@<TRIPOS>MOLECULE
mol_data/opt/m06hf/geoms/mol2/4ag4ag-.out
 24 25 0 0 0
SMALL
GASTEIGER

@<TRIPOS>ATOM
      1 C          -0.0169    0.1588   -0.7606 C.ar    1  LIG1       -0.0611
      2 C           1.3707    0.1659   -0.6798 C.ar    1  LIG1       -0.0530
      3 C          -0.7377    1.2150   -0.2114 C.ar    1  LIG1       -0.0607
      4 C           2.0521    1.2122   -0.0549 C.ar    1  LIG1       -0.0047
      5 H           1.9501   -0.6398   -1.1130 H       1  LIG1        0.0624
      6 C          -0.0745    2.2632    0.4163 C.ar    1  LIG1       -0.0480
      7 C           1.3186    2.2659    0.5063 C.ar    1  LIG1        0.0124
      8 H          -0.6451    3.0787    0.8418 H       1  LIG1        0.0629
      9 H          -1.8181    1.2285   -0.2702 H       1  LIG1        0.0618
     10 H          -0.5285   -0.6585   -1.2510 H       1  LIG1        0.0618
     11 S           2.1982    3.5713    1.3500 S.3     1  LIG1       -0.1420
     12 H           1.1028    4.1453    1.8570 H       1  LIG1        0.1071
     13 C           4.1980    0.1394    0.6742 C.ar    1  LIG1       -0.0539
     14 C           5.5877    0.1156    0.7284 C.ar    1  LIG1       -0.0602
     15 C           3.5456    1.1824    0.0144 C.ar    1  LIG1       -0.0158
     16 C           6.3330    1.1326    0.1400 C.ar    1  LIG1       -0.0485
     17 H           6.0948   -0.6877    1.2464 H       1  LIG1        0.0618
     18 C           4.2924    2.1871   -0.6023 C.ar    1  LIG1       -0.0408
     19 C           5.6842    2.1703   -0.5284 C.ar    1  LIG1        0.0053
     20 H           3.7800    2.9717   -1.1465 H       1  LIG1        0.0635
     21 H           7.4134    1.1283    0.2072 H       1  LIG1        0.0628
     22 H           3.6119   -0.6347    1.1526 H       1  LIG1        0.0624
     23 S           6.6861    3.4192   -1.3155 S.3     1  LIG1       -0.1426
     24 H           5.7811    4.3978   -1.2453 H       1  LIG1        0.1071
@<TRIPOS>BOND
     1    23    24    1
     2    23    19    1
     3    10     1    1
     4    20    18    1
     5     5     2    1
     6     1     2   ar
     7     1     3   ar
     8     2     4   ar
     9    18    19   ar
    10    18    15   ar
    11    19    16   ar
    12     9     3    1
    13     3     6   ar
    14     4    15    1
    15     4     7   ar
    16    15    13   ar
    17    16    21    1
    18    16    14   ar
    19     6     7   ar
    20     6     8    1
    21     7    11    1
    22    13    14   ar
    23    13    22    1
    24    14    17    1
    25    11    12    1
