@<TRIPOS>MOLECULE
mol_data/opt/m06hf/geoms/mol2/4ag4ag-4ag4ag.out
 46 49 0 0 0
SMALL
GASTEIGER

@<TRIPOS>ATOM
      1 C          -0.2076    0.0956   -0.7475 C.ar    1  LIG1       -0.0611
      2 C           1.1806    0.1550   -0.7200 C.ar    1  LIG1       -0.0530
      3 C          -0.9462    1.1053   -0.1383 C.ar    1  LIG1       -0.0607
      4 C           1.8455    1.2082   -0.0880 C.ar    1  LIG1       -0.0047
      5 H           1.7728   -0.6138   -1.2010 H       1  LIG1        0.0624
      6 C          -0.2998    2.1589    0.4983 C.ar    1  LIG1       -0.0480
      7 C           1.0947    2.2142    0.5356 C.ar    1  LIG1        0.0124
      8 H          -0.8844    2.9363    0.9737 H       1  LIG1        0.0629
      9 H          -2.0279    1.0767   -0.1550 H       1  LIG1        0.0618
     10 H          -0.7062   -0.7262   -1.2433 H       1  LIG1        0.0618
     11 S           1.9571    3.5196    1.3930 S.3     1  LIG1       -0.1420
     12 H           0.8573    4.0604    1.9272 H       1  LIG1        0.1071
     13 C           4.0511    0.1669    0.4895 C.ar    1  LIG1       -0.0534
     14 C           5.4395    0.1910    0.4881 C.ar    1  LIG1       -0.0524
     15 C           3.3408    1.2264   -0.0761 C.ar    1  LIG1       -0.0158
     16 C           6.1464    1.2582   -0.0698 C.ar    1  LIG1       -0.0047
     17 H           5.9988   -0.6166    0.9442 H       1  LIG1        0.0624
     18 C           4.0366    2.2905   -0.6501 C.ar    1  LIG1       -0.0402
     19 C           5.4312    2.3145   -0.6531 C.ar    1  LIG1        0.0130
     20 H           3.4762    3.0956   -1.1107 H       1  LIG1        0.0635
     21 H           3.5142   -0.6559    0.9437 H       1  LIG1        0.0624
     22 S           6.3303    3.6460   -1.4294 S.3     1  LIG1       -0.1420
     23 H           5.2437    4.2655   -1.8992 H       1  LIG1        0.1071
     24 C           8.3375    0.1647   -0.5986 C.ar    1  LIG1       -0.0534
     25 C           9.7250    0.1387   -0.5392 C.ar    1  LIG1       -0.0524
     26 C           7.6408    1.2369   -0.0401 C.ar    1  LIG1       -0.0158
     27 C          10.4416    1.1733    0.0642 C.ar    1  LIG1       -0.0047
     28 H          10.2757   -0.6835   -0.9789 H       1  LIG1        0.0624
     29 C           8.3471    2.2695    0.5775 C.ar    1  LIG1       -0.0402
     30 C           9.7407    2.2474    0.6288 C.ar    1  LIG1        0.0130
     31 H           7.7964    3.0818    1.0370 H       1  LIG1        0.0635
     32 H           7.7921   -0.6322   -1.0875 H       1  LIG1        0.0624
     33 S          10.6646    3.5331    1.4491 S.3     1  LIG1       -0.1420
     34 H           9.5913    4.2515    1.7932 H       1  LIG1        0.1071
     35 C          12.5560    0.0651    0.8161 C.ar    1  LIG1       -0.0539
     36 C          13.9452   -0.0082    0.8523 C.ar    1  LIG1       -0.0602
     37 C          11.9346    1.1006    0.1176 C.ar    1  LIG1       -0.0158
     38 C          14.7176    0.9474    0.2025 C.ar    1  LIG1       -0.0485
     39 H          14.4303   -0.8066    1.3983 H       1  LIG1        0.0618
     40 C          12.7078    2.0530   -0.5491 C.ar    1  LIG1       -0.0408
     41 C          14.0983    1.9806   -0.5029 C.ar    1  LIG1        0.0053
     42 H          12.2123    2.8394   -1.1059 H       1  LIG1        0.0635
     43 H          15.7987    0.8964    0.2454 H       1  LIG1        0.0628
     44 H          11.9490   -0.6652    1.3352 H       1  LIG1        0.0624
     45 S          15.1460    3.1489   -1.3463 S.3     1  LIG1       -0.1426
     46 H          14.1904    4.0387   -1.6234 H       1  LIG1        0.1071
@<TRIPOS>BOND
     1    23    22    1
     2    46    45    1
     3    22    19    1
     4    45    41    1
     5    10     1    1
     6     5     2    1
     7    20    18    1
     8    42    40    1
     9    32    24    1
    10    28    25    1
    11     1     2   ar
    12     1     3   ar
    13     2     4   ar
    14    19    18   ar
    15    19    16   ar
    16    18    15   ar
    17    24    25   ar
    18    24    26   ar
    19    40    41   ar
    20    40    37   ar
    21    25    27   ar
    22    41    38   ar
    23     9     3    1
    24     3     6   ar
    25     4    15    1
    26     4     7   ar
    27    15    13   ar
    28    16    26    1
    29    16    14   ar
    30    26    29   ar
    31    27    37    1
    32    27    30   ar
    33    37    35   ar
    34    38    43    1
    35    38    36   ar
    36    14    13   ar
    37    14    17    1
    38    13    21    1
    39     6     7   ar
    40     6     8    1
    41     7    11    1
    42    29    30   ar
    43    29    31    1
    44    30    33    1
    45    35    36   ar
    46    35    44    1
    47    36    39    1
    48    11    12    1
    49    33    34    1
