@<TRIPOS>MOLECULE
mol_data/opt/m06hf/geoms/mol2/4ag4ag-4ag.out
 35 37 0 0 0
SMALL
GASTEIGER

@<TRIPOS>ATOM
      1 C          -0.1360    0.0620   -0.4193 C.ar    1  LIG1       -0.0611
      2 C           1.2538    0.0882   -0.4066 C.ar    1  LIG1       -0.0530
      3 C          -0.8435    1.1910   -0.0176 C.ar    1  LIG1       -0.0607
      4 C           1.9501    1.2263    0.0046 C.ar    1  LIG1       -0.0047
      5 H           1.8218   -0.7752   -0.7293 H       1  LIG1        0.0624
      6 C          -0.1651    2.3310    0.3985 C.ar    1  LIG1       -0.0480
      7 C           1.2306    2.3552    0.4198 C.ar    1  LIG1        0.0124
      8 H          -0.7255    3.2015    0.7145 H       1  LIG1        0.0629
      9 H          -1.9257    1.1890   -0.0255 H       1  LIG1        0.0618
     10 H          -0.6592   -0.8269   -0.7440 H       1  LIG1        0.0618
     11 S           2.1353    3.7800    1.0005 S.3     1  LIG1       -0.1420
     12 H           1.0541    4.4517    1.4078 H       1  LIG1        0.1071
     13 C           4.1405    0.2811    0.7790 C.ar    1  LIG1       -0.0534
     14 C           5.5296    0.2678    0.7568 C.ar    1  LIG1       -0.0524
     15 C           3.4457    1.2102    0.0042 C.ar    1  LIG1       -0.0158
     16 C           6.2480    1.1718   -0.0270 C.ar    1  LIG1       -0.0047
     17 H           6.0800   -0.4383    1.3659 H       1  LIG1        0.0624
     18 C           4.1543    2.1088   -0.7936 C.ar    1  LIG1       -0.0402
     19 C           5.5487    2.0971   -0.8135 C.ar    1  LIG1        0.0130
     20 H           3.6033    2.8079   -1.4115 H       1  LIG1        0.0635
     21 H           3.5916   -0.4106    1.4046 H       1  LIG1        0.0624
     22 S           6.4773    3.2032   -1.8605 S.3     1  LIG1       -0.1420
     23 H           5.4024    3.7854   -2.4006 H       1  LIG1        0.1071
     24 C           8.4116   -0.0071   -0.4840 C.ar    1  LIG1       -0.0539
     25 C           9.8029   -0.0437   -0.4670 C.ar    1  LIG1       -0.0602
     26 C           7.7431    1.1269   -0.0234 C.ar    1  LIG1       -0.0158
     27 C          10.5305    1.0446    0.0005 C.ar    1  LIG1       -0.0485
     28 H          10.3249   -0.9191   -0.8296 H       1  LIG1        0.0618
     29 C           8.4711    2.2160    0.4607 C.ar    1  LIG1       -0.0408
     30 C           9.8637    2.1780    0.4687 C.ar    1  LIG1        0.0053
     31 H           7.9381    3.0818    0.8345 H       1  LIG1        0.0635
     32 H          11.6131    1.0175    0.0003 H       1  LIG1        0.0628
     33 H           7.8403   -0.8445   -0.8636 H       1  LIG1        0.0624
     34 S          10.8521    3.5262    1.0828 S.3     1  LIG1       -0.1426
     35 H           9.8500    4.3961    1.2216 H       1  LIG1        0.1071
@<TRIPOS>BOND
     1    23    22    1
     2    22    19    1
     3    20    18    1
     4    33    24    1
     5    28    25    1
     6    19    18   ar
     7    19    16   ar
     8    18    15   ar
     9    10     1    1
    10     5     2    1
    11    24    25   ar
    12    24    26   ar
    13    25    27   ar
    14     1     2   ar
    15     1     3   ar
    16     2     4   ar
    17    16    26    1
    18    16    14   ar
    19     9     3    1
    20    26    29   ar
    21     3     6   ar
    22    32    27    1
    23    27    30   ar
    24    15     4    1
    25    15    13   ar
    26     4     7   ar
    27     6     7   ar
    28     6     8    1
    29     7    11    1
    30    29    30   ar
    31    29    31    1
    32    30    34    1
    33    14    13   ar
    34    14    17    1
    35    13    21    1
    36    11    12    1
    37    34    35    1
