@<TRIPOS>MOLECULE
mol_data/opt/m06hf/geoms/mol2/4ag4ag.out
 24 25 0 0 0
SMALL
GASTEIGER

@<TRIPOS>ATOM
      1 C          -0.0010    0.1473    0.7881 C.ar    1  LIG1       -0.0611
      2 C           1.3843    0.1537    0.6721 C.ar    1  LIG1       -0.0530
      3 C          -0.7326    1.2170    0.2812 C.ar    1  LIG1       -0.0607
      4 C           2.0527    1.2135    0.0561 C.ar    1  LIG1       -0.0047
      5 H           1.9724   -0.6627    1.0721 H       1  LIG1        0.0624
      6 C          -0.0828    2.2774   -0.3398 C.ar    1  LIG1       -0.0480
      7 C           1.3080    2.2821   -0.4611 C.ar    1  LIG1        0.0124
      8 H          -0.6630    3.0999   -0.7380 H       1  LIG1        0.0629
      9 H          -1.8113    1.2305    0.3658 H       1  LIG1        0.0618
     10 H          -0.5020   -0.6801    1.2721 H       1  LIG1        0.0618
     11 S           2.1685    3.6022   -1.3008 S.3     1  LIG1       -0.1420
     12 H           1.0604    4.2752   -1.6278 H       1  LIG1        0.1071
     13 C           4.1786    0.1489   -0.7416 C.ar    1  LIG1       -0.0539
     14 C           5.5671    0.1180   -0.8213 C.ar    1  LIG1       -0.0602
     15 C           3.5446    1.1810   -0.0479 C.ar    1  LIG1       -0.0158
     16 C           6.3290    1.1180   -0.2254 C.ar    1  LIG1       -0.0485
     17 H           6.0599   -0.6775   -1.3645 H       1  LIG1        0.0618
     18 C           4.3087    2.1687    0.5756 C.ar    1  LIG1       -0.0408
     19 C           5.6985    2.1455    0.4758 C.ar    1  LIG1        0.0053
     20 H           3.8106    2.9452    1.1438 H       1  LIG1        0.0635
     21 H           7.4080    1.1089   -0.3119 H       1  LIG1        0.0628
     22 H           3.5794   -0.6124   -1.2244 H       1  LIG1        0.0624
     23 S           6.7221    3.3725    1.2693 S.3     1  LIG1       -0.1426
     24 H           5.8201    4.3561    1.2402 H       1  LIG1        0.1071
@<TRIPOS>BOND
     1    12    11    1
     2    17    14    1
     3    11     7    1
     4    22    13    1
     5    14    13   ar
     6    14    16   ar
     7    13    15   ar
     8     8     6    1
     9     7     6   ar
    10     7     4   ar
    11     6     3   ar
    12    21    16    1
    13    16    19   ar
    14    15     4    1
    15    15    18   ar
    16     4     2   ar
    17     3     9    1
    18     3     1   ar
    19    19    18   ar
    20    19    23    1
    21    18    20    1
    22     2     1   ar
    23     2     5    1
    24     1    10    1
    25    24    23    1
