@<TRIPOS>MOLECULE
mol_data/opt/m06hf/geoms/mol2/4ag4ag-4ag-.out
 35 37 0 0 0
SMALL
GASTEIGER

@<TRIPOS>ATOM
      1 C          -0.1132    0.6481   -1.1597 C.ar    1  LIG1       -0.0611
      2 C           1.2748    0.6330   -1.0835 C.ar    1  LIG1       -0.0530
      3 C          -0.8429    1.3339   -0.1930 C.ar    1  LIG1       -0.0607
      4 C           1.9456    1.2966   -0.0546 C.ar    1  LIG1       -0.0047
      5 H           1.8600    0.0965   -1.8201 H       1  LIG1        0.0624
      6 C          -0.1891    1.9994    0.8378 C.ar    1  LIG1       -0.0480
      7 C           1.2051    1.9917    0.9099 C.ar    1  LIG1        0.0124
      8 H          -0.7656    2.5286    1.5858 H       1  LIG1        0.0629
      9 H          -1.9241    1.3530   -0.2373 H       1  LIG1        0.0618
     10 H          -0.6191    0.1278   -1.9615 H       1  LIG1        0.0618
     11 S           2.0873    2.8629    2.1929 S.3     1  LIG1       -0.1420
     12 H           1.0282    3.5581    2.6188 H       1  LIG1        0.1071
     13 C           4.1102    0.6118    1.0275 C.ar    1  LIG1       -0.0534
     14 C           5.4995    0.5889    1.0398 C.ar    1  LIG1       -0.0524
     15 C           3.4407    1.2669   -0.0072 C.ar    1  LIG1       -0.0158
     16 C           6.2412    1.2101    0.0339 C.ar    1  LIG1       -0.0047
     17 H           6.0305    0.0881    1.8393 H       1  LIG1        0.0624
     18 C           4.1721    1.8871   -1.0188 C.ar    1  LIG1       -0.0402
     19 C           5.5666    1.8610   -1.0073 C.ar    1  LIG1        0.0130
     20 H           3.6377    2.3950   -1.8122 H       1  LIG1        0.0635
     21 H           3.5438    0.1220    1.8094 H       1  LIG1        0.0624
     22 S           6.5311    2.6104   -2.3079 S.3     1  LIG1       -0.1420
     23 H           5.4793    2.9751   -3.0493 H       1  LIG1        0.1071
     24 C           8.3871   -0.0782   -0.0262 C.ar    1  LIG1       -0.0539
     25 C           9.7765   -0.1311    0.0250 C.ar    1  LIG1       -0.0602
     26 C           7.7355    1.1514    0.0755 C.ar    1  LIG1       -0.0158
     27 C          10.5200    1.0351    0.1685 C.ar    1  LIG1       -0.0485
     28 H          10.2851   -1.0824   -0.0606 H       1  LIG1        0.0618
     29 C           8.4785    2.3218    0.2406 C.ar    1  LIG1       -0.0408
     30 C           9.8704    2.2649    0.2813 C.ar    1  LIG1        0.0053
     31 H           7.9602    3.2672    0.3488 H       1  LIG1        0.0635
     32 H          11.6018    0.9941    0.1892 H       1  LIG1        0.0628
     33 H           7.8028   -0.9799   -0.1574 H       1  LIG1        0.0624
     34 S          10.8779    3.7132    0.5296 S.3     1  LIG1       -0.1426
     35 H           9.9578    4.6090    0.1594 H       1  LIG1        0.1071
@<TRIPOS>BOND
     1    23    22    1
     2    22    19    1
     3    10     1    1
     4     5     2    1
     5    20    18    1
     6     1     2   ar
     7     1     3   ar
     8     2     4   ar
     9    18    19   ar
    10    18    15   ar
    11    19    16   ar
    12     9     3    1
    13     3     6   ar
    14    33    24    1
    15    28    25    1
    16     4    15    1
    17     4     7   ar
    18    24    25   ar
    19    24    26   ar
    20    15    13   ar
    21    25    27   ar
    22    16    26    1
    23    16    14   ar
    24    26    29   ar
    25    35    34    1
    26    27    32    1
    27    27    30   ar
    28    29    30   ar
    29    29    31    1
    30    30    34    1
    31     6     7   ar
    32     6     8    1
    33     7    11    1
    34    13    14   ar
    35    13    21    1
    36    14    17    1
    37    11    12    1
