@<TRIPOS>MOLECULE
mol_data/opt/m06hf/geoms/mol2/4ag4ag-4ag-4ag.out
 46 49 0 0 0
SMALL
GASTEIGER

@<TRIPOS>ATOM
      1 C          -0.2054    1.3639   -1.3514 C.ar    1  LIG1       -0.0611
      2 C           1.1834    1.3666   -1.2888 C.ar    1  LIG1       -0.0530
      3 C          -0.9415    1.3406   -0.1704 C.ar    1  LIG1       -0.0607
      4 C           1.8494    1.3481   -0.0621 C.ar    1  LIG1       -0.0047
      5 H           1.7740    1.3709   -2.1967 H       1  LIG1        0.0624
      6 C          -0.2933    1.3269    1.0594 C.ar    1  LIG1       -0.0480
      7 C           1.1011    1.3362    1.1231 C.ar    1  LIG1        0.0124
      8 H          -0.8761    1.3134    1.9718 H       1  LIG1        0.0629
      9 H          -2.0233    1.3351   -0.2018 H       1  LIG1        0.0618
     10 H          -0.7066    1.3746   -2.3096 H       1  LIG1        0.0618
     11 S           1.9718    1.3626    2.6807 S.3     1  LIG1       -0.1420
     12 H           0.8766    1.5077    3.4308 H       1  LIG1        0.1071
     13 C           4.0490    0.2632    0.4918 C.ar    1  LIG1       -0.0534
     14 C           5.4378    0.2778    0.4849 C.ar    1  LIG1       -0.0524
     15 C           3.3451    1.3478   -0.0352 C.ar    1  LIG1       -0.0158
     16 C           6.1471    1.3590   -0.0407 C.ar    1  LIG1       -0.0047
     17 H           5.9941   -0.5647    0.8760 H       1  LIG1        0.0624
     18 C           4.0445    2.4328   -0.5610 C.ar    1  LIG1       -0.0402
     19 C           5.4394    2.4503   -0.5611 C.ar    1  LIG1        0.0130
     20 H           3.4848    3.2730   -0.9539 H       1  LIG1        0.0635
     21 H           3.5097   -0.5871    0.8892 H       1  LIG1        0.0624
     22 S           6.3570    3.8532   -1.1738 S.3     1  LIG1       -0.1420
     23 H           5.2884    4.6465   -1.3024 H       1  LIG1        0.1071
     24 C           8.3301    1.2690    1.1872 C.ar    1  LIG1       -0.0534
     25 C           9.7185    1.2229    1.1873 C.ar    1  LIG1       -0.0524
     26 C           7.6420    1.3347   -0.0246 C.ar    1  LIG1       -0.0158
     27 C          10.4416    1.2443   -0.0066 C.ar    1  LIG1       -0.0047
     28 H          10.2639    1.1617    2.1207 H       1  LIG1        0.0624
     29 C           8.3547    1.3556   -1.2237 C.ar    1  LIG1       -0.0402
     30 C           9.7493    1.3220   -1.2225 C.ar    1  LIG1        0.0130
     31 H           7.8087    1.3938   -2.1589 H       1  LIG1        0.0635
     32 H           7.7769    1.2618    2.1174 H       1  LIG1        0.0624
     33 S          10.6894    1.3878   -2.7349 S.3     1  LIG1       -0.1420
     34 H           9.6417    1.6626   -3.5183 H       1  LIG1        0.1071
     35 C          12.6196    0.0935   -0.4961 C.ar    1  LIG1       -0.0539
     36 C          14.0084    0.0462   -0.4210 C.ar    1  LIG1       -0.0602
     37 C          11.9357    1.1866    0.0380 C.ar    1  LIG1       -0.0158
     38 C          14.7184    1.0753    0.1866 C.ar    1  LIG1       -0.0485
     39 H          14.5413   -0.8022   -0.8292 H       1  LIG1        0.0618
     40 C          12.6463    2.2237    0.6440 C.ar    1  LIG1       -0.0408
     41 C          14.0364    2.1696    0.7206 C.ar    1  LIG1        0.0053
     42 H          12.1013    3.0723    1.0397 H       1  LIG1        0.0635
     43 H          15.7988    1.0293    0.2504 H       1  LIG1        0.0628
     44 H          12.0639   -0.7144   -0.9551 H       1  LIG1        0.0624
     45 S          15.0081    3.4610    1.4700 S.3     1  LIG1       -0.1426
     46 H          13.9814    4.1886    1.9204 H       1  LIG1        0.1071
@<TRIPOS>BOND
     1    34    33    1
     2    33    30    1
     3    10     1    1
     4     5     2    1
     5    31    29    1
     6     1     2   ar
     7     1     3   ar
     8    23    22    1
     9     2     4   ar
    10    29    30   ar
    11    29    26   ar
    12    30    27   ar
    13    22    19    1
    14    44    35    1
    15    20    18    1
    16    39    36    1
    17    19    18   ar
    18    19    16   ar
    19    18    15   ar
    20    35    36   ar
    21    35    37   ar
    22    36    38   ar
    23     9     3    1
    24     3     6   ar
    25     4    15    1
    26     4     7   ar
    27    16    26    1
    28    16    14   ar
    29    15    13   ar
    30    26    24   ar
    31    27    37    1
    32    27    25   ar
    33    37    40   ar
    34    38    43    1
    35    38    41   ar
    36    14    13   ar
    37    14    17    1
    38    13    21    1
    39    40    41   ar
    40    40    42    1
    41    41    45    1
    42     6     7   ar
    43     6     8    1
    44     7    11    1
    45    24    25   ar
    46    24    32    1
    47    25    28    1
    48    45    46    1
    49    11    12    1
