@<TRIPOS>MOLECULE
mol_data/opt/m06hf/geoms/mol2/4ag4ag-4ag-4ag-.out
 46 49 0 0 0
SMALL
GASTEIGER

@<TRIPOS>ATOM
      1 C          -0.2095    0.0971   -0.7458 C.ar    1  LIG1       -0.0611
      2 C           1.1788    0.1551   -0.7173 C.ar    1  LIG1       -0.0530
      3 C          -0.9474    1.1106   -0.1419 C.ar    1  LIG1       -0.0607
      4 C           1.8443    1.2104   -0.0896 C.ar    1  LIG1       -0.0047
      5 H           1.7705   -0.6166   -1.1942 H       1  LIG1        0.0624
      6 C          -0.3004    2.1663    0.4905 C.ar    1  LIG1       -0.0480
      7 C           1.0942    2.2202    0.5287 C.ar    1  LIG1        0.0124
      8 H          -0.8845    2.9466    0.9618 H       1  LIG1        0.0629
      9 H          -2.0292    1.0832   -0.1595 H       1  LIG1        0.0618
     10 H          -0.7087   -0.7263   -1.2383 H       1  LIG1        0.0618
     11 S           1.9574    3.5289    1.3800 S.3     1  LIG1       -0.1420
     12 H           0.8579    4.0739    1.9104 H       1  LIG1        0.1071
     13 C           4.0486    0.1699    0.4948 C.ar    1  LIG1       -0.0534
     14 C           5.4370    0.1924    0.4934 C.ar    1  LIG1       -0.0524
     15 C           3.3396    1.2271   -0.0769 C.ar    1  LIG1       -0.0158
     16 C           6.1453    1.2554   -0.0706 C.ar    1  LIG1       -0.0047
     17 H           5.9953   -0.6133    0.9541 H       1  LIG1        0.0624
     18 C           4.0368    2.2871   -0.6566 C.ar    1  LIG1       -0.0402
     19 C           5.4314    2.3093   -0.6600 C.ar    1  LIG1        0.0130
     20 H           3.4774    3.0903   -1.1218 H       1  LIG1        0.0635
     21 H           3.5106   -0.6498    0.9533 H       1  LIG1        0.0624
     22 S           6.3317    3.6349   -1.4449 S.3     1  LIG1       -0.1420
     23 H           5.2457    4.2521   -1.9189 H       1  LIG1        0.1071
     24 C           8.3345    0.1544   -0.5916 C.ar    1  LIG1       -0.0534
     25 C           9.7220    0.1271   -0.5336 C.ar    1  LIG1       -0.0524
     26 C           7.6396    1.2321   -0.0414 C.ar    1  LIG1       -0.0158
     27 C          10.4403    1.1660    0.0599 C.ar    1  LIG1       -0.0047
     28 H          10.2712   -0.6994   -0.9671 H       1  LIG1        0.0624
     29 C           8.3478    2.2689    0.5671 C.ar    1  LIG1       -0.0402
     30 C           9.7414    2.2456    0.6164 C.ar    1  LIG1        0.0130
     31 H           7.7987    3.0856    1.0207 H       1  LIG1        0.0635
     32 H           7.7875   -0.6457   -1.0735 H       1  LIG1        0.0624
     33 S          10.6688    3.5372    1.4234 S.3     1  LIG1       -0.1420
     34 H           9.5974    4.2605    1.7635 H       1  LIG1        0.1071
     35 C          12.5581    0.0700    0.8235 C.ar    1  LIG1       -0.0539
     36 C          13.9470   -0.0014    0.8586 C.ar    1  LIG1       -0.0602
     37 C          11.9335    1.0947    0.1113 C.ar    1  LIG1       -0.0158
     38 C          14.7175    0.9484    0.1966 C.ar    1  LIG1       -0.0485
     39 H          14.4338   -0.7908    1.4162 H       1  LIG1        0.0618
     40 C          12.7044    2.0360   -0.5729 C.ar    1  LIG1       -0.0408
     41 C          14.0953    1.9681   -0.5242 C.ar    1  LIG1        0.0053
     42 H          12.2088    2.8095   -1.1473 H       1  LIG1        0.0635
     43 H          15.7985    0.9052    0.2442 H       1  LIG1        0.0628
     44 H          11.9528   -0.6535    1.3542 H       1  LIG1        0.0624
     45 S          15.1336    3.1210   -1.4034 S.3     1  LIG1       -0.1426
     46 H          14.2283    4.1000   -1.4934 H       1  LIG1        0.1071
@<TRIPOS>BOND
     1    23    22    1
     2    46    45    1
     3    22    19    1
     4    45    41    1
     5    10     1    1
     6     5     2    1
     7    42    40    1
     8    20    18    1
     9    32    24    1
    10    28    25    1
    11     1     2   ar
    12     1     3   ar
    13     2     4   ar
    14    19    18   ar
    15    19    16   ar
    16    18    15   ar
    17    24    25   ar
    18    24    26   ar
    19    40    41   ar
    20    40    37   ar
    21    25    27   ar
    22    41    38   ar
    23     9     3    1
    24     3     6   ar
    25     4    15    1
    26     4     7   ar
    27    15    13   ar
    28    16    26    1
    29    16    14   ar
    30    26    29   ar
    31    27    37    1
    32    27    30   ar
    33    37    35   ar
    34    38    43    1
    35    38    36   ar
    36     6     7   ar
    37     6     8    1
    38    14    13   ar
    39    14    17    1
    40    13    21    1
    41     7    11    1
    42    29    30   ar
    43    29    31    1
    44    30    33    1
    45    35    36   ar
    46    35    44    1
    47    36    39    1
    48    11    12    1
    49    33    34    1
