@<TRIPOS>MOLECULE
mol_data/opt/m06hf/geoms/mol2/4ag4ag4ag-.out
 35 37 0 0 0
SMALL
GASTEIGER

@<TRIPOS>ATOM
      1 C          -0.1345    0.0545    0.4131 C.ar    1  LIG1       -0.0611
      2 C           1.2552    0.0839    0.4063 C.ar    1  LIG1       -0.0530
      3 C          -0.8429    1.1772   -0.0044 C.ar    1  LIG1       -0.0607
      4 C           1.9507    1.2189   -0.0147 C.ar    1  LIG1       -0.0047
      5 H           1.8239   -0.7745    0.7412 H       1  LIG1        0.0624
      6 C          -0.1653    2.3141   -0.4304 C.ar    1  LIG1       -0.0480
      7 C           1.2303    2.3413   -0.4457 C.ar    1  LIG1        0.0124
      8 H          -0.7264    3.1796   -0.7586 H       1  LIG1        0.0629
      9 H          -1.9251    1.1726   -0.0013 H       1  LIG1        0.0618
     10 H          -0.6571   -0.8320    0.7456 H       1  LIG1        0.0618
     11 S           2.1343    3.7617   -1.0385 S.3     1  LIG1       -0.1420
     12 H           1.0535    4.4261   -1.4585 H       1  LIG1        0.1071
     13 C           4.1469    0.2705   -0.7684 C.ar    1  LIG1       -0.0534
     14 C           5.5359    0.2608   -0.7398 C.ar    1  LIG1       -0.0524
     15 C           3.4463    1.2065   -0.0073 C.ar    1  LIG1       -0.0158
     16 C           6.2485    1.1754    0.0369 C.ar    1  LIG1       -0.0047
     17 H           6.0907   -0.4508   -1.3384 H       1  LIG1        0.0624
     18 C           4.1491    2.1158    0.7834 C.ar    1  LIG1       -0.0402
     19 C           5.5434    2.1079    0.8097 C.ar    1  LIG1        0.0130
     20 H           3.5936    2.8204    1.3909 H       1  LIG1        0.0635
     21 H           3.6025   -0.4297   -1.3887 H       1  LIG1        0.0624
     22 S           6.4646    3.2279    1.8484 S.3     1  LIG1       -0.1420
     23 H           5.3858    3.8133    2.3771 H       1  LIG1        0.1071
     24 C           8.4127    0.0070    0.5173 C.ar    1  LIG1       -0.0539
     25 C           9.8041   -0.0264    0.5074 C.ar    1  LIG1       -0.0602
     26 C           7.7437    1.1341    0.0407 C.ar    1  LIG1       -0.0158
     27 C          10.5314    1.0583    0.0311 C.ar    1  LIG1       -0.0485
     28 H          10.3265   -0.8963    0.8826 H       1  LIG1        0.0618
     29 C           8.4715    2.2193   -0.4525 C.ar    1  LIG1       -0.0408
     30 C           9.8642    2.1846   -0.4534 C.ar    1  LIG1        0.0053
     31 H           7.9382    3.0795   -0.8387 H       1  LIG1        0.0635
     32 H          11.6141    1.0338    0.0368 H       1  LIG1        0.0628
     33 H           7.8416   -0.8273    0.9039 H       1  LIG1        0.0624
     34 S          10.8524    3.5279   -1.0783 S.3     1  LIG1       -0.1426
     35 H           9.8493    4.3942   -1.2312 H       1  LIG1        0.1071
@<TRIPOS>BOND
     1    12    11    1
     2    21    13    1
     3    17    14    1
     4    35    34    1
     5    34    30    1
     6    11     7    1
     7    31    29    1
     8    13    14   ar
     9    13    15   ar
    10     8     6    1
    11    14    16   ar
    12    30    29   ar
    13    30    27   ar
    14    29    26   ar
    15     7     6   ar
    16     7     4   ar
    17     6     3   ar
    18     4    15    1
    19     4     2   ar
    20    15    18   ar
    21     3     9    1
    22     3     1   ar
    23    27    32    1
    24    27    25   ar
    25    16    26    1
    26    16    19   ar
    27    26    24   ar
    28     2     1   ar
    29     2     5    1
    30     1    10    1
    31    25    24   ar
    32    25    28    1
    33    24    33    1
    34    18    19   ar
    35    18    20    1
    36    19    22    1
    37    22    23    1
