@<TRIPOS>MOLECULE
mol_data/opt/m06hf/geoms/mol2/4ag4ag4ag-4ag.out
 46 49 0 0 0
SMALL
GASTEIGER

@<TRIPOS>ATOM
      1 C          -0.2063    0.0886    0.7523 C.ar    1  LIG1       -0.0611
      2 C           1.1818    0.1497    0.7254 C.ar    1  LIG1       -0.0530
      3 C          -0.9459    1.0962    0.1406 C.ar    1  LIG1       -0.0607
      4 C           1.8457    1.2023    0.0915 C.ar    1  LIG1       -0.0047
      5 H           1.7747   -0.6174    1.2083 H       1  LIG1        0.0624
      6 C          -0.3004    2.1491   -0.4980 C.ar    1  LIG1       -0.0480
      7 C           1.0940    2.2061   -0.5347 C.ar    1  LIG1        0.0124
      8 H          -0.8858    2.9249   -0.9753 H       1  LIG1        0.0629
      9 H          -2.0276    1.0663    0.1568 H       1  LIG1        0.0618
     10 H          -0.7043   -0.7328    1.2495 H       1  LIG1        0.0618
     11 S           1.9553    3.5107   -1.3942 S.3     1  LIG1       -0.1420
     12 H           0.8551    4.0491   -1.9302 H       1  LIG1        0.1071
     13 C           4.0530    0.1625   -0.4824 C.ar    1  LIG1       -0.0534
     14 C           5.4413    0.1882   -0.4801 C.ar    1  LIG1       -0.0524
     15 C           3.3410    1.2224    0.0804 C.ar    1  LIG1       -0.0158
     16 C           6.1465    1.2575    0.0760 C.ar    1  LIG1       -0.0047
     17 H           6.0019   -0.6196   -0.9341 H       1  LIG1        0.0624
     18 C           4.0351    2.2885    0.6525 C.ar    1  LIG1       -0.0402
     19 C           5.4297    2.3141    0.6566 C.ar    1  LIG1        0.0130
     20 H           3.4735    3.0939    1.1111 H       1  LIG1        0.0635
     21 H           3.5173   -0.6620   -0.9352 H       1  LIG1        0.0624
     22 S           6.3266    3.6482    1.4310 S.3     1  LIG1       -0.1420
     23 H           5.2389    4.2673    1.8986 H       1  LIG1        0.1071
     24 C           8.3384    0.1672    0.6083 C.ar    1  LIG1       -0.0534
     25 C           9.7260    0.1426    0.5502 C.ar    1  LIG1       -0.0524
     26 C           7.6410    1.2378    0.0475 C.ar    1  LIG1       -0.0158
     27 C          10.4419    1.1771   -0.0541 C.ar    1  LIG1       -0.0047
     28 H          10.2772   -0.6783    0.9916 H       1  LIG1        0.0624
     29 C           8.3467    2.2702   -0.5711 C.ar    1  LIG1       -0.0402
     30 C           9.7404    2.2495   -0.6210 C.ar    1  LIG1        0.0130
     31 H           7.7955    3.0811   -1.0324 H       1  LIG1        0.0635
     32 H           7.7934   -0.6295    1.0980 H       1  LIG1        0.0624
     33 S          10.6639    3.5350   -1.4420 S.3     1  LIG1       -0.1420
     34 H           9.5902    4.2518   -1.7885 H       1  LIG1        0.1071
     35 C          12.5586    0.0717   -0.8037 C.ar    1  LIG1       -0.0539
     36 C          13.9479    0.0001   -0.8381 C.ar    1  LIG1       -0.0602
     37 C          11.9352    1.1063   -0.1058 C.ar    1  LIG1       -0.0158
     38 C          14.7184    0.9565   -0.1872 C.ar    1  LIG1       -0.0485
     39 H          14.4348   -0.7976   -1.3837 H       1  LIG1        0.0618
     40 C          12.7063    2.0595    0.5621 C.ar    1  LIG1       -0.0408
     41 C          14.0969    1.9886    0.5177 C.ar    1  LIG1        0.0053
     42 H          12.2091    2.8450    1.1186 H       1  LIG1        0.0635
     43 H          15.7996    0.9068   -0.2286 H       1  LIG1        0.0628
     44 H          11.9532   -0.6593   -1.3237 H       1  LIG1        0.0624
     45 S          15.1421    3.1574    1.3640 S.3     1  LIG1       -0.1426
     46 H          14.1862    4.0487    1.6354 H       1  LIG1        0.1071
@<TRIPOS>BOND
     1    12    11    1
     2    34    33    1
     3    33    30    1
     4    11     7    1
     5    39    36    1
     6    44    35    1
     7    31    29    1
     8     8     6    1
     9    21    13    1
    10    17    14    1
    11    36    35   ar
    12    36    38   ar
    13    35    37   ar
    14    30    29   ar
    15    30    27   ar
    16    29    26   ar
    17     7     6   ar
    18     7     4   ar
    19     6     3   ar
    20    13    14   ar
    21    13    15   ar
    22    14    16   ar
    23    43    38    1
    24    38    41   ar
    25    37    27    1
    26    37    40   ar
    27    27    25   ar
    28    26    16    1
    29    26    24   ar
    30    16    19   ar
    31    15     4    1
    32    15    18   ar
    33     4     2   ar
    34     3     9    1
    35     3     1   ar
    36    41    40   ar
    37    41    45    1
    38    25    24   ar
    39    25    28    1
    40    40    42    1
    41    24    32    1
    42    18    19   ar
    43    18    20    1
    44    19    22    1
    45     2     1   ar
    46     2     5    1
    47     1    10    1
    48    45    46    1
    49    22    23    1
