@<TRIPOS>MOLECULE
mol_data/opt/m06hf/geoms/mol2/4ag4ag4ag4ag-.out
 46 49 0 0 0
SMALL
GASTEIGER

@<TRIPOS>ATOM
      1 C          -0.1714    0.7236    1.3720 C.ar    1  LIG1       -0.0611
      2 C           1.2145    0.7370    1.2683 C.ar    1  LIG1       -0.0530
      3 C          -0.9372    1.2730    0.3478 C.ar    1  LIG1       -0.0607
      4 C           1.8494    1.2904    0.1546 C.ar    1  LIG1       -0.0047
      5 H           1.8288    0.3265    2.0602 H       1  LIG1        0.0624
      6 C          -0.3205    1.8252   -0.7691 C.ar    1  LIG1       -0.0480
      7 C           1.0715    1.8310   -0.8783 C.ar    1  LIG1        0.0124
      8 H          -0.9265    2.2485   -1.5602 H       1  LIG1        0.0629
      9 H          -2.0173    1.2754    0.4153 H       1  LIG1        0.0618
     10 H          -0.6474    0.2947    2.2433 H       1  LIG1        0.0618
     11 S           1.8955    2.4868   -2.3198 S.3     1  LIG1       -0.1420
     12 H           0.7771    2.6311   -3.0388 H       1  LIG1        0.1071
     13 C           4.0410    0.0732    0.1093 C.ar    1  LIG1       -0.0534
     14 C           5.4295    0.0789    0.0740 C.ar    1  LIG1       -0.0524
     15 C           3.3431    1.2814    0.0857 C.ar    1  LIG1       -0.0158
     16 C           6.1446    1.2757    0.0065 C.ar    1  LIG1       -0.0047
     17 H           5.9810   -0.8524    0.1018 H       1  LIG1        0.0624
     18 C           4.0485    2.4827    0.0220 C.ar    1  LIG1       -0.0402
     19 C           5.4425    2.4876   -0.0334 C.ar    1  LIG1        0.0130
     20 H           3.4989    3.4164    0.0219 H       1  LIG1        0.0635
     21 H           3.4942   -0.8600    0.1483 H       1  LIG1        0.0624
     22 S           6.3616    4.0105   -0.1761 S.3     1  LIG1       -0.1420
     23 H           5.2976    4.7583   -0.4850 H       1  LIG1        0.1071
     24 C           8.3050    0.6221   -1.0884 C.ar    1  LIG1       -0.0534
     25 C           9.6936    0.5888   -1.0999 C.ar    1  LIG1       -0.0524
     26 C           7.6387    1.2398   -0.0303 C.ar    1  LIG1       -0.0158
     27 C          10.4412    1.1627   -0.0693 C.ar    1  LIG1       -0.0047
     28 H          10.2215    0.1299   -1.9264 H       1  LIG1        0.0624
     29 C           8.3744    1.8059    1.0109 C.ar    1  LIG1       -0.0402
     30 C           9.7687    1.7721    0.9995 C.ar    1  LIG1        0.0130
     31 H           7.8444    2.2586    1.8407 H       1  LIG1        0.0635
     32 H           7.7353    0.1909   -1.9014 H       1  LIG1        0.0624
     33 S          10.7229    2.4419    2.3501 S.3     1  LIG1       -0.1420
     34 H           9.6647    2.8738    3.0423 H       1  LIG1        0.1071
     35 C          12.5841   -0.1314   -0.1895 C.ar    1  LIG1       -0.0539
     36 C          13.9735   -0.1783   -0.2564 C.ar    1  LIG1       -0.0602
     37 C          11.9343    1.1014   -0.1243 C.ar    1  LIG1       -0.0158
     38 C          14.7199    0.9943   -0.2475 C.ar    1  LIG1       -0.0485
     39 H          14.4796   -1.1333   -0.3027 H       1  LIG1        0.0618
     40 C          12.6813    2.2809   -0.1348 C.ar    1  LIG1       -0.0408
     41 C          14.0723    2.2290   -0.1844 C.ar    1  LIG1        0.0053
     42 H          12.1646    3.2325   -0.1078 H       1  LIG1        0.0635
     43 H          15.8016    0.9532   -0.2835 H       1  LIG1        0.0628
     44 H          12.0006   -1.0430   -0.1730 H       1  LIG1        0.0624
     45 S          15.0788    3.7001   -0.1801 S.3     1  LIG1       -0.1426
     46 H          14.0838    4.5535    0.0807 H       1  LIG1        0.1071
@<TRIPOS>BOND
     1    12    11    1
     2    11     7    1
     3    28    25    1
     4    32    24    1
     5     8     6    1
     6    25    24   ar
     7    25    27   ar
     8    24    26   ar
     9     7     6   ar
    10     7     4   ar
    11     6     3   ar
    12    23    22    1
    13    39    36    1
    14    43    38    1
    15    36    38   ar
    16    36    35   ar
    17    38    41   ar
    18    35    44    1
    19    35    37   ar
    20    41    45    1
    21    41    40   ar
    22    45    46    1
    23    22    19    1
    24    40    37   ar
    25    40    42    1
    26    37    27    1
    27    27    30   ar
    28    19    16   ar
    29    19    18   ar
    30    26    16    1
    31    26    29   ar
    32    16    14   ar
    33    20    18    1
    34    18    15   ar
    35    14    17    1
    36    14    13   ar
    37    15    13   ar
    38    15     4    1
    39    13    21    1
    40     4     2   ar
    41     3     9    1
    42     3     1   ar
    43    30    29   ar
    44    30    33    1
    45    29    31    1
    46     2     1   ar
    47     2     5    1
    48     1    10    1
    49    33    34    1
