@<TRIPOS>MOLECULE
mol_data/opt/m06hf/geoms/mol2/4ah12ee4ii-13hd-.out
 52 55 0 0 0
SMALL
GASTEIGER

@<TRIPOS>ATOM
      1 C          -0.1099    0.0741   -0.5505 C.ar    1  LIG1       -0.0610
      2 C           1.2696    0.1670   -0.6382 C.ar    1  LIG1       -0.0493
      3 C          -0.7932    0.9735    0.2685 C.ar    1  LIG1       -0.0600
      4 C           1.9824    1.1339    0.0808 C.ar    1  LIG1        0.0391
      5 H           1.8233   -0.5127   -1.2727 H       1  LIG1        0.0625
      6 C          -0.1060    1.9409    0.9817 C.ar    1  LIG1       -0.0404
      7 C           1.2931    2.0450    0.9101 C.ar    1  LIG1        0.0354
      8 H          -0.6455    2.6328    1.6170 H       1  LIG1        0.0636
      9 H          -1.8715    0.9240    0.3494 H       1  LIG1        0.0618
     10 H          -0.6438   -0.6787   -1.1128 H       1  LIG1        0.0618
     11 N           1.9461    2.9818    1.6866 N.pl3   1  LIG1       -0.3574
     12 H           2.8645    3.2749    1.3950 H       1  LIG1        0.1423
     13 H           1.3714    3.7091    2.0811 H       1  LIG1        0.1423
     14 C           3.4469    1.1511   -0.0419 C.ar    1  LIG1        0.1540
     15 C           4.3697    0.1689   -0.2682 C.ar    1  LIG1        0.0864
     16 C           5.6608    0.8278   -0.3229 C.ar    1  LIG1        0.0864
     17 C           5.4243    2.1523   -0.1029 C.ar    1  LIG1        0.1525
     18 O           4.0903    2.3404    0.0503 O.2     1  LIG1       -0.4522
     19 C           4.1479   -1.2356   -0.4149 C.1     1  LIG1       -0.0646
     20 C           3.9816   -2.4187   -0.5412 C.1     1  LIG1       -0.1138
     21 H           3.8375   -3.4692   -0.6455 H       1  LIG1        0.1232
     22 C           6.9079    0.1950   -0.6208 C.1     1  LIG1       -0.0646
     23 C           7.9394   -0.3592   -0.8892 C.1     1  LIG1       -0.1138
     24 H           8.8501   -0.8544   -1.1347 H       1  LIG1        0.1232
     25 C           7.4454    3.4387    0.6862 C.ar    1  LIG1       -0.0391
     26 C           8.1508    4.6413    0.6511 C.ar    1  LIG1       -0.0487
     27 C           6.2634    3.3643   -0.0634 C.ar    1  LIG1        0.0217
     28 C           7.7179    5.7443   -0.0897 C.ar    1  LIG1        0.0033
     29 H           9.0600    4.7421    1.2343 H       1  LIG1        0.0627
     30 C           5.8197    4.4698   -0.7977 C.ar    1  LIG1       -0.0472
     31 C           6.5293    5.6636   -0.8365 C.ar    1  LIG1       -0.0406
     32 H           4.9055    4.3749   -1.3724 H       1  LIG1        0.0627
     33 C           7.9479    2.3018    1.5549 C.3     1  LIG1       -0.0390
     34 H           8.5319    2.7069    2.3806 H       1  LIG1        0.0278
     35 H           8.5746    1.6251    0.9738 H       1  LIG1        0.0278
     36 H           7.1138    1.7248    1.9547 H       1  LIG1        0.0278
     37 C           6.0318    6.8103   -1.7002 C.3     1  LIG1       -0.0391
     38 H           5.4118    6.4198   -2.5063 H       1  LIG1        0.0278
     39 H           6.8715    7.3555   -2.1323 H       1  LIG1        0.0278
     40 H           5.4196    7.5091   -1.1228 H       1  LIG1        0.0278
     41 C           8.5554    6.9591   -0.0618 C.ar    1  LIG1        0.0690
     42 C           9.9265    7.0682   -0.1599 C.ar    1  LIG1        0.0678
     43 C          10.2385    8.4579   -0.0366 C.ar    1  LIG1        0.0902
     44 C           9.0516    9.1423    0.1432 C.ar    1  LIG1        0.0215
     45 N           8.0569    8.2364    0.1179 N.ar    1  LIG1       -0.3580
     46 H           7.0844    8.4415    0.2821 H       1  LIG1        0.1654
     47 H           8.8759   10.1944    0.2825 H       1  LIG1        0.0820
     48 N          10.8529    6.0333   -0.3042 N.pl3   1  LIG1       -0.3553
     49 H          10.4976    5.2510   -0.8407 H       1  LIG1        0.1424
     50 H          11.7488    6.3495   -0.6548 H       1  LIG1        0.1424
     51 N          12.6230    9.4290   -0.1881 N.1     1  LIG1       -0.1908
     52 C          11.5526    9.0186   -0.1113 C.1     1  LIG1        0.1025
@<TRIPOS>BOND
     1    38    37    1
     2    39    37    1
     3    37    40    1
     4    37    31    1
     5    32    30    1
     6     5     2    1
     7    24    23    1
     8    10     1    1
     9    23    22    3
    10    49    48    1
    11    31    30   ar
    12    31    28   ar
    13    30    27   ar
    14    50    48    1
    15    21    20    1
    16     2     1   ar
    17     2     4   ar
    18    22    16    1
    19     1     3   ar
    20    20    19    3
    21    19    15    1
    22    16    15   ar
    23    16    17   ar
    24    48    42    1
    25    15    14   ar
    26    51    52    3
    27    42    41   ar
    28    42    43   ar
    29    52    43    1
    30    17    27    1
    31    17    18   ar
    32    28    41    1
    33    28    26   ar
    34    27    25   ar
    35    41    45   ar
    36    14    18   ar
    37    14     4    1
    38    43    44   ar
    39     4     7   ar
    40    45    44   ar
    41    45    46    1
    42    44    47    1
    43     3     9    1
    44     3     6   ar
    45    26    25   ar
    46    26    29    1
    47    25    33    1
    48     7     6   ar
    49     7    11    1
    50    35    33    1
    51     6     8    1
    52    12    11    1
    53    33    36    1
    54    33    34    1
    55    11    13    1
