@<TRIPOS>MOLECULE
mol_data/opt/m06hf/geoms/mol2/4ah12ha6ih-12ah.out
 46 49 0 0 0
SMALL
GASTEIGER

@<TRIPOS>ATOM
      1 C          -0.0362   -0.1882    0.6245 C.ar    1  LIG1       -0.0610
      2 C           1.3309    0.0452    0.6812 C.ar    1  LIG1       -0.0492
      3 C          -0.8350    0.6785   -0.1197 C.ar    1  LIG1       -0.0600
      4 C           1.9208    1.1102   -0.0100 C.ar    1  LIG1        0.0397
      5 H           1.9700   -0.5918    1.2826 H       1  LIG1        0.0625
      6 C          -0.2741    1.7589   -0.7836 C.ar    1  LIG1       -0.0404
      7 C           1.1073    1.9989   -0.7463 C.ar    1  LIG1        0.0354
      8 H          -0.9045    2.4413   -1.3408 H       1  LIG1        0.0636
      9 H          -1.9042    0.5196   -0.1758 H       1  LIG1        0.0618
     10 H          -0.4721   -1.0188    1.1617 H       1  LIG1        0.0618
     11 N           1.6290    3.1028   -1.3956 N.pl3   1  LIG1       -0.3574
     12 H           2.6305    3.1548   -1.4985 H       1  LIG1        0.1423
     13 H           1.0931    3.4649   -2.1680 H       1  LIG1        0.1423
     14 C           3.3819    1.2403    0.0251 C.ar    1  LIG1        0.1579
     15 C           4.3712    0.3011    0.1062 C.ar    1  LIG1        0.0716
     16 C           5.6113    1.0237    0.1499 C.ar    1  LIG1        0.0056
     17 C           5.2893    2.3444    0.0685 C.ar    1  LIG1        0.1393
     18 O           3.9505    2.4818   -0.0033 O.2     1  LIG1       -0.4528
     19 N           4.2267   -1.0921    0.1814 N.pl3   1  LIG1       -0.3550
     20 H           3.3743   -1.4146   -0.2636 H       1  LIG1        0.1424
     21 H           5.0273   -1.5815   -0.1977 H       1  LIG1        0.1424
     22 H           6.5989    0.6061    0.2577 H       1  LIG1        0.0674
     23 C           5.6822    4.8102    0.4806 C.ar    1  LIG1        0.0498
     24 C           6.1240    3.5537    0.0180 C.ar    1  LIG1        0.0401
     25 C           7.4076    3.4477   -0.5077 C.ar    1  LIG1       -0.0265
     26 C           8.2516    4.5544   -0.5452 C.ar    1  LIG1        0.0546
     27 C           7.7323    5.7576   -0.0352 C.ar    1  LIG1        0.1268
     28 N           6.4924    5.8610    0.4368 N.ar    1  LIG1       -0.2462
     29 H           7.7457    2.5014   -0.9140 H       1  LIG1        0.0644
     30 C           4.3071    5.0487    1.0744 C.3     1  LIG1       -0.0216
     31 H           4.1014    4.3286    1.8674 H       1  LIG1        0.0293
     32 H           3.5252    4.9442    0.3214 H       1  LIG1        0.0293
     33 H           4.3019    6.0590    1.4760 H       1  LIG1        0.0293
     34 N           9.5487    4.4673   -1.0491 N.pl3   1  LIG1       -0.3562
     35 H           9.7065    3.6659   -1.6449 H       1  LIG1        0.1424
     36 H           9.8812    5.3294   -1.4653 H       1  LIG1        0.1424
     37 C           8.5556    6.9823   -0.0025 C.ar    1  LIG1        0.1565
     38 C           9.8988    7.1888    0.1361 C.ar    1  LIG1        0.0065
     39 C          10.0815    8.6157    0.1470 C.ar    1  LIG1        0.0635
     40 C           8.8378    9.1444    0.0134 C.ar    1  LIG1        0.1132
     41 O           7.9133    8.1596   -0.0687 O.2     1  LIG1       -0.4595
     42 H           8.4746   10.1556   -0.0267 H       1  LIG1        0.1049
     43 H          10.6546    6.4351    0.2860 H       1  LIG1        0.0674
     44 N          11.3082    9.2754    0.3424 N.pl3   1  LIG1       -0.3555
     45 H          12.0449    8.9005   -0.2427 H       1  LIG1        0.1424
     46 H          11.2387   10.2767    0.2100 H       1  LIG1        0.1424
@<TRIPOS>BOND
     1    13    11    1
     2    35    34    1
     3    12    11    1
     4    36    34    1
     5    11     7    1
     6     8     6    1
     7    34    26    1
     8    29    25    1
     9     6     7   ar
    10     6     3   ar
    11     7     4   ar
    12    26    25   ar
    13    26    27   ar
    14    25    24   ar
    15    20    19    1
    16    45    44    1
    17    21    19    1
    18     9     3    1
    19     3     1   ar
    20    41    37   ar
    21    41    40   ar
    22    27    37    1
    23    27    28   ar
    24    42    40    1
    25     4    14    1
    26     4     2   ar
    27    18    14   ar
    28    18    17   ar
    29    37    38   ar
    30    40    39   ar
    31    24    17    1
    32    24    23   ar
    33    14    15   ar
    34    17    16   ar
    35    15    16   ar
    36    15    19    1
    37    38    39   ar
    38    38    43    1
    39    39    44    1
    40    16    22    1
    41    46    44    1
    42    32    30    1
    43    28    23   ar
    44    23    30    1
    45     1     2   ar
    46     1    10    1
    47     2     5    1
    48    30    33    1
    49    30    31    1
