@<TRIPOS>MOLECULE
mol_data/opt/m06hf/geoms/mol2/4ai.out
 15 15 0 0 0
SMALL
GASTEIGER

@<TRIPOS>ATOM
      1 C           0.0284   -0.0212   -0.0082 C.ar    1  LIG1       -0.0617
      2 C           1.4205   -0.0429   -0.0021 C.ar    1  LIG1       -0.0615
      3 C          -0.6395    1.2003   -0.0017 C.ar    1  LIG1       -0.0615
      4 C           2.1370    1.1507    0.0099 C.ar    1  LIG1       -0.0588
      5 H           1.9490   -0.9872   -0.0032 H       1  LIG1        0.0618
      6 C           0.0827    2.3905    0.0103 C.ar    1  LIG1       -0.0588
      7 C           1.4784    2.3813    0.0144 C.ar    1  LIG1       -0.0504
      8 H          -0.4426    3.3382    0.0186 H       1  LIG1        0.0620
      9 H           3.2203    1.1276    0.0179 H       1  LIG1        0.0620
     10 H          -1.7213    1.2279   -0.0025 H       1  LIG1        0.0618
     11 H          -0.5307   -0.9476   -0.0148 H       1  LIG1        0.0618
     12 C           2.2628    3.6810   -0.0042 C.3     1  LIG1       -0.0397
     13 H           1.7067    4.4728    0.4973 H       1  LIG1        0.0278
     14 H           2.4514    3.9936   -1.0333 H       1  LIG1        0.0278
     15 H           3.2226    3.5579    0.4972 H       1  LIG1        0.0278
@<TRIPOS>BOND
     1    14    12    1
     2    11     1    1
     3     1     2   ar
     4     1     3   ar
     5    12     7    1
     6    12    15    1
     7    12    13    1
     8     5     2    1
     9    10     3    1
    10     2     4   ar
    11     3     6   ar
    12     4     7   ar
    13     4     9    1
    14     6     7   ar
    15     6     8    1
