@<TRIPOS>MOLECULE
mol_data/opt/m06hf/geoms/mol2/4ai13eh-4il-12ff.out
 53 56 0 0 0
SMALL
GASTEIGER

@<TRIPOS>ATOM
      1 C          -0.2181    0.7939   -0.5743 C.ar    1  LIG1       -0.0611
      2 C           1.1523    0.8153   -0.7987 C.ar    1  LIG1       -0.0523
      3 C          -0.7260    1.2953    0.6208 C.ar    1  LIG1       -0.0615
      4 C           2.0240    1.3318    0.1645 C.ar    1  LIG1        0.0025
      5 H           1.5662    0.4339   -1.7235 H       1  LIG1        0.0624
      6 C           0.1419    1.7975    1.5844 C.ar    1  LIG1       -0.0582
      7 C           1.5226    1.8193    1.3822 C.ar    1  LIG1       -0.0413
      8 H          -0.2544    2.1662    2.5232 H       1  LIG1        0.0620
      9 H          -1.7920    1.2854    0.8079 H       1  LIG1        0.0618
     10 H          -0.8836    0.3921   -1.3270 H       1  LIG1        0.0618
     11 C           2.4323    2.3303    2.4881 C.3     1  LIG1       -0.0391
     12 H           1.9386    2.2086    3.4517 H       1  LIG1        0.0278
     13 H           2.6522    3.3940    2.3616 H       1  LIG1        0.0278
     14 H           3.3733    1.7801    2.5006 H       1  LIG1        0.0278
     15 C           3.4735    1.3216   -0.1339 C.ar    1  LIG1        0.0646
     16 C           4.2700    0.2984   -0.6329 C.ar    1  LIG1        0.0711
     17 C           5.6019    0.8053   -0.7451 C.ar    1  LIG1        0.0664
     18 C           5.5786    2.1135   -0.3143 C.ar    1  LIG1        0.0694
     19 N           4.2759    2.3993    0.0355 N.ar    1  LIG1       -0.3517
     20 H           3.9694    3.2978    0.3745 H       1  LIG1        0.1660
     21 C           3.8702   -1.0288   -0.9853 C.1     1  LIG1       -0.0657
     22 C           3.5778   -2.1509   -1.3073 C.1     1  LIG1       -0.1138
     23 H           3.3076   -3.1450   -1.5771 H       1  LIG1        0.1232
     24 N           6.7120    0.0780   -1.2001 N.pl3   1  LIG1       -0.3554
     25 H           6.4293   -0.7769   -1.6656 H       1  LIG1        0.1424
     26 H           7.3205    0.6308   -1.7936 H       1  LIG1        0.1424
     27 C           7.8308    2.9121    0.4600 C.ar    1  LIG1       -0.0404
     28 C           8.7987    3.9124    0.4658 C.ar    1  LIG1       -0.0439
     29 C           6.6447    3.1363   -0.2616 C.ar    1  LIG1        0.0065
     30 C           8.6195    5.1346   -0.1952 C.ar    1  LIG1        0.0629
     31 H           9.7163    3.7568    1.0198 H       1  LIG1        0.0629
     32 C           6.4550    4.3506   -0.9228 C.ar    1  LIG1       -0.0098
     33 C           7.4209    5.3487   -0.8878 C.ar    1  LIG1        0.1315
     34 H           5.5462    4.5386   -1.4829 H       1  LIG1        0.0661
     35 C           8.0336    1.6388    1.2596 C.3     1  LIG1       -0.0391
     36 H           8.9783    1.6879    1.8000 H       1  LIG1        0.0278
     37 H           8.0237    0.7614    0.6095 H       1  LIG1        0.0278
     38 H           7.2192    1.5260    1.9782 H       1  LIG1        0.0278
     39 O           7.1646    6.5372   -1.5216 O.3     1  LIG1       -0.4944
     40 C           7.5333    6.5465   -2.8988 C.3     1  LIG1        0.0788
     41 H           7.2903    7.5383   -3.2724 H       1  LIG1        0.0660
     42 H           8.6028    6.3598   -3.0030 H       1  LIG1        0.0660
     43 H           6.9651    5.7901   -3.4455 H       1  LIG1        0.0660
     44 C           9.6722    6.1524   -0.0917 C.ar    1  LIG1        0.1833
     45 C          10.6871    6.2946    0.8057 C.ar    1  LIG1        0.2052
     46 C          11.4163    7.4664    0.4204 C.ar    1  LIG1        0.1976
     47 C          10.8010    7.9546   -0.6819 C.ar    1  LIG1        0.1377
     48 O           9.7501    7.1652   -0.9951 O.2     1  LIG1       -0.4553
     49 H          10.9827    8.8066   -1.3120 H       1  LIG1        0.1069
     50 O          10.9889    5.5096    1.8702 O.3     1  LIG1       -0.5008
     51 H          11.7250    5.9129    2.3477 H       1  LIG1        0.2924
     52 O          12.4944    7.8745    1.1465 O.3     1  LIG1       -0.5012
     53 H          12.8273    8.7208    0.8317 H       1  LIG1        0.2924
@<TRIPOS>BOND
     1    43    40    1
     2    41    40    1
     3    42    40    1
     4    40    39    1
     5    26    24    1
     6     5     2    1
     7    25    24    1
     8    23    22    1
     9    39    33    1
    10    34    32    1
    11    10     1    1
    12    49    47    1
    13    22    21    3
    14    24    17    1
    15    48    47   ar
    16    48    44   ar
    17    21    16    1
    18    32    33   ar
    19    32    29   ar
    20    33    30   ar
    21     2     1   ar
    22     2     4   ar
    23    17    16   ar
    24    17    18   ar
    25    47    46   ar
    26    16    15   ar
    27     1     3   ar
    28    18    29    1
    29    18    19   ar
    30    29    27   ar
    31    30    44    1
    32    30    28   ar
    33    15    19   ar
    34    15     4    1
    35    44    45   ar
    36    19    20    1
    37     4     7   ar
    38    46    45   ar
    39    46    52    1
    40    27    28   ar
    41    27    35    1
    42    28    31    1
    43    37    35    1
    44     3     9    1
    45     3     6   ar
    46    45    50    1
    47    53    52    1
    48    35    36    1
    49    35    38    1
    50     7     6   ar
    51     7    11    1
    52     6     8    1
    53    50    51    1
    54    13    11    1
    55    11    14    1
    56    11    12    1
