@<TRIPOS>MOLECULE
mol_data/opt/m06hf/geoms/mol2/4ai12ll6hi-6al-.out
 57 60 0 0 0
SMALL
GASTEIGER

@<TRIPOS>ATOM
      1 C          -0.2677   -0.0066   -1.2511 C.ar    1  LIG1       -0.0611
      2 C           1.0990    0.0983   -1.0280 C.ar    1  LIG1       -0.0507
      3 C          -1.1135    1.0089   -0.8156 C.ar    1  LIG1       -0.0615
      4 C           1.6249    1.2095   -0.3607 C.ar    1  LIG1        0.0240
      5 H           1.7762   -0.6753   -1.3659 H       1  LIG1        0.0625
      6 C          -0.5873    2.1085   -0.1443 C.ar    1  LIG1       -0.0582
      7 C           0.7795    2.2315    0.1066 C.ar    1  LIG1       -0.0397
      8 H          -1.2532    2.8870    0.2079 H       1  LIG1        0.0620
      9 H          -2.1798    0.9434   -0.9899 H       1  LIG1        0.0618
     10 H          -0.6667   -0.8694   -1.7676 H       1  LIG1        0.0618
     11 C           1.2939    3.4205    0.9013 C.3     1  LIG1       -0.0390
     12 H           0.4509    3.9596    1.3315 H       1  LIG1        0.0278
     13 H           1.8708    4.1064    0.2806 H       1  LIG1        0.0278
     14 H           1.9460    3.0838    1.7087 H       1  LIG1        0.0278
     15 C           3.0815    1.2517   -0.1593 C.ar    1  LIG1        0.1812
     16 C           4.0107    0.2697    0.0002 C.ar    1  LIG1        0.2085
     17 C           5.2876    0.9218    0.1224 C.ar    1  LIG1        0.2086
     18 C           5.0547    2.2606    0.0157 C.ar    1  LIG1        0.1842
     19 O           3.7199    2.4517   -0.1534 O.2     1  LIG1       -0.4471
     20 O           3.8030   -1.0738    0.0241 O.3     1  LIG1       -0.4884
     21 C           4.0644   -1.6508    1.3085 C.3     1  LIG1        0.0791
     22 H           3.9195   -2.7219    1.1958 H       1  LIG1        0.0660
     23 H           5.0899   -1.4321    1.6108 H       1  LIG1        0.0660
     24 H           3.3616   -1.2466    2.0387 H       1  LIG1        0.0660
     25 O           6.4820    0.2991    0.3160 O.3     1  LIG1       -0.4884
     26 C           6.8833   -0.4858   -0.8125 C.3     1  LIG1        0.0791
     27 H           7.8156   -0.9686   -0.5311 H       1  LIG1        0.0660
     28 H           6.1185   -1.2317   -1.0352 H       1  LIG1        0.0660
     29 H           7.0365    0.1651   -1.6745 H       1  LIG1        0.0660
     30 C           5.5974    4.6990   -0.4223 C.ar    1  LIG1        0.1277
     31 C           5.9515    3.4160    0.0686 C.ar    1  LIG1        0.0608
     32 C           7.2214    3.2740    0.6146 C.ar    1  LIG1       -0.0427
     33 C           8.1270    4.3334    0.6635 C.ar    1  LIG1       -0.0236
     34 C           7.6813    5.5463    0.1226 C.ar    1  LIG1        0.0776
     35 N           6.4581    5.7112   -0.3830 N.ar    1  LIG1       -0.2314
     36 H           7.4988    2.3082    1.0216 H       1  LIG1        0.0629
     37 N           4.3648    4.9833   -0.9393 N.pl3   1  LIG1       -0.3426
     38 H           4.3010    5.8670   -1.4199 H       1  LIG1        0.1437
     39 H           3.7597    4.2301   -1.2221 H       1  LIG1        0.1437
     40 C           9.4751    4.1379    1.3365 C.3     1  LIG1       -0.0377
     41 H           9.8217    5.0656    1.7911 H       1  LIG1        0.0278
     42 H          10.2324    3.7937    0.6275 H       1  LIG1        0.0278
     43 H           9.3789    3.3818    2.1159 H       1  LIG1        0.0278
     44 C           7.9586    8.0067    0.4039 C.ar    1  LIG1        0.0370
     45 C           8.5306    6.7760    0.0936 C.ar    1  LIG1        0.0222
     46 C           9.8801    6.7367   -0.2682 C.ar    1  LIG1       -0.0078
     47 C          10.5948    7.9280   -0.2773 C.ar    1  LIG1        0.1387
     48 C           9.9287    9.1108    0.0672 C.ar    1  LIG1        0.0692
     49 N           8.6470    9.1492    0.3939 N.ar    1  LIG1       -0.2590
     50 H          10.3341    5.7993   -0.5574 H       1  LIG1        0.0662
     51 H          10.4845   10.0406    0.0599 H       1  LIG1        0.0867
     52 H           6.9096    8.0583    0.6637 H       1  LIG1        0.0836
     53 O          11.9052    8.0485   -0.6039 O.3     1  LIG1       -0.4936
     54 C          12.6170    6.8619   -0.8962 C.3     1  LIG1        0.0789
     55 H          13.6438    7.1661   -1.0787 H       1  LIG1        0.0660
     56 H          12.5799    6.1717   -0.0481 H       1  LIG1        0.0660
     57 H          12.2124    6.3762   -1.7881 H       1  LIG1        0.0660
@<TRIPOS>BOND
     1    57    54    1
     2    10     1    1
     3    29    26    1
     4    38    37    1
     5     5     2    1
     6     1     2   ar
     7     1     3   ar
     8    39    37    1
     9    55    54    1
    10    28    26    1
    11     2     4   ar
    12     9     3    1
    13    37    30    1
    14    54    53    1
    15    54    56    1
    16     3     6   ar
    17    26    27    1
    18    26    25    1
    19    53    47    1
    20    50    46    1
    21    30    35   ar
    22    30    31   ar
    23    35    34   ar
    24     4    15    1
    25     4     7   ar
    26    47    46   ar
    27    47    48   ar
    28    46    45   ar
    29    15    19   ar
    30    15    16   ar
    31    19    18   ar
    32     6     7   ar
    33     6     8    1
    34    16    20    1
    35    16    17   ar
    36    18    31    1
    37    18    17   ar
    38    20    21    1
    39    51    48    1
    40    48    49   ar
    41    31    32   ar
    42    45    34    1
    43    45    44   ar
    44     7    11    1
    45    17    25    1
    46    34    33   ar
    47    13    11    1
    48    49    44   ar
    49    44    52    1
    50    32    33   ar
    51    32    36    1
    52    42    40    1
    53    33    40    1
    54    11    12    1
    55    11    14    1
    56    22    21    1
    57    21    23    1
    58    21    24    1
    59    40    41    1
    60    40    43    1
