@<TRIPOS>MOLECULE
mol_data/opt/m06hf/geoms/mol2/4ai13ah13eh-13id.out
 49 52 0 0 0
SMALL
GASTEIGER

@<TRIPOS>ATOM
      1 C           0.0507   -0.0707   -0.8332 C.ar    1  LIG1       -0.0611
      2 C           1.4166    0.0105   -0.5885 C.ar    1  LIG1       -0.0524
      3 C          -0.7705    1.0026   -0.5007 C.ar    1  LIG1       -0.0615
      4 C           1.9706    1.1543   -0.0075 C.ar    1  LIG1        0.0013
      5 H           2.0747   -0.8060   -0.8567 H       1  LIG1        0.0624
      6 C          -0.2219    2.1381    0.0877 C.ar    1  LIG1       -0.0582
      7 C           1.1454    2.2337    0.3494 C.ar    1  LIG1       -0.0413
      8 H          -0.8674    2.9630    0.3650 H       1  LIG1        0.0620
      9 H          -1.8350    0.9541   -0.6898 H       1  LIG1        0.0618
     10 H          -0.3670   -0.9604   -1.2852 H       1  LIG1        0.0618
     11 C           1.6979    3.4700    1.0404 C.3     1  LIG1       -0.0391
     12 H           0.9030    3.9660    1.5962 H       1  LIG1        0.0278
     13 H           2.0954    4.1851    0.3150 H       1  LIG1        0.0278
     14 H           2.4988    3.1953    1.7273 H       1  LIG1        0.0278
     15 C           3.4310    1.1885    0.2374 C.ar    1  LIG1        0.0490
     16 C           4.2486    0.2747    0.8672 C.ar    1  LIG1       -0.0150
     17 C           5.5856    0.7674    0.8001 C.ar    1  LIG1        0.0523
     18 C           5.5346    1.9708    0.1200 C.ar    1  LIG1        0.0855
     19 N           4.2109    2.2176   -0.1939 N.ar    1  LIG1       -0.3515
     20 H           3.9104    2.8995   -0.8730 H       1  LIG1        0.1660
     21 H           3.9176   -0.6227    1.3640 H       1  LIG1        0.0657
     22 N           6.7009    0.2000    1.4202 N.pl3   1  LIG1       -0.3563
     23 H           6.5773   -0.7839    1.6172 H       1  LIG1        0.1424
     24 H           7.5716    0.3663    0.9291 H       1  LIG1        0.1424
     25 C           6.5668    2.9489   -0.1811 C.ar    1  LIG1        0.0826
     26 C           7.8874    2.7914   -0.5781 C.ar    1  LIG1        0.0727
     27 C           8.4587    4.0997   -0.7067 C.ar    1  LIG1        0.0679
     28 C           7.4706    5.0041   -0.3994 C.ar    1  LIG1        0.0858
     29 N           6.3240    4.2836   -0.0937 N.ar    1  LIG1       -0.3494
     30 H           5.5297    4.6676    0.3957 H       1  LIG1        0.1661
     31 C           8.5551    1.5663   -0.8821 C.1     1  LIG1       -0.0656
     32 C           9.1406    0.5452   -1.1408 C.1     1  LIG1       -0.1138
     33 H           9.6524   -0.3566   -1.3864 H       1  LIG1        0.1232
     34 N           9.7786    4.3722   -1.0577 N.pl3   1  LIG1       -0.3553
     35 H          10.2027    3.6341   -1.6054 H       1  LIG1        0.1424
     36 H           9.9021    5.2844   -1.4802 H       1  LIG1        0.1424
     37 C           7.5223    6.4633   -0.3989 C.ar    1  LIG1        0.0689
     38 C           8.4279    7.3156    0.1911 C.ar    1  LIG1       -0.0064
     39 C           8.0103    8.6374   -0.1643 C.ar    1  LIG1        0.0725
     40 C           6.8747    8.5426   -0.9396 C.ar    1  LIG1        0.0199
     41 N           6.5931    7.2262   -1.0753 N.ar    1  LIG1       -0.3581
     42 H           5.8591    6.8391   -1.6474 H       1  LIG1        0.1654
     43 H           6.2739    9.3144   -1.3881 H       1  LIG1        0.0820
     44 C           9.5989    6.9416    1.0624 C.3     1  LIG1       -0.0364
     45 H           9.5379    7.4710    2.0138 H       1  LIG1        0.0279
     46 H          10.5379    7.2162    0.5790 H       1  LIG1        0.0279
     47 H           9.5975    5.8667    1.2397 H       1  LIG1        0.0279
     48 N           9.1729   10.8242    0.5694 N.1     1  LIG1       -0.1908
     49 C           8.6496    9.8574    0.2372 C.1     1  LIG1        0.1009
@<TRIPOS>BOND
     1    42    41    1
     2    35    34    1
     3    36    34    1
     4    43    40    1
     5    33    32    1
     6    10     1    1
     7    32    31    3
     8    41    40   ar
     9    41    37   ar
    10    34    27    1
    11    40    39   ar
    12    31    26    1
    13    20    19    1
    14     5     2    1
    15     1     2   ar
    16     1     3   ar
    17    27    26   ar
    18    27    28   ar
    19     9     3    1
    20     2     4   ar
    21    26    25   ar
    22     3     6   ar
    23    28    37    1
    24    28    29   ar
    25    37    38   ar
    26    19    18   ar
    27    19    15   ar
    28    25    29   ar
    29    25    18    1
    30    39    38   ar
    31    39    49    1
    32    29    30    1
    33     4    15    1
    34     4     7   ar
    35     6     7   ar
    36     6     8    1
    37    18    17   ar
    38    38    44    1
    39    49    48    3
    40    15    16   ar
    41    13    11    1
    42     7    11    1
    43    46    44    1
    44    17    16   ar
    45    17    22    1
    46    16    21    1
    47    24    22    1
    48    11    12    1
    49    11    14    1
    50    44    47    1
    51    44    45    1
    52    22    23    1
