@<TRIPOS>MOLECULE
mol_data/opt/m06hf/geoms/mol2/4ai4ai-4ai-4ai-.out
 54 57 0 0 0
SMALL
GASTEIGER

@<TRIPOS>ATOM
      1 C          -0.2515    0.1053   -0.7018 C.ar    1  LIG1       -0.0612
      2 C           1.1331    0.0730   -0.5775 C.ar    1  LIG1       -0.0538
      3 C          -0.9179    1.3228   -0.6071 C.ar    1  LIG1       -0.0615
      4 C           1.8629    1.2455   -0.3660 C.ar    1  LIG1       -0.0150
      5 H           1.6682   -0.8657   -0.6558 H       1  LIG1        0.0624
      6 C          -0.1948    2.4907   -0.3847 C.ar    1  LIG1       -0.0583
      7 C           1.1956    2.4756   -0.2618 C.ar    1  LIG1       -0.0427
      8 H          -0.7183    3.4356   -0.2956 H       1  LIG1        0.0620
      9 H          -1.9957    1.3641   -0.7000 H       1  LIG1        0.0618
     10 H          -0.8029   -0.8102   -0.8718 H       1  LIG1        0.0618
     11 C           1.9459    3.7705    0.0027 C.3     1  LIG1       -0.0391
     12 H           1.2712    4.5052    0.4420 H       1  LIG1        0.0278
     13 H           2.3460    4.1849   -0.9248 H       1  LIG1        0.0278
     14 H           2.7797    3.5988    0.6833 H       1  LIG1        0.0278
     15 C           4.1992    1.7769   -1.1516 C.ar    1  LIG1       -0.0534
     16 C           5.5756    1.6512   -1.0184 C.ar    1  LIG1       -0.0532
     17 C           3.3512    1.1509   -0.2360 C.ar    1  LIG1       -0.0173
     18 C           6.1366    0.9021    0.0217 C.ar    1  LIG1       -0.0149
     19 H           6.2361    2.1172   -1.7395 H       1  LIG1        0.0624
     20 C           3.9146    0.4142    0.8061 C.ar    1  LIG1       -0.0505
     21 C           5.2963    0.2790    0.9564 C.ar    1  LIG1       -0.0422
     22 H           3.2544   -0.0503    1.5305 H       1  LIG1        0.0626
     23 H           3.7776    2.3382   -1.9761 H       1  LIG1        0.0624
     24 C           5.8392   -0.5086    2.1382 C.3     1  LIG1       -0.0391
     25 H           6.8032   -0.1140    2.4569 H       1  LIG1        0.0278
     26 H           5.9703   -1.5607    1.8761 H       1  LIG1        0.0278
     27 H           5.1364   -0.4516    2.9694 H       1  LIG1        0.0278
     28 C           8.4120    1.9483    0.1838 C.ar    1  LIG1       -0.0534
     29 C           9.7968    1.8414    0.2364 C.ar    1  LIG1       -0.0532
     30 C           7.6268    0.7973    0.1043 C.ar    1  LIG1       -0.0173
     31 C          10.4256    0.5942    0.2051 C.ar    1  LIG1       -0.0149
     32 H          10.4095    2.7327    0.2936 H       1  LIG1        0.0624
     33 C           8.2598   -0.4470    0.0800 C.ar    1  LIG1       -0.0505
     34 C           9.6480   -0.5726    0.1313 C.ar    1  LIG1       -0.0422
     35 H           7.6512   -1.3419    0.0110 H       1  LIG1        0.0626
     36 H           7.9351    2.9203    0.2151 H       1  LIG1        0.0624
     37 C          10.2739   -1.9579    0.1252 C.3     1  LIG1       -0.0391
     38 H          11.1764   -1.9746    0.7358 H       1  LIG1        0.0278
     39 H          10.5443   -2.2580   -0.8892 H       1  LIG1        0.0278
     40 H           9.5631   -2.6852    0.5170 H       1  LIG1        0.0278
     41 C          12.5894    1.0925    1.3648 C.ar    1  LIG1       -0.0540
     42 C          13.9808    1.0570    1.4208 C.ar    1  LIG1       -0.0609
     43 C          11.9201    0.5419    0.2712 C.ar    1  LIG1       -0.0174
     44 C          14.7066    0.4742    0.3883 C.ar    1  LIG1       -0.0588
     45 H          14.4967    1.4775    2.2743 H       1  LIG1        0.0618
     46 C          12.6633   -0.0364   -0.7619 C.ar    1  LIG1       -0.0511
     47 C          14.0552   -0.0767   -0.7185 C.ar    1  LIG1       -0.0499
     48 H          12.1416   -0.4449   -1.6202 H       1  LIG1        0.0626
     49 H          15.7892    0.4467    0.4373 H       1  LIG1        0.0620
     50 H          12.0163    1.5326    2.1714 H       1  LIG1        0.0624
     51 C          14.8557   -0.6793   -1.8595 C.3     1  LIG1       -0.0397
     52 H          15.6782   -1.2809   -1.4714 H       1  LIG1        0.0278
     53 H          15.2748    0.1119   -2.4842 H       1  LIG1        0.0278
     54 H          14.2233   -1.3119   -2.4817 H       1  LIG1        0.0278
@<TRIPOS>BOND
     1    53    51    1
     2    54    51    1
     3    23    15    1
     4    51    52    1
     5    51    47    1
     6    19    16    1
     7    48    46    1
     8    15    16   ar
     9    15    17   ar
    10    16    18   ar
    11    13    11    1
    12    39    37    1
    13    10     1    1
    14    46    47   ar
    15    46    43   ar
    16    47    44   ar
    17     1     3   ar
    18     1     2   ar
    19     9     3    1
    20     5     2    1
    21     3     6   ar
    22     2     4   ar
    23     6     8    1
    24     6     7   ar
    25     4     7   ar
    26     4    17    1
    27     7    11    1
    28    17    20   ar
    29    11    12    1
    30    11    14    1
    31    35    33    1
    32    18    30    1
    33    18    21   ar
    34    33    30   ar
    35    33    34   ar
    36    30    28   ar
    37    37    34    1
    38    37    40    1
    39    37    38    1
    40    34    31   ar
    41    28    36    1
    42    28    29   ar
    43    31    29   ar
    44    31    43    1
    45    29    32    1
    46    43    41   ar
    47    44    49    1
    48    44    42   ar
    49    20    21   ar
    50    20    22    1
    51    21    24    1
    52    41    42   ar
    53    41    50    1
    54    42    45    1
    55    26    24    1
    56    24    25    1
    57    24    27    1
