@<TRIPOS>MOLECULE
mol_data/opt/m06hf/geoms/mol2/4ai4ai4ai4ai.out
 54 57 0 0 0
SMALL
GASTEIGER

@<TRIPOS>ATOM
      1 C           0.0471    1.3734   -2.1287 C.ar    1  LIG1       -0.0612
      2 C           1.4133    1.4052   -1.8723 C.ar    1  LIG1       -0.0538
      3 C          -0.8485    1.3665   -1.0636 C.ar    1  LIG1       -0.0615
      4 C           1.8979    1.4356   -0.5617 C.ar    1  LIG1       -0.0150
      5 H           2.1236    1.4210   -2.6900 H       1  LIG1        0.0624
      6 C          -0.3689    1.3828    0.2422 C.ar    1  LIG1       -0.0583
      7 C           0.9998    1.4172    0.5164 C.ar    1  LIG1       -0.0427
      8 H          -1.0683    1.3591    1.0699 H       1  LIG1        0.0620
      9 H          -1.9147    1.3402   -1.2479 H       1  LIG1        0.0618
     10 H          -0.3137    1.3564   -3.1487 H       1  LIG1        0.0618
     11 C           1.4788    1.4099    1.9587 C.3     1  LIG1       -0.0391
     12 H           0.7257    0.9454    2.5953 H       1  LIG1        0.0278
     13 H           1.6477    2.4274    2.3170 H       1  LIG1        0.0278
     14 H           2.4143    0.8589    2.0507 H       1  LIG1        0.0278
     15 C           4.1841    0.4342   -0.8149 C.ar    1  LIG1       -0.0534
     16 C           5.5616    0.4878   -0.6338 C.ar    1  LIG1       -0.0532
     17 C           3.3792    1.4735   -0.3475 C.ar    1  LIG1       -0.0173
     18 C           6.1609    1.5751    0.0049 C.ar    1  LIG1       -0.0149
     19 H           6.1910   -0.3140   -1.0001 H       1  LIG1        0.0624
     20 C           3.9824    2.5524    0.3015 C.ar    1  LIG1       -0.0505
     21 C           5.3627    2.6237    0.4885 C.ar    1  LIG1       -0.0422
     22 H           3.3572    3.3622    0.6614 H       1  LIG1        0.0626
     23 H           3.7270   -0.4134   -1.3103 H       1  LIG1        0.0624
     24 C           5.9650    3.8142    1.2160 C.3     1  LIG1       -0.0391
     25 H           5.2090    4.2847    1.8442 H       1  LIG1        0.0278
     26 H           6.3324    4.5588    0.5072 H       1  LIG1        0.0278
     27 H           6.8024    3.4983    1.8382 H       1  LIG1        0.0278
     28 C           8.2922    0.5984    0.9039 C.ar    1  LIG1       -0.0534
     29 C           9.6787    0.6020    1.0123 C.ar    1  LIG1       -0.0532
     30 C           7.6501    1.5873    0.1582 C.ar    1  LIG1       -0.0173
     31 C          10.4468    1.5789    0.3762 C.ar    1  LIG1       -0.0149
     32 H          10.1821   -0.1674    1.5847 H       1  LIG1        0.0624
     33 C           8.4219    2.5701   -0.4639 C.ar    1  LIG1       -0.0505
     34 C           9.8130    2.5857   -0.3690 C.ar    1  LIG1       -0.0422
     35 H           7.9232    3.3362   -1.0474 H       1  LIG1        0.0626
     36 H           7.7039   -0.1646    1.3984 H       1  LIG1        0.0624
     37 C          10.6016    3.6878   -1.0565 C.3     1  LIG1       -0.0391
     38 H           9.9673    4.5627   -1.1982 H       1  LIG1        0.0278
     39 H          10.9554    3.3591   -2.0357 H       1  LIG1        0.0278
     40 H          11.4700    3.9674   -0.4602 H       1  LIG1        0.0278
     41 C          12.5367    1.6737    1.7624 C.ar    1  LIG1       -0.0540
     42 C          13.9238    1.6215    1.8798 C.ar    1  LIG1       -0.0609
     43 C          11.9374    1.5312    0.5107 C.ar    1  LIG1       -0.0174
     44 C          14.7136    1.4239    0.7523 C.ar    1  LIG1       -0.0588
     45 H          14.3879    1.7407    2.8503 H       1  LIG1        0.0618
     46 C          12.7435    1.3282   -0.6134 C.ar    1  LIG1       -0.0511
     47 C          14.1316    1.2701   -0.5083 C.ar    1  LIG1       -0.0499
     48 H          12.2719    1.1997   -1.5814 H       1  LIG1        0.0626
     49 H          15.7927    1.3860    0.8488 H       1  LIG1        0.0620
     50 H          11.9151    1.8383    2.6338 H       1  LIG1        0.0624
     51 C          14.9957    1.0129   -1.7304 C.3     1  LIG1       -0.0397
     52 H          14.4608    1.2761   -2.6425 H       1  LIG1        0.0278
     53 H          15.2679   -0.0431   -1.7826 H       1  LIG1        0.0278
     54 H          15.9125    1.6009   -1.6801 H       1  LIG1        0.0278
@<TRIPOS>BOND
     1    10     1    1
     2     5     2    1
     3    52    51    1
     4     1     2   ar
     5     1     3   ar
     6    39    37    1
     7     2     4   ar
     8    53    51    1
     9    51    54    1
    10    51    47    1
    11    48    46    1
    12    23    15    1
    13     9     3    1
    14    38    37    1
    15     3     6   ar
    16    37    40    1
    17    37    34    1
    18    35    33    1
    19    19    16    1
    20    15    16   ar
    21    15    17   ar
    22    16    18   ar
    23    46    47   ar
    24    46    43   ar
    25     4    17    1
    26     4     7   ar
    27    47    44   ar
    28    33    34   ar
    29    33    30   ar
    30    34    31   ar
    31    17    20   ar
    32    18    30    1
    33    18    21   ar
    34    30    28   ar
    35     6     7   ar
    36     6     8    1
    37    20    21   ar
    38    20    22    1
    39    31    43    1
    40    31    29   ar
    41    21    24    1
    42    26    24    1
    43    43    41   ar
    44     7    11    1
    45    44    49    1
    46    44    42   ar
    47    28    29   ar
    48    28    36    1
    49    29    32    1
    50    24    27    1
    51    24    25    1
    52    41    42   ar
    53    41    50    1
    54    42    45    1
    55    11    14    1
    56    11    13    1
    57    11    12    1
