@<TRIPOS>MOLECULE
mol_data/opt/m06hf/geoms/mol2/4ai4ai-4ai4ai.out
 54 57 0 0 0
SMALL
GASTEIGER

@<TRIPOS>ATOM
      1 C          -0.1880    0.1477   -1.0879 C.ar    1  LIG1       -0.0612
      2 C           1.1978    0.1673   -0.9806 C.ar    1  LIG1       -0.0538
      3 C          -0.9276    1.2150   -0.5882 C.ar    1  LIG1       -0.0615
      4 C           1.8597    1.2433   -0.3814 C.ar    1  LIG1       -0.0150
      5 H           1.7875   -0.6506   -1.3764 H       1  LIG1        0.0624
      6 C          -0.2737    2.2827    0.0178 C.ar    1  LIG1       -0.0583
      7 C           1.1175    2.3175    0.1343 C.ar    1  LIG1       -0.0427
      8 H          -0.8525    3.1053    0.4215 H       1  LIG1        0.0620
      9 H          -2.0074    1.2150   -0.6640 H       1  LIG1        0.0618
     10 H          -0.6833   -0.6912   -1.5588 H       1  LIG1        0.0618
     11 C           1.7770    3.4945    0.8354 C.3     1  LIG1       -0.0391
     12 H           1.0775    3.9380    1.5440 H       1  LIG1        0.0278
     13 H           2.0664    4.2643    0.1168 H       1  LIG1        0.0278
     14 H           2.6710    3.1746    1.3695 H       1  LIG1        0.0278
     15 C           4.1436    2.2140   -0.8386 C.ar    1  LIG1       -0.0534
     16 C           5.5277    2.1325   -0.7596 C.ar    1  LIG1       -0.0532
     17 C           3.3530    1.2004   -0.2934 C.ar    1  LIG1       -0.0173
     18 C           6.1538    1.0427   -0.1470 C.ar    1  LIG1       -0.0149
     19 H           6.1437    2.9096   -1.1957 H       1  LIG1        0.0624
     20 C           3.9828    0.1197    0.3258 C.ar    1  LIG1       -0.0505
     21 C           5.3723    0.0197    0.4110 C.ar    1  LIG1       -0.0422
     22 H           3.3680   -0.6544    0.7726 H       1  LIG1        0.0626
     23 H           3.6738    3.0504   -1.3405 H       1  LIG1        0.0624
     24 C           5.9909   -1.1691    1.1285 C.3     1  LIG1       -0.0391
     25 H           6.9168   -0.8805    1.6248 H       1  LIG1        0.0278
     26 H           6.2175   -1.9729    0.4248 H       1  LIG1        0.0278
     27 H           5.2918   -1.5539    1.8708 H       1  LIG1        0.0278
     28 C           8.3706   -0.0395   -0.6665 C.ar    1  LIG1       -0.0534
     29 C           9.7580   -0.0341   -0.6173 C.ar    1  LIG1       -0.0532
     30 C           7.6488    1.0097   -0.0935 C.ar    1  LIG1       -0.0173
     31 C          10.4567    1.0103   -0.0026 C.ar    1  LIG1       -0.0149
     32 H          10.3206   -0.8372   -1.0780 H       1  LIG1        0.0624
     33 C           8.3492    2.0460    0.5247 C.ar    1  LIG1       -0.0505
     34 C           9.7438    2.0665    0.5853 C.ar    1  LIG1       -0.0422
     35 H           7.7872    2.8474    0.9923 H       1  LIG1        0.0626
     36 H           7.8443   -0.8432   -1.1665 H       1  LIG1        0.0624
     37 C          10.4371    3.2069    1.3143 C.3     1  LIG1       -0.0391
     38 H           9.7805    3.5964    2.0922 H       1  LIG1        0.0278
     39 H          10.6715    4.0228    0.6272 H       1  LIG1        0.0278
     40 H          11.3667    2.8657    1.7686 H       1  LIG1        0.0278
     41 C          12.6004   -0.1545    0.5669 C.ar    1  LIG1       -0.0540
     42 C          13.9912   -0.2154    0.5756 C.ar    1  LIG1       -0.0609
     43 C          11.9520    0.9548    0.0212 C.ar    1  LIG1       -0.0174
     44 C          14.7398    0.8275    0.0404 C.ar    1  LIG1       -0.0588
     45 H          14.4903   -1.0734    1.0069 H       1  LIG1        0.0618
     46 C          12.7174    1.9918   -0.5185 C.ar    1  LIG1       -0.0511
     47 C          14.1104    1.9429   -0.5162 C.ar    1  LIG1       -0.0499
     48 H          12.2129    2.8434   -0.9614 H       1  LIG1        0.0626
     49 H          15.8225    0.7775    0.0530 H       1  LIG1        0.0620
     50 H          12.0117   -0.9559    0.9961 H       1  LIG1        0.0624
     51 C          14.9277    3.0609   -1.1391 C.3     1  LIG1       -0.0397
     52 H          14.3680    3.9959   -1.1343 H       1  LIG1        0.0278
     53 H          15.1764    2.8132   -2.1729 H       1  LIG1        0.0278
     54 H          15.8569    3.2075   -0.5886 H       1  LIG1        0.0278
@<TRIPOS>BOND
     1    53    51    1
     2    10     1    1
     3     5     2    1
     4    23    15    1
     5    19    16    1
     6    36    28    1
     7    51    52    1
     8    51    54    1
     9    51    47    1
    10     1     2   ar
    11     1     3   ar
    12    32    29    1
    13     2     4   ar
    14    48    46    1
    15    15    16   ar
    16    15    17   ar
    17    16    18   ar
    18    28    29   ar
    19    28    30   ar
    20     9     3    1
    21    29    31   ar
    22     3     6   ar
    23    46    47   ar
    24    46    43   ar
    25    47    44   ar
    26     4    17    1
    27     4     7   ar
    28    17    20   ar
    29    18    30    1
    30    18    21   ar
    31    30    33   ar
    32    31    43    1
    33    31    34   ar
    34     6     7   ar
    35     6     8    1
    36    43    41   ar
    37    44    49    1
    38    44    42   ar
    39    13    11    1
    40     7    11    1
    41    20    21   ar
    42    20    22    1
    43    21    24    1
    44    26    24    1
    45    33    34   ar
    46    33    35    1
    47    41    42   ar
    48    41    50    1
    49    42    45    1
    50    34    37    1
    51    39    37    1
    52    11    14    1
    53    11    12    1
    54    24    25    1
    55    24    27    1
    56    37    40    1
    57    37    38    1
