@<TRIPOS>MOLECULE
mol_data/opt/m06hf/geoms/mol2/4ai4ai-4ai-4ai.out
 54 57 0 0 0
SMALL
GASTEIGER

@<TRIPOS>ATOM
      1 C          -0.2602   -0.1104   -0.1635 C.ar    1  LIG1       -0.0612
      2 C           1.1305   -0.0916   -0.1765 C.ar    1  LIG1       -0.0538
      3 C          -0.9603    1.0920   -0.1474 C.ar    1  LIG1       -0.0615
      4 C           1.8317    1.1167   -0.1790 C.ar    1  LIG1       -0.0150
      5 H           1.6902   -1.0188   -0.1982 H       1  LIG1        0.0624
      6 C          -0.2646    2.2968   -0.1360 C.ar    1  LIG1       -0.0583
      7 C           1.1309    2.3328   -0.1509 C.ar    1  LIG1       -0.0427
      8 H          -0.8124    3.2314   -0.1057 H       1  LIG1        0.0620
      9 H          -2.0427    1.0934   -0.1355 H       1  LIG1        0.0618
     10 H          -0.7902   -1.0537   -0.1677 H       1  LIG1        0.0618
     11 C           1.8510    3.6703   -0.1122 C.3     1  LIG1       -0.0391
     12 H           1.1997    4.4274    0.3244 H       1  LIG1        0.0278
     13 H           2.1248    3.9947   -1.1182 H       1  LIG1        0.0278
     14 H           2.7631    3.5990    0.4798 H       1  LIG1        0.0278
     15 C           4.0475    1.6313   -1.2607 C.ar    1  LIG1       -0.0534
     16 C           5.4357    1.5813   -1.2577 C.ar    1  LIG1       -0.0532
     17 C           3.3286    1.0833   -0.1970 C.ar    1  LIG1       -0.0173
     18 C           6.1322    0.9821   -0.2049 C.ar    1  LIG1       -0.0149
     19 H           5.9975    1.9935   -2.0871 H       1  LIG1        0.0624
     20 C           4.0288    0.4919    0.8549 C.ar    1  LIG1       -0.0505
     21 C           5.4233    0.4313    0.8727 C.ar    1  LIG1       -0.0422
     22 H           3.4685    0.0869    1.6906 H       1  LIG1        0.0626
     23 H           3.5177    2.0771   -2.0934 H       1  LIG1        0.0624
     24 C           6.1334   -0.1984    2.0594 C.3     1  LIG1       -0.0391
     25 H           7.0620    0.3296    2.2749 H       1  LIG1        0.0278
     26 H           6.3778   -1.2430    1.8559 H       1  LIG1        0.0278
     27 H           5.4886   -0.1626    2.9373 H       1  LIG1        0.0278
     28 C           8.3522    2.1500   -0.2473 C.ar    1  LIG1       -0.0534
     29 C           9.7416    2.1183   -0.3012 C.ar    1  LIG1       -0.0532
     30 C           7.6285    0.9574   -0.2505 C.ar    1  LIG1       -0.0173
     31 C          10.4297    0.9054   -0.3693 C.ar    1  LIG1       -0.0149
     32 H          10.3085    3.0412   -0.3016 H       1  LIG1        0.0624
     33 C           8.3218   -0.2533   -0.3085 C.ar    1  LIG1       -0.0505
     34 C           9.7142   -0.3025   -0.3684 C.ar    1  LIG1       -0.0422
     35 H           7.7582   -1.1796   -0.3147 H       1  LIG1        0.0626
     36 H           7.8254    3.0945   -0.1930 H       1  LIG1        0.0624
     37 C          10.4218   -1.6465   -0.4151 C.3     1  LIG1       -0.0391
     38 H          11.3382   -1.6166    0.1744 H       1  LIG1        0.0278
     39 H          10.6887   -1.9098   -1.4404 H       1  LIG1        0.0278
     40 H           9.7673   -2.4240   -0.0218 H       1  LIG1        0.0278
     41 C          12.6005    0.4437   -1.5549 C.ar    1  LIG1       -0.0540
     42 C          13.9908    0.4736   -1.5967 C.ar    1  LIG1       -0.0609
     43 C          11.9259    0.9227   -0.4304 C.ar    1  LIG1       -0.0174
     44 C          14.7127    0.9800   -0.5197 C.ar    1  LIG1       -0.0588
     45 H          14.5120    0.1041   -2.4704 H       1  LIG1        0.0618
     46 C          12.6622    1.4337    0.6404 C.ar    1  LIG1       -0.0511
     47 C          14.0565    1.4697    0.6103 C.ar    1  LIG1       -0.0499
     48 H          12.1324    1.7978    1.5139 H       1  LIG1        0.0626
     49 H          15.7959    0.9980   -0.5565 H       1  LIG1        0.0620
     50 H          12.0331    0.0637   -2.3956 H       1  LIG1        0.0624
     51 C          14.8434    2.0513    1.7717 C.3     1  LIG1       -0.0397
     52 H          14.2639    1.9993    2.6930 H       1  LIG1        0.0278
     53 H          15.0857    3.0974    1.5746 H       1  LIG1        0.0278
     54 H          15.7756    1.5046    1.9141 H       1  LIG1        0.0278
@<TRIPOS>BOND
     1    45    42    1
     2    50    41    1
     3    23    15    1
     4    19    16    1
     5    42    41   ar
     6    42    44   ar
     7    41    43   ar
     8    39    37    1
     9    15    16   ar
    10    15    17   ar
    11    16    18   ar
    12    13    11    1
    13    49    44    1
    14    44    47   ar
    15    43    31    1
    16    43    46   ar
    17    37    34    1
    18    37    40    1
    19    37    38    1
    20    31    34   ar
    21    31    29   ar
    22    34    33   ar
    23    35    33    1
    24    33    30   ar
    25    32    29    1
    26    29    28   ar
    27    30    28   ar
    28    30    18    1
    29    28    36    1
    30    18    21   ar
    31     5     2    1
    32    17     4    1
    33    17    20   ar
    34     4     2   ar
    35     4     7   ar
    36     2     1   ar
    37    10     1    1
    38     1     3   ar
    39     7     6   ar
    40     7    11    1
    41     3     6   ar
    42     3     9    1
    43     6     8    1
    44    11    12    1
    45    11    14    1
    46    47    46   ar
    47    47    51    1
    48    46    48    1
    49    20    21   ar
    50    20    22    1
    51    21    24    1
    52    53    51    1
    53    51    54    1
    54    51    52    1
    55    26    24    1
    56    24    25    1
    57    24    27    1
