@<TRIPOS>MOLECULE
mol_data/opt/m06hf/geoms/mol2/4ai4ai-4ai.out
 41 43 0 0 0
SMALL
GASTEIGER

@<TRIPOS>ATOM
      1 C          -0.1559    0.0707   -0.6483 C.ar    1  LIG1       -0.0612
      2 C           1.2344    0.0765   -0.6400 C.ar    1  LIG1       -0.0538
      3 C          -0.8465    1.2141   -0.2580 C.ar    1  LIG1       -0.0615
      4 C           1.9478    1.2135   -0.2496 C.ar    1  LIG1       -0.0150
      5 H           1.7857   -0.8018   -0.9531 H       1  LIG1        0.0624
      6 C          -0.1403    2.3435    0.1428 C.ar    1  LIG1       -0.0583
      7 C           1.2559    2.3661    0.1561 C.ar    1  LIG1       -0.0427
      8 H          -0.6802    3.2272    0.4624 H       1  LIG1        0.0620
      9 H          -1.9289    1.2256   -0.2582 H       1  LIG1        0.0618
     10 H          -0.6926   -0.8158   -0.9588 H       1  LIG1        0.0618
     11 C           1.9783    3.6174    0.6287 C.3     1  LIG1       -0.0391
     12 H           1.3423    4.1684    1.3216 H       1  LIG1        0.0278
     13 H           2.2117    4.2726   -0.2131 H       1  LIG1        0.0278
     14 H           2.9114    3.3598    1.1285 H       1  LIG1        0.0278
     15 C           4.1933    2.0551   -1.0271 C.ar    1  LIG1       -0.0534
     16 C           5.5802    1.9699   -1.0340 C.ar    1  LIG1       -0.0532
     17 C           3.4436    1.1587   -0.2634 C.ar    1  LIG1       -0.0173
     18 C           6.2446    0.9900   -0.2924 C.ar    1  LIG1       -0.0149
     19 H           6.1656    2.6558   -1.6343 H       1  LIG1        0.0624
     20 C           4.1133    0.1869    0.4821 C.ar    1  LIG1       -0.0505
     21 C           5.5049    0.0848    0.4833 C.ar    1  LIG1       -0.0422
     22 H           3.5299   -0.4928    1.0938 H       1  LIG1        0.0626
     23 H           3.6884    2.8021   -1.6269 H       1  LIG1        0.0624
     24 C           6.1842   -0.9720    1.3380 C.3     1  LIG1       -0.0391
     25 H           7.0972   -0.5757    1.7820 H       1  LIG1        0.0278
     26 H           6.4513   -1.8448    0.7391 H       1  LIG1        0.0278
     27 H           5.5107   -1.2949    2.1314 H       1  LIG1        0.0278
     28 C           8.4095   -0.1652   -0.8566 C.ar    1  LIG1       -0.0540
     29 C           9.8002   -0.1856   -0.8898 C.ar    1  LIG1       -0.0609
     30 C           7.7409    0.9421   -0.3307 C.ar    1  LIG1       -0.0174
     31 C          10.5284    0.8956   -0.4009 C.ar    1  LIG1       -0.0588
     32 H          10.3173   -1.0437   -1.2997 H       1  LIG1        0.0618
     33 C           8.4837    2.0219    0.1517 C.ar    1  LIG1       -0.0511
     34 C           9.8786    2.0138    0.1229 C.ar    1  LIG1       -0.0499
     35 H           7.9580    2.8755    0.5659 H       1  LIG1        0.0626
     36 H          11.6117    0.8723   -0.4269 H       1  LIG1        0.0620
     37 H           7.8378   -0.9974   -1.2484 H       1  LIG1        0.0624
     38 C          10.6713    3.2076    0.6258 C.3     1  LIG1       -0.0397
     39 H          10.1031    3.7569    1.3762 H       1  LIG1        0.0278
     40 H          10.8953    3.8844   -0.2012 H       1  LIG1        0.0278
     41 H          11.6130    2.8829    1.0683 H       1  LIG1        0.0278
@<TRIPOS>BOND
     1    19    16    1
     2    23    15    1
     3    32    29    1
     4    37    28    1
     5    16    15   ar
     6    16    18   ar
     7    15    17   ar
     8    10     1    1
     9     5     2    1
    10    29    28   ar
    11    29    31   ar
    12    28    30   ar
    13     1     2   ar
    14     1     3   ar
    15     2     4   ar
    16    36    31    1
    17    31    34   ar
    18    30    18    1
    19    30    33   ar
    20    18    21   ar
    21    17     4    1
    22    17    20   ar
    23     9     3    1
    24     3     6   ar
    25     4     7   ar
    26    13    11    1
    27    40    38    1
    28    34    33   ar
    29    34    38    1
    30     6     7   ar
    31     6     8    1
    32    33    35    1
    33     7    11    1
    34    20    21   ar
    35    20    22    1
    36    21    24    1
    37    38    41    1
    38    38    39    1
    39    11    14    1
    40    11    12    1
    41    26    24    1
    42    24    25    1
    43    24    27    1
