@<TRIPOS>MOLECULE
mol_data/opt/m06hf/geoms/mol2/4ai4ai4ai.out
 41 43 0 0 0
SMALL
GASTEIGER

@<TRIPOS>ATOM
      1 C           0.0921    0.6254   -1.6907 C.ar    1  LIG1       -0.0612
      2 C           1.4620    0.6780   -1.4606 C.ar    1  LIG1       -0.0538
      3 C          -0.7754    1.2486   -0.7987 C.ar    1  LIG1       -0.0615
      4 C           1.9802    1.3519   -0.3508 C.ar    1  LIG1       -0.0150
      5 H           2.1511    0.2059   -2.1504 H       1  LIG1        0.0624
      6 C          -0.2639    1.9106    0.3128 C.ar    1  LIG1       -0.0583
      7 C           1.1093    1.9750    0.5570 C.ar    1  LIG1       -0.0427
      8 H          -0.9428    2.3809    1.0148 H       1  LIG1        0.0620
      9 H          -1.8448    1.2148   -0.9635 H       1  LIG1        0.0618
     10 H          -0.2931    0.1048   -2.5576 H       1  LIG1        0.0618
     11 C           1.6180    2.6890    1.7989 C.3     1  LIG1       -0.0391
     12 H           0.8439    2.6891    2.5664 H       1  LIG1        0.0278
     13 H           1.8745    3.7262    1.5734 H       1  LIG1        0.0278
     14 H           2.5083    2.1969    2.1894 H       1  LIG1        0.0278
     15 C           4.1663    0.1706   -0.0163 C.ar    1  LIG1       -0.0534
     16 C           5.5469    0.1899    0.1449 C.ar    1  LIG1       -0.0532
     17 C           3.4638    1.3686   -0.1544 C.ar    1  LIG1       -0.0173
     18 C           6.2522    1.3948    0.1658 C.ar    1  LIG1       -0.0149
     19 H           6.0961   -0.7382    0.2476 H       1  LIG1        0.0624
     20 C           4.1724    2.5711   -0.1231 C.ar    1  LIG1       -0.0505
     21 C           5.5574    2.6088    0.0358 C.ar    1  LIG1       -0.0422
     22 H           3.6278    3.5023   -0.2356 H       1  LIG1        0.0626
     23 H           3.6269   -0.7684   -0.0269 H       1  LIG1        0.0624
     24 C           6.2726    3.9490    0.0833 C.3     1  LIG1       -0.0391
     25 H           5.5743    4.7296    0.3851 H       1  LIG1        0.0278
     26 H           6.6747    4.2114   -0.8973 H       1  LIG1        0.0278
     27 H           7.1012    3.9163    0.7906 H       1  LIG1        0.0278
     28 C           8.2973    0.8027    1.4895 C.ar    1  LIG1       -0.0540
     29 C           9.6820    0.7548    1.6392 C.ar    1  LIG1       -0.0609
     30 C           7.7386    1.3580    0.3387 C.ar    1  LIG1       -0.0174
     31 C          10.5096    1.2581    0.6425 C.ar    1  LIG1       -0.0588
     32 H          10.1129    0.3290    2.5359 H       1  LIG1        0.0618
     33 C           8.5838    1.8565   -0.6579 C.ar    1  LIG1       -0.0511
     34 C           9.9689    1.8127   -0.5212 C.ar    1  LIG1       -0.0499
     35 H           8.1457    2.2682   -1.5601 H       1  LIG1        0.0626
     36 H          11.5863    1.2206    0.7642 H       1  LIG1        0.0620
     37 H           7.6452    0.4218    2.2656 H       1  LIG1        0.0624
     38 C          10.8825    2.3337   -1.6165 C.3     1  LIG1       -0.0397
     39 H          10.3130    2.8837   -2.3648 H       1  LIG1        0.0278
     40 H          11.3914    1.5036   -2.1095 H       1  LIG1        0.0278
     41 H          11.6390    2.9978   -1.1965 H       1  LIG1        0.0278
@<TRIPOS>BOND
     1    10     1    1
     2    39    38    1
     3     5     2    1
     4    40    38    1
     5     1     2   ar
     6     1     3   ar
     7    38    41    1
     8    38    34    1
     9    35    33    1
    10     2     4   ar
    11     9     3    1
    12    26    24    1
    13     3     6   ar
    14    33    34   ar
    15    33    30   ar
    16    34    31   ar
    17     4    17    1
    18     4     7   ar
    19    22    20    1
    20    17    20   ar
    21    17    15   ar
    22    20    21   ar
    23    23    15    1
    24    15    16   ar
    25    21    24    1
    26    21    18   ar
    27    24    25    1
    28    24    27    1
    29    16    18   ar
    30    16    19    1
    31    18    30    1
    32     6     7   ar
    33     6     8    1
    34    30    28   ar
    35     7    11    1
    36    31    36    1
    37    31    29   ar
    38    28    29   ar
    39    28    37    1
    40    13    11    1
    41    29    32    1
    42    11    14    1
    43    11    12    1
