@<TRIPOS>MOLECULE
mol_data/opt/m06hf/geoms/mol2/4ai4ai4ai-4ai.out
 54 57 0 0 0
SMALL
GASTEIGER

@<TRIPOS>ATOM
      1 C          -0.1849    0.7956   -1.5956 C.ar    1  LIG1       -0.0612
      2 C           1.2021    0.7783   -1.4997 C.ar    1  LIG1       -0.0538
      3 C          -0.9330    1.3891   -0.5836 C.ar    1  LIG1       -0.0615
      4 C           1.8545    1.3520   -0.4050 C.ar    1  LIG1       -0.0150
      5 H           1.7989    0.3297   -2.2844 H       1  LIG1        0.0624
      6 C          -0.2871    1.9495    0.5137 C.ar    1  LIG1       -0.0583
      7 C           1.1047    1.9420    0.6243 C.ar    1  LIG1       -0.0427
      8 H          -0.8728    2.3956    1.3091 H       1  LIG1        0.0620
      9 H          -2.0136    1.4093   -0.6430 H       1  LIG1        0.0618
     10 H          -0.6746    0.3527   -2.4526 H       1  LIG1        0.0618
     11 C           1.7630    2.5450    1.8546 C.3     1  LIG1       -0.0391
     12 H           1.0678    2.5208    2.6937 H       1  LIG1        0.0278
     13 H           2.0444    3.5848    1.6751 H       1  LIG1        0.0278
     14 H           2.6632    1.9917    2.1204 H       1  LIG1        0.0278
     15 C           4.0177    0.0802   -0.3783 C.ar    1  LIG1       -0.0534
     16 C           5.4070    0.0464   -0.3496 C.ar    1  LIG1       -0.0532
     17 C           3.3500    1.3055   -0.3578 C.ar    1  LIG1       -0.0173
     18 C           6.1563    1.2248   -0.3062 C.ar    1  LIG1       -0.0149
     19 H           5.9281   -0.9030   -0.3711 H       1  LIG1        0.0624
     20 C           4.1027    2.4799   -0.3083 C.ar    1  LIG1       -0.0505
     21 C           5.4972    2.4646   -0.2801 C.ar    1  LIG1       -0.0422
     22 H           3.5857    3.4332   -0.2983 H       1  LIG1        0.0626
     23 H           3.4461   -0.8390   -0.4066 H       1  LIG1        0.0624
     24 C           6.2552    3.7799   -0.2018 C.3     1  LIG1       -0.0391
     25 H           5.6301    4.5363    0.2728 H       1  LIG1        0.0278
     26 H           6.5208    4.1353   -1.1995 H       1  LIG1        0.0278
     27 H           7.1732    3.6618    0.3730 H       1  LIG1        0.0278
     28 C           8.4389    1.7217   -1.2566 C.ar    1  LIG1       -0.0534
     29 C           9.8214    1.6036   -1.2026 C.ar    1  LIG1       -0.0532
     30 C           7.6492    1.1274   -0.2702 C.ar    1  LIG1       -0.0173
     31 C          10.4461    0.8893   -0.1755 C.ar    1  LIG1       -0.0149
     32 H          10.4355    2.0502   -1.9750 H       1  LIG1        0.0624
     33 C           8.2772    0.4208    0.7562 C.ar    1  LIG1       -0.0505
     34 C           9.6654    0.2905    0.8246 C.ar    1  LIG1       -0.0422
     35 H           7.6650   -0.0193    1.5358 H       1  LIG1        0.0626
     36 H           7.9675    2.2561   -2.0720 H       1  LIG1        0.0624
     37 C          10.2865   -0.4642    1.9890 C.3     1  LIG1       -0.0391
     38 H          11.2510   -0.0342    2.2570 H       1  LIG1        0.0278
     39 H          10.4415   -1.5141    1.7318 H       1  LIG1        0.0278
     40 H           9.6221   -0.4199    2.8519 H       1  LIG1        0.0278
     41 C          12.5907   -0.4323   -0.2215 C.ar    1  LIG1       -0.0540
     42 C          13.9809   -0.4869   -0.2232 C.ar    1  LIG1       -0.0609
     43 C          11.9405    0.8025   -0.1663 C.ar    1  LIG1       -0.0174
     44 C          14.7282    0.6867   -0.1727 C.ar    1  LIG1       -0.0588
     45 H          14.4826   -1.4448   -0.2676 H       1  LIG1        0.0618
     46 C          12.7030    1.9717   -0.1207 C.ar    1  LIG1       -0.0511
     47 C          14.0975    1.9304   -0.1246 C.ar    1  LIG1       -0.0499
     48 H          12.1934    2.9275   -0.0677 H       1  LIG1        0.0626
     49 H          15.8109    0.6374   -0.1714 H       1  LIG1        0.0620
     50 H          12.0058   -1.3418   -0.2771 H       1  LIG1        0.0624
     51 C          14.9104    3.2128   -0.1016 C.3     1  LIG1       -0.0397
     52 H          14.3551    4.0107    0.3910 H       1  LIG1        0.0278
     53 H          15.1393    3.5307   -1.1208 H       1  LIG1        0.0278
     54 H          15.8499    3.0612    0.4295 H       1  LIG1        0.0278
@<TRIPOS>BOND
     1    10     1    1
     2     5     2    1
     3    36    28    1
     4    32    29    1
     5     1     2   ar
     6     1     3   ar
     7     2     4   ar
     8    28    29   ar
     9    28    30   ar
    10    29    31   ar
    11    26    24    1
    12    53    51    1
    13     9     3    1
    14     3     6   ar
    15    23    15    1
    16     4    17    1
    17     4     7   ar
    18    15    17   ar
    19    15    16   ar
    20    19    16    1
    21    17    20   ar
    22    16    18   ar
    23    20    22    1
    24    20    21   ar
    25    18    21   ar
    26    18    30    1
    27    21    24    1
    28    50    41    1
    29    30    33   ar
    30    45    42    1
    31    42    41   ar
    32    42    44   ar
    33    41    43   ar
    34    24    25    1
    35    24    27    1
    36    31    43    1
    37    31    34   ar
    38    44    49    1
    39    44    47   ar
    40    43    46   ar
    41    47    46   ar
    42    47    51    1
    43    46    48    1
    44    51    52    1
    45    51    54    1
    46     6     7   ar
    47     6     8    1
    48     7    11    1
    49    33    34   ar
    50    33    35    1
    51    34    37    1
    52    13    11    1
    53    39    37    1
    54    11    14    1
    55    11    12    1
    56    37    38    1
    57    37    40    1
