@<TRIPOS>MOLECULE
mol_data/opt/m06hf/geoms/mol2/4ai4ai.out
 28 29 0 0 0
SMALL
GASTEIGER

@<TRIPOS>ATOM
      1 C           0.0740    0.1554   -0.9311 C.ar    1  LIG1       -0.0612
      2 C           1.4504    0.1806   -0.7357 C.ar    1  LIG1       -0.0538
      3 C          -0.7018    1.2144   -0.4696 C.ar    1  LIG1       -0.0615
      4 C           2.0649    1.2561   -0.0886 C.ar    1  LIG1       -0.0150
      5 H           2.0692   -0.6315   -1.0975 H       1  LIG1        0.0624
      6 C          -0.0946    2.2797    0.1876 C.ar    1  LIG1       -0.0583
      7 C           1.2862    2.3208    0.3904 C.ar    1  LIG1       -0.0427
      8 H          -0.7028    3.0952    0.5614 H       1  LIG1        0.0620
      9 H          -1.7746    1.2100   -0.6147 H       1  LIG1        0.0618
     10 H          -0.3863   -0.6817   -1.4397 H       1  LIG1        0.0618
     11 C           1.9026    3.4926    1.1374 C.3     1  LIG1       -0.0391
     12 H           1.1617    3.9369    1.8020 H       1  LIG1        0.0278
     13 H           2.2422    4.2625    0.4413 H       1  LIG1        0.0278
     14 H           2.7600    3.1653    1.7250 H       1  LIG1        0.0278
     15 C           4.1570    0.2173    0.8268 C.ar    1  LIG1       -0.0540
     16 C           5.5402    0.1974    0.9808 C.ar    1  LIG1       -0.0609
     17 C           3.5513    1.2357    0.0890 C.ar    1  LIG1       -0.0174
     18 C           6.3232    1.1893    0.3983 C.ar    1  LIG1       -0.0588
     19 H           6.0076   -0.5884    1.5602 H       1  LIG1        0.0618
     20 C           4.3504    2.2224   -0.4934 C.ar    1  LIG1       -0.0511
     21 C           5.7369    2.2121   -0.3493 C.ar    1  LIG1       -0.0499
     22 H           3.8776    3.0024   -1.0806 H       1  LIG1        0.0626
     23 H           7.3996    1.1702    0.5248 H       1  LIG1        0.0620
     24 H           3.5390   -0.5439    1.2866 H       1  LIG1        0.0624
     25 C           6.5911    3.2720   -1.0220 C.3     1  LIG1       -0.0397
     26 H           6.0395    4.2075   -1.1136 H       1  LIG1        0.0278
     27 H           6.8792    2.9430   -2.0223 H       1  LIG1        0.0278
     28 H           7.4983    3.4563   -0.4467 H       1  LIG1        0.0278
@<TRIPOS>BOND
     1    27    25    1
     2    10     1    1
     3    26    25    1
     4     5     2    1
     5    22    20    1
     6    25    28    1
     7    25    21    1
     8     1     2   ar
     9     1     3   ar
    10     2     4   ar
    11     9     3    1
    12    20    21   ar
    13    20    17   ar
    14     3     6   ar
    15    21    18   ar
    16     4    17    1
    17     4     7   ar
    18    17    15   ar
    19     6     7   ar
    20     6     8    1
    21     7    11    1
    22    18    23    1
    23    18    16   ar
    24    13    11    1
    25    15    16   ar
    26    15    24    1
    27    16    19    1
    28    11    14    1
    29    11    12    1
