@<TRIPOS>MOLECULE
mol_data/opt/m06hf/geoms/mol2/4ai4ai4ai4ai-.out
 54 57 0 0 0
SMALL
GASTEIGER

@<TRIPOS>ATOM
      1 C          -0.1674    1.8140   -1.7431 C.ar    1  LIG1       -0.0612
      2 C           1.2170    1.7150   -1.6564 C.ar    1  LIG1       -0.0538
      3 C          -0.9268    1.8226   -0.5772 C.ar    1  LIG1       -0.0615
      4 C           1.8554    1.6280   -0.4163 C.ar    1  LIG1       -0.0150
      5 H           1.8222    1.7186   -2.5550 H       1  LIG1        0.0624
      6 C          -0.2954    1.7222    0.6583 C.ar    1  LIG1       -0.0583
      7 C           1.0934    1.6226    0.7627 C.ar    1  LIG1       -0.0427
      8 H          -0.8901    1.7107    1.5643 H       1  LIG1        0.0620
      9 H          -2.0054    1.8983   -0.6282 H       1  LIG1        0.0618
     10 H          -0.6464    1.8861   -2.7106 H       1  LIG1        0.0618
     11 C           1.7341    1.4854    2.1344 C.3     1  LIG1       -0.0391
     12 H           1.0199    1.0477    2.8318 H       1  LIG1        0.0278
     13 H           2.0357    2.4602    2.5232 H       1  LIG1        0.0278
     14 H           2.6194    0.8521    2.0851 H       1  LIG1        0.0278
     15 C           4.0011    0.4692   -1.0127 C.ar    1  LIG1       -0.0534
     16 C           5.3889    0.3897   -0.9791 C.ar    1  LIG1       -0.0532
     17 C           3.3488    1.5282   -0.3808 C.ar    1  LIG1       -0.0173
     18 C           6.1494    1.3614   -0.3255 C.ar    1  LIG1       -0.0149
     19 H           5.8992   -0.4305   -1.4695 H       1  LIG1        0.0624
     20 C           4.1138    2.4943    0.2751 C.ar    1  LIG1       -0.0505
     21 C           5.5062    2.4311    0.3170 C.ar    1  LIG1       -0.0422
     22 H           3.6078    3.3215    0.7609 H       1  LIG1        0.0626
     23 H           3.4191   -0.2930   -1.5158 H       1  LIG1        0.0624
     24 C           6.2837    3.4989    1.0686 C.3     1  LIG1       -0.0391
     25 H           5.6428    3.9634    1.8178 H       1  LIG1        0.0278
     26 H           6.6338    4.2779    0.3883 H       1  LIG1        0.0278
     27 H           7.1535    3.0643    1.5607 H       1  LIG1        0.0278
     28 C           8.2376    0.1132    0.2865 C.ar    1  LIG1       -0.0534
     29 C           9.6219   -0.0129    0.2866 C.ar    1  LIG1       -0.0532
     30 C           7.6400    1.2234   -0.3114 C.ar    1  LIG1       -0.0173
     31 C          10.4340    0.9544   -0.3104 C.ar    1  LIG1       -0.0149
     32 H          10.0893   -0.8766    0.7436 H       1  LIG1        0.0624
     33 C           8.4553    2.1912   -0.8999 C.ar    1  LIG1       -0.0505
     34 C           9.8456    2.0796   -0.9106 C.ar    1  LIG1       -0.0422
     35 H           7.9907    3.0522   -1.3680 H       1  LIG1        0.0626
     36 H           7.6162   -0.6401    0.7545 H       1  LIG1        0.0624
     37 C          10.6771    3.1800   -1.5497 C.3     1  LIG1       -0.0391
     38 H          10.1276    4.1209   -1.5191 H       1  LIG1        0.0278
     39 H          10.8938    2.9467   -2.5941 H       1  LIG1        0.0278
     40 H          11.6243    3.3019   -1.0253 H       1  LIG1        0.0278
     41 C          12.6561    0.6877   -1.4641 C.ar    1  LIG1       -0.0540
     42 C          14.0339    0.5010   -1.4146 C.ar    1  LIG1       -0.0609
     43 C          11.9187    0.7659   -0.2809 C.ar    1  LIG1       -0.0174
     44 C          14.6817    0.3886   -0.1878 C.ar    1  LIG1       -0.0588
     45 H          14.6025    0.4394   -2.3334 H       1  LIG1        0.0618
     46 C          12.5814    0.6468    0.9430 C.ar    1  LIG1       -0.0511
     47 C          13.9619    0.4565    1.0059 C.ar    1  LIG1       -0.0499
     48 H          12.0062    0.7180    1.8596 H       1  LIG1        0.0626
     49 H          15.7557    0.2453   -0.1553 H       1  LIG1        0.0620
     50 H          12.1456    0.7588   -2.4163 H       1  LIG1        0.0624
     51 C          14.6642    0.3029    2.3434 C.3     1  LIG1       -0.0397
     52 H          15.6544    0.7571    2.3100 H       1  LIG1        0.0278
     53 H          14.7798   -0.7549    2.5878 H       1  LIG1        0.0278
     54 H          14.0881    0.7785    3.1368 H       1  LIG1        0.0278
@<TRIPOS>BOND
     1    10     1    1
     2    39    37    1
     3     5     2    1
     4    50    41    1
     5    45    42    1
     6     1     2   ar
     7     1     3   ar
     8     2     4   ar
     9    37    38    1
    10    37    40    1
    11    37    34    1
    12    23    15    1
    13    19    16    1
    14    41    42   ar
    15    41    43   ar
    16    42    44   ar
    17    35    33    1
    18    15    16   ar
    19    15    17   ar
    20    16    18   ar
    21    34    33   ar
    22    34    31   ar
    23    33    30   ar
    24     9     3    1
    25     3     6   ar
    26     4    17    1
    27     4     7   ar
    28    17    20   ar
    29    18    30    1
    30    18    21   ar
    31    30    28   ar
    32    31    43    1
    33    31    29   ar
    34    43    46   ar
    35    44    49    1
    36    44    47   ar
    37    20    21   ar
    38    20    22    1
    39    28    29   ar
    40    28    36    1
    41    29    32    1
    42    21    24    1
    43    26    24    1
    44     6     7   ar
    45     6     8    1
    46     7    11    1
    47    46    47   ar
    48    46    48    1
    49    47    51    1
    50    24    27    1
    51    24    25    1
    52    14    11    1
    53    11    13    1
    54    11    12    1
    55    52    51    1
    56    51    53    1
    57    51    54    1
