@<TRIPOS>MOLECULE
mol_data/opt/m06hf/geoms/mol2/4ai4ai4ai-4ai-.out
 54 57 0 0 0
SMALL
GASTEIGER

@<TRIPOS>ATOM
      1 C          -0.1475    0.8022   -1.6462 C.ar    1  LIG1       -0.0612
      2 C           1.2389    0.8081   -1.5389 C.ar    1  LIG1       -0.0538
      3 C          -0.9145    1.3523   -0.6241 C.ar    1  LIG1       -0.0615
      4 C           1.8700    1.3624   -0.4223 C.ar    1  LIG1       -0.0150
      5 H           1.8513    0.3914   -2.3290 H       1  LIG1        0.0624
      6 C          -0.2891    1.8947    0.4944 C.ar    1  LIG1       -0.0583
      7 C           1.1015    1.9104    0.6163 C.ar    1  LIG1       -0.0427
      8 H          -0.8905    2.3065    1.2964 H       1  LIG1        0.0620
      9 H          -1.9949    1.3523   -0.6919 H       1  LIG1        0.0618
     10 H          -0.6224    0.3750   -2.5196 H       1  LIG1        0.0618
     11 C           1.7450    2.4869    1.8666 C.3     1  LIG1       -0.0391
     12 H           1.0312    2.4719    2.6901 H       1  LIG1        0.0278
     13 H           2.0570    3.5203    1.7031 H       1  LIG1        0.0278
     14 H           2.6257    1.9091    2.1463 H       1  LIG1        0.0278
     15 C           4.0447    0.1162   -0.3460 C.ar    1  LIG1       -0.0534
     16 C           5.4339    0.0967   -0.3023 C.ar    1  LIG1       -0.0532
     17 C           3.3655    1.3352   -0.3570 C.ar    1  LIG1       -0.0173
     18 C           6.1701    1.2830   -0.2760 C.ar    1  LIG1       -0.0149
     19 H           5.9651   -0.8475   -0.2987 H       1  LIG1        0.0624
     20 C           4.1052    2.5182   -0.3201 C.ar    1  LIG1       -0.0505
     21 C           5.4994    2.5168   -0.2795 C.ar    1  LIG1       -0.0422
     22 H           3.5775    3.4658   -0.3327 H       1  LIG1        0.0626
     23 H           3.4813   -0.8083   -0.3639 H       1  LIG1        0.0624
     24 C           6.2510    3.8362   -0.2227 C.3     1  LIG1       -0.0391
     25 H           5.6079    4.6095    0.1971 H       1  LIG1        0.0278
     26 H           6.5571    4.1526   -1.2219 H       1  LIG1        0.0278
     27 H           7.1460    3.7417    0.3918 H       1  LIG1        0.0278
     28 C           8.4460    1.7267   -1.2636 C.ar    1  LIG1       -0.0534
     29 C           9.8292    1.6067   -1.2135 C.ar    1  LIG1       -0.0532
     30 C           7.6641    1.2000   -0.2340 C.ar    1  LIG1       -0.0173
     31 C          10.4582    0.9595   -0.1467 C.ar    1  LIG1       -0.0149
     32 H          10.4390    1.9975   -2.0190 H       1  LIG1        0.0624
     33 C           8.2976    0.5665    0.8356 C.ar    1  LIG1       -0.0505
     34 C           9.6858    0.4367    0.9010 C.ar    1  LIG1       -0.0422
     35 H           7.6893    0.1795    1.6459 H       1  LIG1        0.0626
     36 H           7.9690    2.2056   -2.1096 H       1  LIG1        0.0624
     37 C          10.3202   -0.2390    2.1053 C.3     1  LIG1       -0.0391
     38 H          11.2736    0.2289    2.3500 H       1  LIG1        0.0278
     39 H          10.5038   -1.2966    1.9052 H       1  LIG1        0.0278
     40 H           9.6533   -0.1642    2.9640 H       1  LIG1        0.0278
     41 C          12.7447    1.9932   -0.1288 C.ar    1  LIG1       -0.0540
     42 C          14.1329    1.8796   -0.1374 C.ar    1  LIG1       -0.0609
     43 C          11.9512    0.8456   -0.1478 C.ar    1  LIG1       -0.0174
     44 C          14.7311    0.6243   -0.1688 C.ar    1  LIG1       -0.0588
     45 H          14.7471    2.7704   -0.1135 H       1  LIG1        0.0618
     46 C          12.5661   -0.4090   -0.1844 C.ar    1  LIG1       -0.0511
     47 C          13.9538   -0.5357   -0.1973 C.ar    1  LIG1       -0.0499
     48 H          11.9455   -1.2977   -0.2184 H       1  LIG1        0.0626
     49 H          15.8119    0.5413   -0.1729 H       1  LIG1        0.0620
     50 H          12.2711    2.9664   -0.0926 H       1  LIG1        0.0624
     51 C          14.6096   -1.9032   -0.2754 C.3     1  LIG1       -0.0397
     52 H          15.5304   -1.9191    0.3081 H       1  LIG1        0.0278
     53 H          14.8559   -2.1430   -1.3117 H       1  LIG1        0.0278
     54 H          13.9401   -2.6736    0.1062 H       1  LIG1        0.0278
@<TRIPOS>BOND
     1    10     1    1
     2     5     2    1
     3    36    28    1
     4    32    29    1
     5     1     2   ar
     6     1     3   ar
     7     2     4   ar
     8    53    51    1
     9    28    29   ar
    10    28    30   ar
    11    26    24    1
    12    29    31   ar
    13     9     3    1
    14     3     6   ar
    15     4    17    1
    16     4     7   ar
    17    23    15    1
    18    17    15   ar
    19    17    20   ar
    20    15    16   ar
    21    22    20    1
    22    20    21   ar
    23    16    19    1
    24    16    18   ar
    25    21    18   ar
    26    21    24    1
    27    18    30    1
    28    51    47    1
    29    51    54    1
    30    51    52    1
    31    30    33   ar
    32    24    25    1
    33    24    27    1
    34    48    46    1
    35    47    46   ar
    36    47    44   ar
    37    46    43   ar
    38    49    44    1
    39    44    42   ar
    40    43    31    1
    41    43    41   ar
    42    31    34   ar
    43    42    41   ar
    44    42    45    1
    45    41    50    1
    46     6     7   ar
    47     6     8    1
    48     7    11    1
    49    33    34   ar
    50    33    35    1
    51    34    37    1
    52    13    11    1
    53    11    14    1
    54    11    12    1
    55    39    37    1
    56    37    38    1
    57    37    40    1
