@<TRIPOS>MOLECULE
mol_data/opt/m06hf/geoms/mol2/4ai4ai-.out
 28 29 0 0 0
SMALL
GASTEIGER

@<TRIPOS>ATOM
      1 C          -0.1031    0.2597   -0.8510 C.ar    1  LIG1       -0.0612
      2 C           1.2870    0.2295   -0.8872 C.ar    1  LIG1       -0.0538
      3 C          -0.7482    1.3168   -0.2170 C.ar    1  LIG1       -0.0615
      4 C           2.0414    1.2488   -0.3015 C.ar    1  LIG1       -0.0150
      5 H           1.8053   -0.5832   -1.3815 H       1  LIG1        0.0624
      6 C           0.0013    2.3274    0.3776 C.ar    1  LIG1       -0.0583
      7 C           1.3966    2.3135    0.3465 C.ar    1  LIG1       -0.0427
      8 H          -0.5042    3.1412    0.8844 H       1  LIG1        0.0620
      9 H          -1.8292    1.3517   -0.1772 H       1  LIG1        0.0618
     10 H          -0.6754   -0.5340   -1.3128 H       1  LIG1        0.0618
     11 C           2.1820    3.4237    1.0249 C.3     1  LIG1       -0.0391
     12 H           1.5624    3.9061    1.7806 H       1  LIG1        0.0278
     13 H           2.4912    4.1800    0.3006 H       1  LIG1        0.0278
     14 H           3.0786    3.0240    1.4984 H       1  LIG1        0.0278
     15 C           4.2733    2.1255   -1.0688 C.ar    1  LIG1       -0.0540
     16 C           5.6604    2.0376   -1.1138 C.ar    1  LIG1       -0.0609
     17 C           3.5360    1.1725   -0.3624 C.ar    1  LIG1       -0.0174
     18 C           6.3186    1.0013   -0.4561 C.ar    1  LIG1       -0.0588
     19 H           6.2306    2.7763   -1.6624 H       1  LIG1        0.0618
     20 C           4.2079    0.1359    0.2870 C.ar    1  LIG1       -0.0511
     21 C           5.5997    0.0368    0.2496 C.ar    1  LIG1       -0.0499
     22 H           3.6297   -0.5966    0.8398 H       1  LIG1        0.0626
     23 H           7.4000    0.9419   -0.4914 H       1  LIG1        0.0620
     24 H           3.7547    2.9223   -1.5875 H       1  LIG1        0.0624
     25 C           6.3102   -1.1115    0.9439 C.3     1  LIG1       -0.0397
     26 H           7.3170   -0.8174    1.2396 H       1  LIG1        0.0278
     27 H           6.3857   -1.9685    0.2716 H       1  LIG1        0.0278
     28 H           5.7609   -1.4203    1.8330 H       1  LIG1        0.0278
@<TRIPOS>BOND
     1    19    16    1
     2    24    15    1
     3     5     2    1
     4    10     1    1
     5    16    15   ar
     6    16    18   ar
     7    15    17   ar
     8     2     1   ar
     9     2     4   ar
    10     1     3   ar
    11    23    18    1
    12    18    21   ar
    13    17     4    1
    14    17    20   ar
    15     4     7   ar
    16     3     9    1
    17     3     6   ar
    18    21    20   ar
    19    21    25    1
    20    27    25    1
    21    20    22    1
    22    13    11    1
    23     7     6   ar
    24     7    11    1
    25     6     8    1
    26    25    26    1
    27    25    28    1
    28    11    14    1
    29    11    12    1
