@<TRIPOS>MOLECULE
mol_data/opt/m06hf/geoms/mol2/4ai4ai-4ai4ai-.out
 54 57 0 0 0
SMALL
GASTEIGER

@<TRIPOS>ATOM
      1 C          -0.2512    0.1945   -0.8791 C.ar    1  LIG1       -0.0612
      2 C           1.1386    0.1923   -0.8452 C.ar    1  LIG1       -0.0538
      3 C          -0.9461    1.2804   -0.3556 C.ar    1  LIG1       -0.0615
      4 C           1.8477    1.2649   -0.2968 C.ar    1  LIG1       -0.0150
      5 H           1.6938   -0.6405   -1.2593 H       1  LIG1        0.0624
      6 C          -0.2442    2.3442    0.2016 C.ar    1  LIG1       -0.0583
      7 C           1.1515    2.3575    0.2435 C.ar    1  LIG1       -0.0427
      8 H          -0.7878    3.1811    0.6245 H       1  LIG1        0.0620
      9 H          -2.0283    1.2969   -0.3739 H       1  LIG1        0.0618
     10 H          -0.7843   -0.6415   -1.3118 H       1  LIG1        0.0618
     11 C           1.8676    3.5305    0.8934 C.3     1  LIG1       -0.0391
     12 H           1.2173    3.9902    1.6376 H       1  LIG1        0.0278
     13 H           2.1256    4.2894    0.1517 H       1  LIG1        0.0278
     14 H           2.7868    3.2016    1.3770 H       1  LIG1        0.0278
     15 C           4.1104    2.1897   -0.9137 C.ar    1  LIG1       -0.0534
     16 C           5.4965    2.1005   -0.9025 C.ar    1  LIG1       -0.0532
     17 C           3.3432    1.2046   -0.2887 C.ar    1  LIG1       -0.0173
     18 C           6.1460    1.0317   -0.2784 C.ar    1  LIG1       -0.0149
     19 H           6.0941    2.8558   -1.3985 H       1  LIG1        0.0624
     20 C           3.9968    0.1430    0.3392 C.ar    1  LIG1       -0.0505
     21 C           5.3880    0.0365    0.3585 C.ar    1  LIG1       -0.0422
     22 H           3.4005   -0.6080    0.8461 H       1  LIG1        0.0626
     23 H           3.6195    3.0101   -1.4222 H       1  LIG1        0.0624
     24 C           6.0416   -1.1232    1.0928 C.3     1  LIG1       -0.0391
     25 H           6.9590   -0.7978    1.5826 H       1  LIG1        0.0278
     26 H           6.2941   -1.9300    0.4018 H       1  LIG1        0.0278
     27 H           5.3559   -1.5182    1.8421 H       1  LIG1        0.0278
     28 C           8.3328   -0.0753   -0.8707 C.ar    1  LIG1       -0.0534
     29 C           9.7213   -0.0796   -0.8753 C.ar    1  LIG1       -0.0532
     30 C           7.6417    0.9895   -0.2892 C.ar    1  LIG1       -0.0173
     31 C          10.4506    0.9705   -0.3082 C.ar    1  LIG1       -0.0149
     32 H          10.2599   -0.8952   -1.3425 H       1  LIG1        0.0624
     33 C           8.3726    2.0321    0.2806 C.ar    1  LIG1       -0.0505
     34 C           9.7687    2.0432    0.2864 C.ar    1  LIG1       -0.0422
     35 H           7.8347    2.8467    0.7535 H       1  LIG1        0.0626
     36 H           7.7820   -0.8838   -1.3345 H       1  LIG1        0.0624
     37 C          10.4976    3.1929    0.9634 C.3     1  LIG1       -0.0391
     38 H           9.8732    3.6053    1.7560 H       1  LIG1        0.0278
     39 H          10.7130    3.9912    0.2501 H       1  LIG1        0.0278
     40 H          11.4406    2.8538    1.3908 H       1  LIG1        0.0278
     41 C          12.6976    1.9248   -0.9292 C.ar    1  LIG1       -0.0540
     42 C          14.0859    1.8359   -0.9608 C.ar    1  LIG1       -0.0609
     43 C          11.9454    0.9053   -0.3423 C.ar    1  LIG1       -0.0174
     44 C          14.7300    0.7309   -0.4128 C.ar    1  LIG1       -0.0588
     45 H          14.6658    2.6279   -1.4169 H       1  LIG1        0.0618
     46 C          12.6059   -0.2000    0.2004 C.ar    1  LIG1       -0.0511
     47 C          13.9961   -0.3030    0.1714 C.ar    1  LIG1       -0.0499
     48 H          12.0188   -0.9844    0.6654 H       1  LIG1        0.0626
     49 H          15.8118    0.6685   -0.4385 H       1  LIG1        0.0620
     50 H          12.1927    2.7746   -1.3712 H       1  LIG1        0.0624
     51 C          14.6987   -1.5205    0.7454 C.3     1  LIG1       -0.0397
     52 H          15.6195   -1.2276    1.2500 H       1  LIG1        0.0278
     53 H          14.9530   -2.2198   -0.0536 H       1  LIG1        0.0278
     54 H          14.0563   -2.0332    1.4608 H       1  LIG1        0.0278
@<TRIPOS>BOND
     1    23    15    1
     2    45    42    1
     3    19    16    1
     4    50    41    1
     5    32    29    1
     6    36    28    1
     7    10     1    1
     8     5     2    1
     9    42    41   ar
    10    42    44   ar
    11    41    43   ar
    12    15    16   ar
    13    15    17   ar
    14    16    18   ar
    15     1     2   ar
    16     1     3   ar
    17    29    28   ar
    18    29    31   ar
    19    28    30   ar
    20     2     4   ar
    21    49    44    1
    22    44    47   ar
    23     9     3    1
    24     3     6   ar
    25    43    31    1
    26    43    46   ar
    27    31    34   ar
    28     4    17    1
    29     4     7   ar
    30    30    18    1
    31    30    33   ar
    32    17    20   ar
    33    18    21   ar
    34    53    51    1
    35    13    11    1
    36    47    46   ar
    37    47    51    1
    38    46    48    1
    39     6     7   ar
    40     6     8    1
    41     7    11    1
    42    39    37    1
    43    33    34   ar
    44    33    35    1
    45    34    37    1
    46    20    21   ar
    47    20    22    1
    48    21    24    1
    49    26    24    1
    50    51    52    1
    51    51    54    1
    52    11    14    1
    53    11    12    1
    54    37    40    1
    55    37    38    1
    56    24    25    1
    57    24    27    1
