@<TRIPOS>MOLECULE
mol_data/opt/m06hf/geoms/mol2/4ai6fi-13ei13ie-.out
 54 57 0 0 0
SMALL
GASTEIGER

@<TRIPOS>ATOM
      1 C          -0.1853    0.7206   -1.0142 C.ar    1  LIG1       -0.0612
      2 C           1.1921    0.5444   -0.9310 C.ar    1  LIG1       -0.0536
      3 C          -0.7847    1.7666   -0.3193 C.ar    1  LIG1       -0.0615
      4 C           1.9731    1.4021   -0.1528 C.ar    1  LIG1       -0.0099
      5 H           1.6792   -0.2561   -1.4742 H       1  LIG1        0.0624
      6 C          -0.0091    2.6200    0.4608 C.ar    1  LIG1       -0.0583
      7 C           1.3728    2.4536    0.5641 C.ar    1  LIG1       -0.0426
      8 H          -0.4839    3.4249    1.0089 H       1  LIG1        0.0620
      9 H          -1.8545    1.9183   -0.3808 H       1  LIG1        0.0618
     10 H          -0.7823    0.0519   -1.6198 H       1  LIG1        0.0618
     11 C           2.2026    3.3646    1.4531 C.3     1  LIG1       -0.0391
     12 H           1.5525    4.0445    2.0020 H       1  LIG1        0.0278
     13 H           2.9069    3.9522    0.8607 H       1  LIG1        0.0278
     14 H           2.7762    2.7685    2.1645 H       1  LIG1        0.0278
     15 C           4.3252    2.1218   -0.7016 C.ar    1  LIG1        0.2208
     16 C           3.4524    1.1954   -0.0980 C.ar    1  LIG1        0.0440
     17 C           4.0418    0.1160    0.5372 C.ar    1  LIG1       -0.0439
     18 C           5.4314   -0.0544    0.5734 C.ar    1  LIG1       -0.0222
     19 C           6.1815    0.9099   -0.1043 C.ar    1  LIG1        0.0950
     20 N           5.6283    1.9803   -0.7007 N.ar    1  LIG1       -0.2107
     21 H           3.4034   -0.5994    1.0446 H       1  LIG1        0.0629
     22 O           3.8520    3.2262   -1.3201 O.3     1  LIG1       -0.4920
     23 H           2.8877    3.1750   -1.3734 H       1  LIG1        0.2937
     24 C           6.0302   -1.1899    1.3778 C.3     1  LIG1       -0.0376
     25 H           7.0016   -0.9017    1.7791 H       1  LIG1        0.0278
     26 H           6.1721   -2.0760    0.7610 H       1  LIG1        0.0278
     27 H           5.3615   -1.4317    2.2046 H       1  LIG1        0.0278
     28 C           7.6599    0.9202   -0.1921 C.ar    1  LIG1        0.0816
     29 C           8.6663   -0.0386   -0.2787 C.ar    1  LIG1        0.0549
     30 C           9.9125    0.6510   -0.4108 C.ar    1  LIG1       -0.0077
     31 C           9.6178    1.9980   -0.4076 C.ar    1  LIG1        0.0678
     32 N           8.2637    2.1315   -0.2811 N.ar    1  LIG1       -0.3506
     33 H           7.7327    2.9918   -0.2704 H       1  LIG1        0.1660
     34 C           8.5519   -1.4629   -0.3824 C.1     1  LIG1       -0.0672
     35 C           8.5294   -2.6602   -0.5035 C.1     1  LIG1       -0.1138
     36 H           8.5038   -3.7192   -0.6145 H       1  LIG1        0.1232
     37 C          11.2647    0.0149   -0.5887 C.3     1  LIG1       -0.0365
     38 H          11.6324   -0.3886    0.3566 H       1  LIG1        0.0279
     39 H          11.9741    0.7570   -0.9556 H       1  LIG1        0.0279
     40 H          11.1944   -0.8049   -1.3044 H       1  LIG1        0.0279
     41 C          10.4967    3.1624   -0.5455 C.ar    1  LIG1        0.0673
     42 C          11.6310    3.5165    0.1473 C.ar    1  LIG1       -0.0084
     43 C          12.0773    4.7555   -0.4165 C.ar    1  LIG1        0.0455
     44 C          11.1958    5.1030   -1.4186 C.ar    1  LIG1        0.0179
     45 N          10.2466    4.1370   -1.4852 N.ar    1  LIG1       -0.3582
     46 H           9.5079    4.0841   -2.1696 H       1  LIG1        0.1654
     47 H          11.1924    5.9592   -2.0700 H       1  LIG1        0.0819
     48 C          12.2690    2.7805    1.2952 C.3     1  LIG1       -0.0365
     49 H          12.5204    3.4833    2.0901 H       1  LIG1        0.0279
     50 H          13.1887    2.2874    0.9741 H       1  LIG1        0.0279
     51 H          11.5806    2.0286    1.6816 H       1  LIG1        0.0279
     52 C          13.2259    5.5041    0.0040 C.1     1  LIG1       -0.0679
     53 C          14.1937    6.1160    0.3726 C.1     1  LIG1       -0.1139
     54 H          15.0512    6.6595    0.6946 H       1  LIG1        0.1232
@<TRIPOS>BOND
     1    46    45    1
     2    47    44    1
     3    10     1    1
     4    45    44   ar
     5    45    41   ar
     6     5     2    1
     7    44    43   ar
     8    23    22    1
     9    22    15    1
    10    40    37    1
    11     1     2   ar
    12     1     3   ar
    13    39    37    1
    14     2     4   ar
    15    15    20   ar
    16    15    16   ar
    17    20    19   ar
    18    36    35    1
    19    37    30    1
    20    37    38    1
    21    41    31    1
    22    41    42   ar
    23    35    34    3
    24    43    52    1
    25    43    42   ar
    26    30    31   ar
    27    30    29   ar
    28    31    32   ar
    29    34    29    1
    30     9     3    1
    31     3     6   ar
    32    32    33    1
    33    32    28   ar
    34    29    28   ar
    35    28    19    1
    36     4    16    1
    37     4     7   ar
    38    19    18   ar
    39    16    17   ar
    40    52    53    3
    41    42    48    1
    42    53    54    1
    43     6     7   ar
    44     6     8    1
    45    17    18   ar
    46    17    21    1
    47     7    11    1
    48    18    24    1
    49    26    24    1
    50    13    11    1
    51    50    48    1
    52    48    51    1
    53    48    49    1
    54    24    25    1
    55    24    27    1
    56    11    12    1
    57    11    14    1
