@<TRIPOS>MOLECULE
mol_data/opt/m06hf/geoms/mol2/4al.out
 16 16 0 0 0
SMALL
GASTEIGER

@<TRIPOS>ATOM
      1 C          -0.0150   -0.0146    0.0005 C.ar    1  LIG1       -0.0615
      2 C           1.3700   -0.1004    0.0002 C.ar    1  LIG1       -0.0583
      3 C          -0.6198    1.2447    0.0004 C.ar    1  LIG1       -0.0583
      4 C           2.1630    1.0493   -0.0004 C.ar    1  LIG1       -0.0200
      5 H           1.8520   -1.0699    0.0003 H       1  LIG1        0.0619
      6 C           0.1525    2.3947   -0.0002 C.ar    1  LIG1       -0.0200
      7 C           1.5477    2.3001   -0.0005 C.ar    1  LIG1        0.1201
      8 H          -0.2895    3.3818   -0.0003 H       1  LIG1        0.0654
      9 H           3.2397    0.9555   -0.0006 H       1  LIG1        0.0654
     10 H          -1.6989    1.3282    0.0006 H       1  LIG1        0.0619
     11 H          -0.6188   -0.9118    0.0010 H       1  LIG1        0.0618
     12 O           2.2212    3.4809   -0.0011 O.3     1  LIG1       -0.4951
     13 C           3.6331    3.4350   -0.0015 C.3     1  LIG1        0.0788
     14 H           3.9666    4.4691   -0.0018 H       1  LIG1        0.0660
     15 H           4.0051    2.9284    0.8932 H       1  LIG1        0.0660
     16 H           4.0046    2.9279   -0.8960 H       1  LIG1        0.0660
@<TRIPOS>BOND
     1    16    13    1
     2    14    13    1
     3    13    12    1
     4    13    15    1
     5    12     7    1
     6     9     4    1
     7     7     4   ar
     8     7     6   ar
     9     4     2   ar
    10     8     6    1
    11     6     3   ar
    12     2     5    1
    13     2     1   ar
    14     3     1   ar
    15     3    10    1
    16     1    11    1
