@<TRIPOS>MOLECULE
mol_data/opt/m06hf/geoms/mol2/4da4ih-12di-13ad-.out
 48 51 0 0 0
SMALL
GASTEIGER

@<TRIPOS>ATOM
      1 C          -0.1837    0.2152   -0.5939 C.ar    1  LIG1        0.0523
      2 C           1.2095    0.1607   -0.6149 C.ar    1  LIG1       -0.0366
      3 C          -0.8580    1.2292    0.0893 C.ar    1  LIG1       -0.0443
      4 C           1.9471    1.1348    0.0579 C.ar    1  LIG1       -0.0164
      5 H           1.7109   -0.6233   -1.1667 H       1  LIG1        0.0636
      6 C          -0.1196    2.1982    0.7570 C.ar    1  LIG1       -0.0600
      7 C           1.2725    2.1507    0.7405 C.ar    1  LIG1       -0.0539
      8 H          -0.6275    2.9884    1.2927 H       1  LIG1        0.0618
      9 H          -1.9391    1.2489    0.0895 H       1  LIG1        0.0630
     10 N          -1.5587   -1.5866   -1.8642 N.1     1  LIG1       -0.1909
     11 C          -0.9478   -0.7933   -1.3037 C.1     1  LIG1        0.0992
     12 H           1.8499    2.8990    1.2691 H       1  LIG1        0.0624
     13 C           4.1749    0.0186    0.5123 C.ar    1  LIG1       -0.0420
     14 C           5.5584    0.1022    0.4542 C.ar    1  LIG1       -0.0458
     15 C           3.4431    1.1166    0.0261 C.ar    1  LIG1       -0.0132
     16 C           6.2303    1.2117   -0.0745 C.ar    1  LIG1        0.0395
     17 H           6.1460   -0.7173    0.8505 H       1  LIG1        0.0628
     18 C           4.0954    2.2311   -0.4855 C.ar    1  LIG1       -0.0324
     19 C           5.4919    2.3100   -0.5580 C.ar    1  LIG1        0.0360
     20 H           3.5054    3.0606   -0.8582 H       1  LIG1        0.0642
     21 C           3.5107   -1.2037    1.1233 C.3     1  LIG1       -0.0391
     22 H           4.2168   -1.7155    1.7765 H       1  LIG1        0.0278
     23 H           3.1942   -1.9082    0.3519 H       1  LIG1        0.0278
     24 H           2.6350   -0.9170    1.7058 H       1  LIG1        0.0278
     25 N           6.0777    3.4634   -1.0653 N.pl3   1  LIG1       -0.3574
     26 H           7.0251    3.3761   -1.4016 H       1  LIG1        0.1423
     27 H           5.4811    3.9977   -1.6803 H       1  LIG1        0.1423
     28 C           7.6971    1.1967   -0.0987 C.ar    1  LIG1        0.1551
     29 C           8.6356    0.1997   -0.1285 C.ar    1  LIG1        0.1010
     30 C           9.9434    0.8124   -0.0844 C.ar    1  LIG1        0.0148
     31 C           9.6919    2.1448   -0.0532 C.ar    1  LIG1        0.1559
     32 O           8.3506    2.3765   -0.0597 O.2     1  LIG1       -0.4517
     33 N           8.2193   -2.3445   -0.2449 N.1     1  LIG1       -0.1907
     34 C           8.3900   -1.2099   -0.1993 C.1     1  LIG1        0.1032
     35 C          11.2718    0.1051   -0.0709 C.3     1  LIG1       -0.0348
     36 H          11.9689    0.6387    0.5755 H       1  LIG1        0.0279
     37 H          11.6883    0.0513   -1.0778 H       1  LIG1        0.0279
     38 H          11.1431   -0.9087    0.3057 H       1  LIG1        0.0279
     39 C          10.5166    3.3422   -0.0059 C.ar    1  LIG1        0.0837
     40 C          11.8537    3.5583   -0.2426 C.ar    1  LIG1       -0.0160
     41 C          12.0761    4.9499   -0.0313 C.ar    1  LIG1        0.0697
     42 C          10.8712    5.5260    0.3161 C.ar    1  LIG1        0.0197
     43 N           9.9423    4.5432    0.3265 N.ar    1  LIG1       -0.3571
     44 H           8.9621    4.6498    0.5479 H       1  LIG1        0.1655
     45 H          10.6353    6.5492    0.5496 H       1  LIG1        0.0820
     46 H          12.5860    2.8320   -0.5485 H       1  LIG1        0.0653
     47 N          14.3196    6.2066   -0.2736 N.1     1  LIG1       -0.1908
     48 C          13.3212    5.6512   -0.1642 C.1     1  LIG1        0.1007
@<TRIPOS>BOND
     1    10    11    3
     2    27    25    1
     3    26    25    1
     4    11     1    1
     5     5     2    1
     6    37    35    1
     7    25    19    1
     8    20    18    1
     9     2     1   ar
    10     2     4   ar
    11     1     3   ar
    12    19    18   ar
    13    19    16   ar
    14    46    40    1
    15    18    15   ar
    16    47    48    3
    17    33    34    3
    18    40    41   ar
    19    40    39   ar
    20    34    29    1
    21    48    41    1
    22    29    28   ar
    23    29    30   ar
    24    28    16    1
    25    28    32   ar
    26    30    35    1
    27    30    31   ar
    28    16    14   ar
    29    35    38    1
    30    35    36    1
    31    32    31   ar
    32    31    39    1
    33    41    42   ar
    34    39    43   ar
    35    15     4    1
    36    15    13   ar
    37     4     7   ar
    38     3     9    1
    39     3     6   ar
    40    42    43   ar
    41    42    45    1
    42    43    44    1
    43    23    21    1
    44    14    13   ar
    45    14    17    1
    46    13    21    1
    47     7     6   ar
    48     7    12    1
    49     6     8    1
    50    21    24    1
    51    21    22    1
