@<TRIPOS>MOLECULE
mol_data/opt/m06hf/geoms/mol2/4da4dd4de-4fd-.out
 50 53 0 0 0
SMALL
GASTEIGER

@<TRIPOS>ATOM
      1 C          -0.2589    0.1279    0.3966 C.ar    1  LIG1        0.0523
      2 C           1.1337    0.0715    0.4049 C.ar    1  LIG1       -0.0366
      3 C          -0.9347    1.2621   -0.0573 C.ar    1  LIG1       -0.0443
      4 C           1.8613    1.1727   -0.0460 C.ar    1  LIG1       -0.0154
      5 H           1.6338   -0.8161    0.7698 H       1  LIG1        0.0636
      6 C          -0.2023    2.3541   -0.5065 C.ar    1  LIG1       -0.0600
      7 C           1.1887    2.3104   -0.4996 C.ar    1  LIG1       -0.0539
      8 H          -0.7136    3.2362   -0.8664 H       1  LIG1        0.0618
      9 H          -2.0158    1.2778   -0.0538 H       1  LIG1        0.0630
     10 N          -1.6439   -1.8924    1.2608 N.1     1  LIG1       -0.1909
     11 C          -1.0244   -1.0062    0.8778 C.1     1  LIG1        0.0992
     12 H           1.7595    3.1551   -0.8649 H       1  LIG1        0.0624
     13 C           4.0988    0.1154   -0.6009 C.ar    1  LIG1        0.0601
     14 C           5.4926    0.1139   -0.5747 C.ar    1  LIG1       -0.0348
     15 C           3.3533    1.1559   -0.0274 C.ar    1  LIG1        0.0008
     16 C           6.1884    1.1634    0.0200 C.ar    1  LIG1        0.0020
     17 H           6.0307   -0.7040   -1.0350 H       1  LIG1        0.0637
     18 C           4.0518    2.2036    0.5678 C.ar    1  LIG1       -0.0348
     19 C           5.4460    2.2073    0.5880 C.ar    1  LIG1        0.0601
     20 H           3.5110    3.0117    1.0419 H       1  LIG1        0.0637
     21 N           2.9289   -1.8530   -1.8270 N.1     1  LIG1       -0.1908
     22 C           3.4315   -0.9792   -1.2794 C.1     1  LIG1        0.0998
     23 N           6.6275    4.2066    1.7518 N.1     1  LIG1       -0.1908
     24 C           6.1186    3.3152    1.2398 C.1     1  LIG1        0.0998
     25 C           8.3997    0.0884    0.5772 C.ar    1  LIG1        0.0601
     26 C           9.7908    0.0815    0.5755 C.ar    1  LIG1       -0.0348
     27 C           7.6802    1.1648    0.0359 C.ar    1  LIG1        0.0019
     28 C          10.5049    1.1486    0.0323 C.ar    1  LIG1        0.0023
     29 H          10.3200   -0.7604    0.9990 H       1  LIG1        0.0637
     30 C           8.3916    2.2272   -0.5064 C.ar    1  LIG1       -0.0368
     31 C           9.7912    2.2261   -0.5178 C.ar    1  LIG1        0.0331
     32 H           7.8674    3.0673   -0.9420 H       1  LIG1        0.0636
     33 N           7.1613   -1.9353    1.6338 N.1     1  LIG1       -0.1908
     34 C           7.7021   -1.0358    1.1704 C.1     1  LIG1        0.0998
     35 C          10.4670    3.3449   -1.1306 C.1     1  LIG1       -0.0690
     36 C          11.0030    4.2875   -1.6478 C.1     1  LIG1       -0.1139
     37 H          11.4859    5.1227   -2.1018 H       1  LIG1        0.1232
     38 C          12.7059    0.0198   -0.4130 C.ar    1  LIG1        0.1246
     39 C          14.1015    0.0031   -0.3909 C.ar    1  LIG1       -0.0184
     40 C          11.9960    1.1336    0.0601 C.ar    1  LIG1        0.0260
     41 C          14.8017    1.0908    0.1056 C.ar    1  LIG1       -0.0409
     42 H          14.6344   -0.8633   -0.7637 H       1  LIG1        0.0655
     43 C          12.7087    2.2179    0.5624 C.ar    1  LIG1       -0.0331
     44 C          14.1027    2.1995    0.5843 C.ar    1  LIG1        0.0526
     45 H          12.1771    3.0809    0.9406 H       1  LIG1        0.0638
     46 H          15.8828    1.0842    0.1268 H       1  LIG1        0.0631
     47 O          11.9872   -1.0251   -0.8877 O.3     1  LIG1       -0.5062
     48 H          12.5622   -1.7142   -1.2379 H       1  LIG1        0.2922
     49 N          15.4053    4.2437    1.5108 N.1     1  LIG1       -0.1909
     50 C          14.8278    3.3395    1.1039 C.1     1  LIG1        0.0992
@<TRIPOS>BOND
     1    37    36    1
     2    21    22    3
     3    36    35    3
     4    22    13    1
     5    48    47    1
     6    35    31    1
     7    17    14    1
     8    32    30    1
     9    47    38    1
    10     8     6    1
    11    12     7    1
    12    42    39    1
    13    13    14   ar
    14    13    15   ar
    15    14    16   ar
    16    31    30   ar
    17    31    28   ar
    18     6     7   ar
    19     6     3   ar
    20    30    27   ar
    21     7     4   ar
    22    38    39   ar
    23    38    40   ar
    24    39    41   ar
    25     3     9    1
    26     3     1   ar
    27     4    15    1
    28     4     2   ar
    29    15    18   ar
    30    16    27    1
    31    16    19   ar
    32    28    40    1
    33    28    26   ar
    34    27    25   ar
    35    40    43   ar
    36    41    46    1
    37    41    44   ar
    38     1     2   ar
    39     1    11    1
    40     2     5    1
    41    43    44   ar
    42    43    45    1
    43    18    19   ar
    44    18    20    1
    45    26    25   ar
    46    26    29    1
    47    25    34    1
    48    44    50    1
    49    19    24    1
    50    11    10    3
    51    50    49    3
    52    34    33    3
    53    24    23    3
