@<TRIPOS>MOLECULE
mol_data/opt/m06hf/geoms/mol2/4dd.out
 14 14 0 0 0
SMALL
GASTEIGER

@<TRIPOS>ATOM
      1 C           0.0919    0.0565    0.0004 C.ar    1  LIG1        0.0518
      2 C           1.4874    0.0197    0.0000 C.ar    1  LIG1       -0.0431
      3 C          -0.6033    1.2671    0.0003 C.ar    1  LIG1       -0.0431
      4 C           2.1985    1.2117   -0.0005 C.ar    1  LIG1       -0.0431
      5 H           2.0010   -0.9312    0.0001 H       1  LIG1        0.0631
      6 C           0.1078    2.4591   -0.0002 C.ar    1  LIG1       -0.0431
      7 C           1.5033    2.4223   -0.0006 C.ar    1  LIG1        0.0518
      8 H          -0.4059    3.4100   -0.0003 H       1  LIG1        0.0631
      9 H           3.2794    1.2114   -0.0007 H       1  LIG1        0.0631
     10 H          -1.6842    1.2674    0.0006 H       1  LIG1        0.0631
     11 N          -1.2388   -2.1742    0.0012 N.1     1  LIG1       -0.1909
     12 C          -0.6514   -1.1892    0.0009 C.1     1  LIG1        0.0992
     13 N           2.8340    4.6530   -0.0014 N.1     1  LIG1       -0.1909
     14 C           2.2466    3.6680   -0.0010 C.1     1  LIG1        0.0992
@<TRIPOS>BOND
     1    13    14    3
     2    14     7    1
     3     9     4    1
     4     7     4   ar
     5     7     6   ar
     6     4     2   ar
     7     8     6    1
     8     6     3   ar
     9     2     5    1
    10     2     1   ar
    11     3     1   ar
    12     3    10    1
    13     1    12    1
    14    12    11    3
