@<TRIPOS>MOLECULE
mol_data/opt/m06hf/geoms/mol2/4dd13da-6ha12ea.out
 43 46 0 0 0
SMALL
GASTEIGER

@<TRIPOS>ATOM
      1 C           0.0905   -0.0544    0.8900 C.ar    1  LIG1        0.0525
      2 C           1.4549    0.0006    0.6154 C.ar    1  LIG1       -0.0340
      3 C          -0.7611    1.0091    0.5832 C.ar    1  LIG1       -0.0431
      4 C           1.9969    1.1369    0.0125 C.ar    1  LIG1        0.0181
      5 H           2.0932   -0.8331    0.8753 H       1  LIG1        0.0637
      6 C          -0.2325    2.1411   -0.0173 C.ar    1  LIG1       -0.0425
      7 C           1.1322    2.1973   -0.3049 C.ar    1  LIG1        0.0610
      8 H          -0.8661    2.9771   -0.2785 H       1  LIG1        0.0631
      9 H          -1.8148    0.9406    0.8122 H       1  LIG1        0.0631
     10 N          -0.8984   -2.1555    2.0533 N.1     1  LIG1       -0.1909
     11 C          -0.4569   -1.2333    1.5337 C.1     1  LIG1        0.0992
     12 N           2.0562    4.3058   -1.5098 N.1     1  LIG1       -0.1908
     13 C           1.6451    3.3745   -0.9793 C.1     1  LIG1        0.0998
     14 C           3.4372    1.1821   -0.2951 C.ar    1  LIG1        0.0658
     15 C           4.2598    0.1858   -0.8058 C.ar    1  LIG1        0.0776
     16 C           5.5559    0.7334   -0.9749 C.ar    1  LIG1       -0.0183
     17 C           5.4907    2.0459   -0.5509 C.ar    1  LIG1        0.0515
     18 N           4.2062    2.2883   -0.1501 N.ar    1  LIG1       -0.3530
     19 H           3.9238    3.1948    0.2184 H       1  LIG1        0.1659
     20 N           3.4817   -2.2071   -1.3871 N.1     1  LIG1       -0.1908
     21 C           3.8324   -1.1420   -1.1399 C.1     1  LIG1        0.1013
     22 H           6.4118    0.2217   -1.3796 H       1  LIG1        0.0652
     23 C           6.2667    4.4469   -0.3783 C.ar    1  LIG1        0.1261
     24 C           6.5491    3.0645   -0.4398 C.ar    1  LIG1        0.0379
     25 C           7.8852    2.6895   -0.3439 C.ar    1  LIG1       -0.0472
     26 C           8.8769    3.6459   -0.1737 C.ar    1  LIG1       -0.0319
     27 C           8.4776    4.9777   -0.0745 C.ar    1  LIG1        0.1093
     28 N           7.2038    5.3597   -0.1858 N.ar    1  LIG1       -0.2286
     29 H           8.1454    1.6391   -0.3706 H       1  LIG1        0.0626
     30 N           4.9443    4.9124   -0.4593 N.pl3   1  LIG1       -0.3426
     31 H           4.9278    5.9222   -0.3639 H       1  LIG1        0.1437
     32 H           4.4457    4.6264   -1.3001 H       1  LIG1        0.1437
     33 H           9.9180    3.3721   -0.0944 H       1  LIG1        0.0640
     34 C           9.4568    6.0559    0.1525 C.ar    1  LIG1        0.1682
     35 C          10.8117    6.0707    0.3698 C.ar    1  LIG1        0.0718
     36 C          11.1752    7.4566    0.5200 C.ar    1  LIG1       -0.0078
     37 C          10.0228    8.1507    0.3827 C.ar    1  LIG1        0.0939
     38 O           8.9916    7.3153    0.1623 O.2     1  LIG1       -0.4601
     39 H           9.7890    9.1999    0.4149 H       1  LIG1        0.1030
     40 C          11.7163    4.9629    0.4480 C.1     1  LIG1       -0.0658
     41 C          12.5066    4.0597    0.5206 C.1     1  LIG1       -0.1138
     42 H          13.2139    3.2657    0.5905 H       1  LIG1        0.1232
     43 H          12.1629    7.8409    0.7045 H       1  LIG1        0.0661
@<TRIPOS>BOND
     1    12    13    3
     2    20    21    3
     3    22    16    1
     4    32    30    1
     5    21    15    1
     6    13     7    1
     7    16    15   ar
     8    16    17   ar
     9    15    14   ar
    10    17    24    1
    11    17    18   ar
    12    30    23    1
    13    30    31    1
    14    24    23   ar
    15    24    25   ar
    16    23    28   ar
    17    29    25    1
    18    25    26   ar
    19     7     6   ar
    20     7     4   ar
    21    14    18   ar
    22    14     4    1
    23     8     6    1
    24    28    27   ar
    25    26    33    1
    26    26    27   ar
    27    18    19    1
    28    27    34    1
    29     6     3   ar
    30     4     2   ar
    31    34    38   ar
    32    34    35   ar
    33    38    37   ar
    34    35    40    1
    35    35    36   ar
    36    37    39    1
    37    37    36   ar
    38    40    41    3
    39    36    43    1
    40    41    42    1
    41     3     9    1
    42     3     1   ar
    43     2     5    1
    44     2     1   ar
    45     1    11    1
    46    11    10    3
