@<TRIPOS>MOLECULE
mol_data/opt/m06hf/geoms/mol2/4dd4dd4dd.out
 38 40 0 0 0
SMALL
GASTEIGER

@<TRIPOS>ATOM
      1 C          -0.1034    0.4822    0.9877 C.ar    1  LIG1        0.0524
      2 C           1.2908    0.4733    0.9760 C.ar    1  LIG1       -0.0354
      3 C          -0.8326    1.1714    0.0181 C.ar    1  LIG1       -0.0431
      4 C           1.9810    1.1649   -0.0167 C.ar    1  LIG1        0.0020
      5 H           1.8291   -0.0660    1.7443 H       1  LIG1        0.0637
      6 C          -0.1521    1.8607   -0.9746 C.ar    1  LIG1       -0.0425
      7 C           1.2436    1.8557   -0.9891 C.ar    1  LIG1        0.0596
      8 H          -0.6883    2.3989   -1.7436 H       1  LIG1        0.0631
      9 H          -1.9132    1.1639    0.0479 H       1  LIG1        0.0631
     10 N          -1.3587   -0.7893    2.8717 N.1     1  LIG1       -0.1909
     11 C          -0.8042   -0.2316    2.0372 C.1     1  LIG1        0.0992
     12 N           2.4418    3.1640   -2.8862 N.1     1  LIG1       -0.1909
     13 C           1.9229    2.5769   -2.0482 C.1     1  LIG1        0.0998
     14 C           4.2058   -0.0269   -0.0286 C.ar    1  LIG1        0.0601
     15 C           5.5995   -0.0268   -0.0228 C.ar    1  LIG1       -0.0348
     16 C           3.4740    1.1687   -0.0307 C.ar    1  LIG1        0.0020
     17 C           6.3016    1.1755   -0.0213 C.ar    1  LIG1        0.0020
     18 H           6.1297   -0.9700   -0.0176 H       1  LIG1        0.0637
     19 C           4.1763    2.3711   -0.0357 C.ar    1  LIG1       -0.0348
     20 C           5.5701    2.3710   -0.0324 C.ar    1  LIG1        0.0601
     21 H           3.6462    3.3143   -0.0409 H       1  LIG1        0.0637
     22 N           2.9841   -2.3188   -0.0286 N.1     1  LIG1       -0.1908
     23 C           3.5191   -1.3041   -0.0371 C.1     1  LIG1        0.0998
     24 N           6.7935    4.6619   -0.0436 N.1     1  LIG1       -0.1908
     25 C           6.2576    3.6476   -0.0461 C.1     1  LIG1        0.0998
     26 C           8.5371    0.4813   -0.9609 C.ar    1  LIG1        0.0596
     27 C           9.9326    0.4731   -0.9361 C.ar    1  LIG1       -0.0425
     28 C           7.7943    1.1785    0.0027 C.ar    1  LIG1        0.0020
     29 C          10.6073    1.1635    0.0598 C.ar    1  LIG1       -0.0431
     30 H          10.4732   -0.0693   -1.6992 H       1  LIG1        0.0631
     31 C           8.4784    1.8724    0.9978 C.ar    1  LIG1       -0.0354
     32 C           9.8725    1.8595    1.0205 C.ar    1  LIG1        0.0524
     33 H           7.9352    2.4167    1.7592 H       1  LIG1        0.0637
     34 H          11.6877    1.1682    0.0979 H       1  LIG1        0.0631
     35 N           7.3504   -0.8408   -2.8557 N.1     1  LIG1       -0.1909
     36 C           7.8640   -0.2452   -2.0204 C.1     1  LIG1        0.0998
     37 N          11.1193    3.1406    2.9036 N.1     1  LIG1       -0.1909
     38 C          10.5680    2.5773    2.0709 C.1     1  LIG1        0.0992
@<TRIPOS>BOND
     1    12    13    3
     2    35    36    3
     3    13     7    1
     4    36    26    1
     5     8     6    1
     6    30    27    1
     7     7     6   ar
     8     7     4   ar
     9     6     3   ar
    10    26    27   ar
    11    26    28   ar
    12    27    29   ar
    13    25    24    3
    14    25    20    1
    15    21    19    1
    16    23    22    3
    17    23    14    1
    18    19    20   ar
    19    19    16   ar
    20    20    17   ar
    21    16    14   ar
    22    16     4    1
    23    14    15   ar
    24    15    17   ar
    25    15    18    1
    26    17    28    1
    27     4     2   ar
    28    28    31   ar
    29     3     9    1
    30     3     1   ar
    31    29    34    1
    32    29    32   ar
    33     2     1   ar
    34     2     5    1
    35     1    11    1
    36    31    32   ar
    37    31    33    1
    38    32    38    1
    39    11    10    3
    40    38    37    3
