@<TRIPOS>MOLECULE
mol_data/opt/m06hf/geoms/mol2/4dd4dd.out
 26 27 0 0 0
SMALL
GASTEIGER

@<TRIPOS>ATOM
      1 C          -0.0067    0.1773    0.5743 C.ar    1  LIG1        0.0524
      2 C           1.3871    0.1565    0.5773 C.ar    1  LIG1       -0.0354
      3 C          -0.7161    1.2235   -0.0173 C.ar    1  LIG1       -0.0431
      4 C           2.0961    1.1995   -0.0133 C.ar    1  LIG1        0.0020
      5 H           1.9126   -0.6650    1.0460 H       1  LIG1        0.0637
      6 C          -0.0164    2.2632   -0.6116 C.ar    1  LIG1       -0.0425
      7 C           1.3791    2.2475   -0.6074 C.ar    1  LIG1        0.0596
      8 H          -0.5376    3.0842   -1.0835 H       1  LIG1        0.0631
      9 H          -1.7968    1.2161   -0.0070 H       1  LIG1        0.0631
     10 N          -1.3123   -1.7474    1.7297 N.1     1  LIG1       -0.1909
     11 C          -0.7329   -0.9025    1.2139 C.1     1  LIG1        0.0992
     12 N           2.6405    4.2053   -1.7578 N.1     1  LIG1       -0.1909
     13 C           2.0891    3.3363   -1.2511 C.1     1  LIG1        0.0998
     14 C           4.3145    0.1418   -0.5757 C.ar    1  LIG1        0.0596
     15 C           5.7100    0.1262   -0.5605 C.ar    1  LIG1       -0.0425
     16 C           3.5895    1.1962   -0.0030 C.ar    1  LIG1        0.0020
     17 C           6.4015    1.1724    0.0320 C.ar    1  LIG1       -0.0431
     18 H           6.2376   -0.6998   -1.0162 H       1  LIG1        0.0631
     19 C           4.2904    2.2456    0.5859 C.ar    1  LIG1       -0.0354
     20 C           5.6841    2.2249    0.6023 C.ar    1  LIG1        0.0524
     21 H           3.7585    3.0721    1.0384 H       1  LIG1        0.0637
     22 H           7.4819    1.1800    0.0571 H       1  LIG1        0.0631
     23 N           3.0689   -1.8286   -1.7219 N.1     1  LIG1       -0.1909
     24 C           3.6134   -0.9540   -1.2172 C.1     1  LIG1        0.0998
     25 N           6.9737    4.1621    1.7546 N.1     1  LIG1       -0.1909
     26 C           6.4015    3.3117    1.2401 C.1     1  LIG1        0.0992
@<TRIPOS>BOND
     1    12    13    3
     2    23    24    3
     3    13     7    1
     4    24    14    1
     5     8     6    1
     6    18    15    1
     7     6     7   ar
     8     6     3   ar
     9     7     4   ar
    10    14    15   ar
    11    14    16   ar
    12    15    17   ar
    13     3     9    1
    14     3     1   ar
    15     4    16    1
    16     4     2   ar
    17    16    19   ar
    18    17    22    1
    19    17    20   ar
    20     1     2   ar
    21     1    11    1
    22     2     5    1
    23    19    20   ar
    24    19    21    1
    25    20    26    1
    26    11    10    3
    27    26    25    3
