@<TRIPOS>MOLECULE
mol_data/opt/m06hf/geoms/mol2/4dd4dd13fe13ef4di-4ah13da12ef.out
 93 100 0 0 0
SMALL
GASTEIGER

@<TRIPOS>ATOM
      1 C           0.3037   -1.1749    2.5286 C.ar    1  LIG1        0.0524
      2 C           1.6227   -0.9598    2.1329 C.ar    1  LIG1       -0.0354
      3 C          -0.7331   -0.3583    2.0748 C.ar    1  LIG1       -0.0431
      4 C           1.9270    0.0883    1.2660 C.ar    1  LIG1        0.0020
      5 H           2.4071   -1.6057    2.5046 H       1  LIG1        0.0637
      6 C          -0.4394    0.6875    1.2129 C.ar    1  LIG1       -0.0425
      7 C           0.8804    0.9054    0.8138 C.ar    1  LIG1        0.0596
      8 H          -1.2209    1.3346    0.8403 H       1  LIG1        0.0631
      9 H          -1.7481   -0.5454    2.3952 H       1  LIG1        0.0631
     10 N          -0.2348   -3.1243    4.1577 N.1     1  LIG1       -0.1909
     11 C           0.0054   -2.2655    3.4365 C.1     1  LIG1        0.0992
     12 N           1.3528    2.8799   -0.8071 N.1     1  LIG1       -0.1909
     13 C           1.1520    2.0002   -0.0984 C.1     1  LIG1        0.0998
     14 C           4.1043   -0.6902    0.2408 C.ar    1  LIG1        0.0602
     15 C           5.4178   -0.4845   -0.1556 C.ar    1  LIG1       -0.0333
     16 C           3.3353    0.3256    0.8358 C.ar    1  LIG1        0.0020
     17 C           6.0297    0.7676    0.0136 C.ar    1  LIG1        0.0205
     18 H           5.9750   -1.2910   -0.6117 H       1  LIG1        0.0637
     19 C           3.9329    1.5664    1.0062 C.ar    1  LIG1       -0.0347
     20 C           5.2494    1.7841    0.5958 C.ar    1  LIG1        0.0616
     21 H           3.3807    2.3810    1.4568 H       1  LIG1        0.0637
     22 N           3.0751   -3.0423   -0.1610 N.1     1  LIG1       -0.1908
     23 C           3.5228   -2.0008    0.0140 C.1     1  LIG1        0.0998
     24 N           6.2448    4.1630    0.9064 N.1     1  LIG1       -0.1908
     25 C           5.7868    3.1182    0.7716 C.1     1  LIG1        0.0998
     26 C           7.4050    0.9445   -0.4362 C.ar    1  LIG1        0.0915
     27 C           8.1360    0.1700   -1.3207 C.ar    1  LIG1        0.1581
     28 C           9.4104    0.7658   -1.5008 C.ar    1  LIG1        0.0934
     29 C           9.4314    1.8986   -0.6958 C.ar    1  LIG1        0.0839
     30 N           8.2348    1.9888   -0.0741 N.ar    1  LIG1       -0.3490
     31 H           8.0379    2.6572    0.6569 H       1  LIG1        0.1661
     32 O           7.6985   -0.9435   -1.9462 O.3     1  LIG1       -0.5035
     33 H           8.3908   -1.2584   -2.5442 H       1  LIG1        0.2923
     34 C          10.3734    0.2707   -2.4311 C.1     1  LIG1       -0.0638
     35 C          11.1225   -0.2049   -3.2426 C.1     1  LIG1       -0.1137
     36 H          11.8136   -0.6017   -3.9500 H       1  LIG1        0.1232
     37 C          10.4430    2.9309   -0.5121 C.ar    1  LIG1        0.0839
     38 C          11.8218    2.8482   -0.4047 C.ar    1  LIG1        0.0934
     39 C          12.2941    4.1774   -0.2021 C.ar    1  LIG1        0.1581
     40 C          11.1979    5.0196   -0.1814 C.ar    1  LIG1        0.0915
     41 N          10.0871    4.2390   -0.3752 N.ar    1  LIG1       -0.3490
     42 H           9.1394    4.5876   -0.4184 H       1  LIG1        0.1661
     43 C          12.6220    1.6641   -0.4241 C.1     1  LIG1       -0.0638
     44 C          13.2974    0.6710   -0.4199 C.1     1  LIG1       -0.1137
     45 H          13.8965   -0.2094   -0.4151 H       1  LIG1        0.1232
     46 O          13.6008    4.5426   -0.1403 O.3     1  LIG1       -0.5035
     47 H          13.8775    4.6342    0.7836 H       1  LIG1        0.2923
     48 C          11.8808    7.2013    0.8482 C.ar    1  LIG1        0.0616
     49 C          11.8086    8.5913    0.9128 C.ar    1  LIG1       -0.0357
     50 C          11.1120    6.4843   -0.0781 C.ar    1  LIG1        0.0196
     51 C          10.9505    9.2945    0.0718 C.ar    1  LIG1       -0.0137
     52 H          12.4245    9.1266    1.6241 H       1  LIG1        0.0637
     53 C          10.2473    7.2059   -0.9032 C.ar    1  LIG1       -0.0478
     54 C          10.1412    8.5939   -0.8396 C.ar    1  LIG1       -0.0420
     55 H           9.6536    6.6685   -1.6339 H       1  LIG1        0.0627
     56 N          13.4046    5.9418    2.5302 N.1     1  LIG1       -0.1908
     57 C          12.7326    6.5006    1.7845 C.1     1  LIG1        0.0998
     58 C           9.1538    9.3100   -1.7438 C.3     1  LIG1       -0.0391
     59 H           8.3660    8.6223   -2.0484 H       1  LIG1        0.0278
     60 H           9.6515    9.6809   -2.6419 H       1  LIG1        0.0278
     61 H           8.7089   10.1581   -1.2241 H       1  LIG1        0.0278
     62 C          10.5790   11.3920    1.3934 C.ar    1  LIG1       -0.0533
     63 C          10.5600   12.7781    1.4891 C.ar    1  LIG1       -0.0503
     64 C          10.9105   10.7857    0.1819 C.ar    1  LIG1       -0.0158
     65 C          10.8811   13.5801    0.3928 C.ar    1  LIG1        0.0202
     66 H          10.2764   13.2480    2.4217 H       1  LIG1        0.0625
     67 C          11.2497   11.5796   -0.9137 C.ar    1  LIG1       -0.0327
     68 C          11.2484   12.9698   -0.8224 C.ar    1  LIG1        0.0344
     69 H          11.5550   11.1080   -1.8410 H       1  LIG1        0.0642
     70 H          10.3134   10.7829    2.2473 H       1  LIG1        0.0624
     71 N          11.5779   13.7670   -1.9418 N.pl3   1  LIG1       -0.3574
     72 H          12.2722   14.4768   -1.7238 H       1  LIG1        0.1423
     73 H          11.8829   13.2166   -2.7353 H       1  LIG1        0.1423
     74 C          10.8022   15.0493    0.5134 C.ar    1  LIG1        0.0663
     75 C          11.0041   15.8857    1.6079 C.ar    1  LIG1        0.0777
     76 C          10.7396   17.2207    1.2054 C.ar    1  LIG1       -0.0153
     77 C          10.3869   17.1573   -0.1238 C.ar    1  LIG1        0.0851
     78 N          10.4345   15.8492   -0.5183 N.ar    1  LIG1       -0.3506
     79 H          10.2390   15.5021   -1.4512 H       1  LIG1        0.1660
     80 N          11.7460   15.1201    3.9609 N.1     1  LIG1       -0.1908
     81 C          11.4228   15.4627    2.9130 C.1     1  LIG1        0.1013
     82 H          10.8074   18.1099    1.8075 H       1  LIG1        0.0653
     83 C          10.0220   18.1984   -1.0669 C.ar    1  LIG1        0.1699
     84 C           9.8915   19.5518   -0.9455 C.ar    1  LIG1        0.1132
     85 C           9.5012   20.0133   -2.2569 C.ar    1  LIG1        0.1709
     86 C           9.4285   18.9200   -3.0514 C.ar    1  LIG1        0.1352
     87 O           9.7471   17.8108   -2.3240 O.2     1  LIG1       -0.4564
     88 H           9.1794   18.7717   -4.0861 H       1  LIG1        0.1068
     89 C          10.0916   20.3440    0.2250 C.1     1  LIG1       -0.0621
     90 C          10.2610   21.0065    1.2131 C.1     1  LIG1       -0.1137
     91 H          10.4070   21.6012    2.0853 H       1  LIG1        0.1232
     92 O           9.2803   21.3192   -2.5241 O.3     1  LIG1       -0.5028
     93 H           9.0060   21.4414   -3.4391 H       1  LIG1        0.2923
@<TRIPOS>BOND
     1    88    86    1
     2    36    35    1
     3    93    92    1
     4    35    34    3
     5    86    87   ar
     6    86    85   ar
     7    73    71    1
     8    60    58    1
     9    33    32    1
    10    92    85    1
    11    34    28    1
    12    87    83   ar
    13    85    84   ar
    14    59    58    1
    15    32    27    1
    16    71    72    1
    17    71    68    1
    18    69    67    1
    19    58    61    1
    20    58    54    1
    21    55    53    1
    22    28    27   ar
    23    28    29   ar
    24    79    78    1
    25    27    26   ar
    26    83    84   ar
    27    83    77    1
    28    84    89    1
    29    67    68   ar
    30    67    64   ar
    31    53    54   ar
    32    53    50   ar
    33    54    51   ar
    34    68    65   ar
    35    12    13    3
    36    29    37    1
    37    29    30   ar
    38    18    15    1
    39    78    77   ar
    40    78    74   ar
    41    37    38   ar
    42    37    41   ar
    43    26    30   ar
    44    26    17    1
    45    43    44    3
    46    43    38    1
    47    44    45    1
    48    42    41    1
    49    38    39   ar
    50    41    40   ar
    51    39    40   ar
    52    39    46    1
    53    40    50    1
    54    22    23    3
    55    15    17   ar
    56    15    14   ar
    57    46    47    1
    58    77    76   ar
    59    13     7    1
    60    50    48   ar
    61    30    31    1
    62    17    20   ar
    63    23    14    1
    64    51    64    1
    65    51    49   ar
    66    64    62   ar
    67    89    90    3
    68    14    16   ar
    69    65    74    1
    70    65    63   ar
    71    74    75   ar
    72    20    25    1
    73    20    19   ar
    74    25    24    3
    75     7     6   ar
    76     7     4   ar
    77    16    19   ar
    78    16     4    1
    79     8     6    1
    80    48    49   ar
    81    48    57    1
    82    49    52    1
    83    19    21    1
    84    76    75   ar
    85    76    82    1
    86     6     3   ar
    87    90    91    1
    88     4     2   ar
    89    62    63   ar
    90    62    70    1
    91    63    66    1
    92    75    81    1
    93    57    56    3
    94     3     9    1
    95     3     1   ar
    96     2     5    1
    97     2     1   ar
    98     1    11    1
    99    81    80    3
   100    11    10    3
