@<TRIPOS>MOLECULE
mol_data/opt/m06hf/geoms/mol2/4dd4dd4dd4dd.out
 50 53 0 0 0
SMALL
GASTEIGER

@<TRIPOS>ATOM
      1 C          -0.2164    0.9837    1.2157 C.ar    1  LIG1        0.0524
      2 C           1.1779    0.9823    1.2111 C.ar    1  LIG1       -0.0354
      3 C          -0.9456    1.1301    0.0353 C.ar    1  LIG1       -0.0431
      4 C           1.8664    1.1333    0.0100 C.ar    1  LIG1        0.0020
      5 H           1.7167    0.8693    2.1424 H       1  LIG1        0.0637
      6 C          -0.2663    1.2801   -1.1648 C.ar    1  LIG1       -0.0425
      7 C           1.1294    1.2832   -1.1735 C.ar    1  LIG1        0.0596
      8 H          -0.8028    1.3911   -2.0964 H       1  LIG1        0.0631
      9 H          -2.0263    1.1265    0.0649 H       1  LIG1        0.0631
     10 N          -1.4807    0.7369    3.4701 N.1     1  LIG1       -0.1909
     11 C          -0.9201    0.8411    2.4753 C.1     1  LIG1        0.0992
     12 N           2.3351    1.5737   -3.4553 N.1     1  LIG1       -0.1909
     13 C           1.8113    1.4350   -2.4443 C.1     1  LIG1        0.0998
     14 C           4.0966    0.0742    0.5310 C.ar    1  LIG1        0.0601
     15 C           5.4905    0.0766    0.5213 C.ar    1  LIG1       -0.0348
     16 C           3.3596    1.1381   -0.0065 C.ar    1  LIG1        0.0020
     17 C           6.1863    1.1502   -0.0268 C.ar    1  LIG1        0.0020
     18 H           6.0236   -0.7644    0.9447 H       1  LIG1        0.0637
     19 C           4.0560    2.2101   -0.5578 C.ar    1  LIG1       -0.0348
     20 C           5.4496    2.2142   -0.5657 C.ar    1  LIG1        0.0601
     21 H           3.5218    3.0492   -0.9833 H       1  LIG1        0.0637
     22 N           2.8943   -1.9599    1.6086 N.1     1  LIG1       -0.1908
     23 C           3.4171   -1.0644    1.1184 C.1     1  LIG1        0.0998
     24 N           6.6537    4.2644   -1.6096 N.1     1  LIG1       -0.1908
     25 C           6.1286    3.3512   -1.1563 C.1     1  LIG1        0.0998
     26 C           8.4161    0.0994   -0.5693 C.ar    1  LIG1        0.0601
     27 C           9.8097    0.1035   -0.5609 C.ar    1  LIG1       -0.0348
     28 C           7.6791    1.1613   -0.0265 C.ar    1  LIG1        0.0020
     29 C          10.5058    1.1734   -0.0051 C.ar    1  LIG1        0.0020
     30 H          10.3441   -0.7339   -0.9895 H       1  LIG1        0.0637
     31 C           8.3747    2.2328    0.5260 C.ar    1  LIG1       -0.0348
     32 C           9.7686    2.2352    0.5363 C.ar    1  LIG1        0.0601
     33 H           7.8415    3.0721    0.9525 H       1  LIG1        0.0637
     34 N           7.2124   -1.9467   -1.6216 N.1     1  LIG1       -0.1908
     35 C           7.7373   -1.0352   -1.1646 C.1     1  LIG1        0.0998
     36 N          10.9705    4.2651    1.6222 N.1     1  LIG1       -0.1908
     37 C          10.4479    3.3714    1.1284 C.1     1  LIG1        0.0998
     38 C          12.7365    1.0329   -1.1718 C.ar    1  LIG1        0.0596
     39 C          14.1322    1.0359   -1.1625 C.ar    1  LIG1       -0.0425
     40 C          11.9991    1.1781    0.0120 C.ar    1  LIG1        0.0020
     41 C          14.8110    1.1813    0.0383 C.ar    1  LIG1       -0.0431
     42 H          14.6690    0.9287   -2.0944 H       1  LIG1        0.0631
     43 C          12.6871    1.3244    1.2140 C.ar    1  LIG1       -0.0354
     44 C          14.0814    1.3230    1.2191 C.ar    1  LIG1        0.0524
     45 H          12.1479    1.4337    2.1455 H       1  LIG1        0.0637
     46 H          15.8917    1.1848    0.0685 H       1  LIG1        0.0631
     47 N          11.5316    0.7513   -3.4552 N.1     1  LIG1       -0.1909
     48 C          12.0551    0.8861   -2.4434 C.1     1  LIG1        0.0998
     49 N          15.3448    1.5609    3.4749 N.1     1  LIG1       -0.1909
     50 C          14.7846    1.4606    2.4795 C.1     1  LIG1        0.0992
@<TRIPOS>BOND
     1    12    13    3
     2    47    48    3
     3    13     7    1
     4    48    38    1
     5     8     6    1
     6    42    39    1
     7    34    35    3
     8    24    25    3
     9     7     6   ar
    10     7     4   ar
    11    38    39   ar
    12    38    40   ar
    13     6     3   ar
    14    35    26    1
    15    39    41   ar
    16    25    20    1
    17    30    27    1
    18    21    19    1
    19    26    27   ar
    20    26    28   ar
    21    20    19   ar
    22    20    17   ar
    23    27    29   ar
    24    19    16   ar
    25    17    28    1
    26    17    15   ar
    27    28    31   ar
    28    16     4    1
    29    16    14   ar
    30    29    40    1
    31    29    32   ar
    32     4     2   ar
    33    40    43   ar
    34     3     9    1
    35     3     1   ar
    36    41    46    1
    37    41    44   ar
    38    15    14   ar
    39    15    18    1
    40    31    32   ar
    41    31    33    1
    42    14    23    1
    43    32    37    1
    44    23    22    3
    45    37    36    3
    46     2     1   ar
    47     2     5    1
    48    43    44   ar
    49    43    45    1
    50     1    11    1
    51    44    50    1
    52    11    10    3
    53    50    49    3
