@<TRIPOS>MOLECULE
mol_data/opt/m06hf/geoms/mol2/4de4df-13ee-4fi-.out
 53 56 0 0 0
SMALL
GASTEIGER

@<TRIPOS>ATOM
      1 C          -0.1630    0.7949   -1.1418 C.ar    1  LIG1        0.0524
      2 C           1.2279    0.7651   -1.0684 C.ar    1  LIG1       -0.0354
      3 C          -0.9273    1.3121   -0.0945 C.ar    1  LIG1       -0.0432
      4 C           1.8774    1.2612    0.0600 C.ar    1  LIG1        0.0001
      5 H           1.8014    0.3622   -1.8928 H       1  LIG1        0.0637
      6 C          -0.2852    1.8022    1.0313 C.ar    1  LIG1       -0.0445
      7 C           1.1121    1.7831    1.1167 C.ar    1  LIG1        0.0325
      8 H          -0.8536    2.2004    1.8597 H       1  LIG1        0.0630
      9 H          -2.0057    1.3253   -0.1698 H       1  LIG1        0.0631
     10 N          -1.3546   -0.0817   -3.2761 N.1     1  LIG1       -0.1909
     11 C          -0.8255    0.2976   -2.3318 C.1     1  LIG1        0.0992
     12 C           1.7378    2.2860    2.3178 C.1     1  LIG1       -0.0691
     13 C           2.2274    2.7050    3.3319 C.1     1  LIG1       -0.1139
     14 H           2.6648    3.0621    4.2359 H       1  LIG1        0.1232
     15 C           4.0976    0.0599   -0.0470 C.ar    1  LIG1        0.0603
     16 C           5.4908    0.0664   -0.0232 C.ar    1  LIG1       -0.0311
     17 C           3.3683    1.2433    0.1165 C.ar    1  LIG1        0.0042
     18 C           6.2073    1.2460    0.1778 C.ar    1  LIG1        0.0422
     19 H           6.0252   -0.8632   -0.1561 H       1  LIG1        0.0638
     20 C           4.0757    2.4249    0.3048 C.ar    1  LIG1       -0.0105
     21 C           5.4655    2.4304    0.3336 C.ar    1  LIG1        0.1266
     22 H           3.5324    3.3548    0.4278 H       1  LIG1        0.0661
     23 N           2.8860   -2.2105   -0.3911 N.1     1  LIG1       -0.1908
     24 C           3.4148   -1.2043   -0.2347 C.1     1  LIG1        0.0998
     25 O           6.1473    3.5994    0.5048 O.3     1  LIG1       -0.5061
     26 H           5.5435    4.3336    0.6590 H       1  LIG1        0.2922
     27 C           7.6795    1.2191    0.2096 C.ar    1  LIG1        0.0673
     28 C           8.5561    0.1520    0.3712 C.ar    1  LIG1        0.0660
     29 C           9.8834    0.6766    0.2974 C.ar    1  LIG1        0.0660
     30 C           9.7704    2.0413    0.0979 C.ar    1  LIG1        0.0672
     31 N           8.4459    2.3366    0.0470 N.ar    1  LIG1       -0.3520
     32 H           8.0603    3.2693   -0.0045 H       1  LIG1        0.1660
     33 C           8.2457   -1.2288    0.5828 C.1     1  LIG1       -0.0663
     34 C           8.0094   -2.3944    0.7605 C.1     1  LIG1       -0.1138
     35 H           7.8051   -3.4271    0.9232 H       1  LIG1        0.1232
     36 C          11.0930   -0.0839    0.3612 C.1     1  LIG1       -0.0663
     37 C          12.1003   -0.7381    0.3998 C.1     1  LIG1       -0.1138
     38 H          12.9882   -1.3256    0.4318 H       1  LIG1        0.1232
     39 C          11.8726    3.2076    0.7766 C.ar    1  LIG1        0.1260
     40 C          12.8376    4.1869    0.5501 C.ar    1  LIG1       -0.0193
     41 C          10.7951    3.0833   -0.1066 C.ar    1  LIG1        0.0412
     42 C          12.7233    5.0435   -0.5379 C.ar    1  LIG1       -0.0554
     43 H          13.6682    4.2864    1.2396 H       1  LIG1        0.0654
     44 C          10.6981    3.9614   -1.1884 C.ar    1  LIG1       -0.0462
     45 C          11.6495    4.9502   -1.4240 C.ar    1  LIG1       -0.0496
     46 H           9.8694    3.8400   -1.8778 H       1  LIG1        0.0628
     47 H          13.4844    5.7985   -0.6972 H       1  LIG1        0.0621
     48 O          11.9111    2.3817    1.8513 O.3     1  LIG1       -0.5061
     49 H          12.7809    2.3931    2.2629 H       1  LIG1        0.2922
     50 C          11.5520    5.8662   -2.6307 C.3     1  LIG1       -0.0397
     51 H          10.5246    5.9213   -2.9894 H       1  LIG1        0.0278
     52 H          12.1793    5.4927   -3.4421 H       1  LIG1        0.0278
     53 H          11.8841    6.8726   -2.3745 H       1  LIG1        0.0278
@<TRIPOS>BOND
     1    52    50    1
     2    10    11    3
     3    51    50    1
     4    50    53    1
     5    50    45    1
     6    11     1    1
     7     5     2    1
     8    46    44    1
     9    45    44   ar
    10    45    42   ar
    11    44    41   ar
    12     1     2   ar
    13     1     3   ar
    14     2     4   ar
    15    47    42    1
    16    42    40   ar
    17    23    24    3
    18    24    15    1
    19     9     3    1
    20    19    16    1
    21    41    30    1
    22    41    39   ar
    23     3     6   ar
    24    15    16   ar
    25    15    17   ar
    26    16    18   ar
    27    32    31    1
    28    31    30   ar
    29    31    27   ar
    30     4    17    1
    31     4     7   ar
    32    30    29   ar
    33    17    20   ar
    34    18    27    1
    35    18    21   ar
    36    27    28   ar
    37    29    36    1
    38    29    28   ar
    39    20    21   ar
    40    20    22    1
    41    21    25    1
    42    36    37    3
    43    28    33    1
    44    37    38    1
    45    25    26    1
    46    40    39   ar
    47    40    43    1
    48    33    34    3
    49    34    35    1
    50    39    48    1
    51     6     7   ar
    52     6     8    1
    53     7    12    1
    54    48    49    1
    55    12    13    3
    56    13    14    1
