@<TRIPOS>MOLECULE
mol_data/opt/m06hf/geoms/mol2/4df12he4dd4eh-4eh-12hf-6hi6hh.out
 102 109 0 0 0
SMALL
GASTEIGER

@<TRIPOS>ATOM
      1 C          -0.0063   -0.7820    0.8392 C.ar    1  LIG1        0.0527
      2 C           1.3604   -0.6483    0.5963 C.ar    1  LIG1       -0.0301
      3 C          -0.8721    0.2861    0.6052 C.ar    1  LIG1       -0.0409
      4 C           1.8753    0.5468    0.0980 C.ar    1  LIG1        0.0617
      5 H           2.0351   -1.4711    0.8001 H       1  LIG1        0.0639
      6 C          -0.3660    1.4817    0.1167 C.ar    1  LIG1       -0.0183
      7 C           0.9970    1.6170   -0.1475 C.ar    1  LIG1        0.1276
      8 H          -1.0321    2.3147   -0.0728 H       1  LIG1        0.0655
      9 H          -1.9292    0.1778    0.8032 H       1  LIG1        0.0631
     10 N          -0.9504   -3.0270    1.7357 N.1     1  LIG1       -0.1909
     11 C          -0.5294   -2.0343    1.3434 C.1     1  LIG1        0.0992
     12 O           1.5147    2.7582   -0.6557 O.3     1  LIG1       -0.5061
     13 H           0.8272    3.4206   -0.7831 H       1  LIG1        0.2922
     14 C           3.3114    0.6417   -0.1782 C.ar    1  LIG1        0.1610
     15 C           4.2029   -0.3006   -0.6030 C.ar    1  LIG1        0.0873
     16 C           5.4823    0.3640   -0.6660 C.ar    1  LIG1        0.0917
     17 C           5.2549    1.6526   -0.2630 C.ar    1  LIG1        0.1541
     18 O           3.9575    1.8196    0.0205 O.2     1  LIG1       -0.4515
     19 N           3.9792   -1.6411   -0.9074 N.pl3   1  LIG1       -0.3541
     20 H           3.1289   -1.8034   -1.4341 H       1  LIG1        0.1425
     21 H           4.7818   -2.0701   -1.3530 H       1  LIG1        0.1425
     22 C           6.6722   -0.2382   -1.1780 C.1     1  LIG1       -0.0640
     23 C           7.6374   -0.7929   -1.6305 C.1     1  LIG1       -0.1137
     24 H           8.5112   -1.2704   -2.0101 H       1  LIG1        0.1232
     25 C           7.4094    2.8990    0.2182 C.ar    1  LIG1        0.0631
     26 C           8.1343    4.0904    0.2184 C.ar    1  LIG1       -0.0347
     27 C           6.0727    2.8705   -0.2029 C.ar    1  LIG1        0.0371
     28 C           7.5446    5.2886   -0.1773 C.ar    1  LIG1        0.0020
     29 H           9.1633    4.0851    0.5507 H       1  LIG1        0.0637
     30 C           5.4673    4.0705   -0.5741 C.ar    1  LIG1       -0.0318
     31 C           6.1946    5.2575   -0.5591 C.ar    1  LIG1        0.0602
     32 H           4.4254    4.0690   -0.8673 H       1  LIG1        0.0638
     33 N           8.6284    0.8323    1.2064 N.1     1  LIG1       -0.1908
     34 C           8.0659    1.7196    0.7450 C.1     1  LIG1        0.0999
     35 N           4.9174    7.4102   -1.2575 N.1     1  LIG1       -0.1908
     36 C           5.5011    6.4746   -0.9410 C.1     1  LIG1        0.0998
     37 C           9.0414    6.9633    0.9646 C.ar    1  LIG1        0.0331
     38 C           9.7783    8.1477    0.9078 C.ar    1  LIG1       -0.0362
     39 C           8.3391    6.5513   -0.1814 C.ar    1  LIG1        0.0005
     40 C           9.8300    8.9238   -0.2434 C.ar    1  LIG1        0.0052
     41 H          10.3151    8.4735    1.7890 H       1  LIG1        0.0637
     42 C           8.3961    7.3140   -1.3397 C.ar    1  LIG1       -0.0315
     43 C           9.1349    8.5033   -1.3946 C.ar    1  LIG1        0.0330
     44 H           7.8660    6.9831   -2.2248 H       1  LIG1        0.0643
     45 C           9.0001    6.2134    2.1967 C.1     1  LIG1       -0.0690
     46 C           8.9789    5.5976    3.2293 C.1     1  LIG1       -0.1139
     47 H           8.9554    5.0517    4.1441 H       1  LIG1        0.1232
     48 N           9.1515    9.2564   -2.5535 N.pl3   1  LIG1       -0.3575
     49 H           9.9313    9.8894   -2.6621 H       1  LIG1        0.1423
     50 H           8.8778    8.7809   -3.4001 H       1  LIG1        0.1423
     51 C          11.9695   10.2461    0.0623 C.ar    1  LIG1        0.0332
     52 C          12.6267   11.4761    0.0595 C.ar    1  LIG1       -0.0332
     53 C          10.5996   10.2040   -0.2506 C.ar    1  LIG1        0.0011
     54 C          11.9717   12.6638   -0.2688 C.ar    1  LIG1        0.0410
     55 H          13.6729   11.5135    0.3381 H       1  LIG1        0.0638
     56 C           9.9394   11.3883   -0.5594 C.ar    1  LIG1       -0.0314
     57 C          10.5920   12.6280   -0.5787 C.ar    1  LIG1        0.0360
     58 H           8.8805   11.3479   -0.7893 H       1  LIG1        0.0643
     59 C          12.7111    9.0498    0.3836 C.1     1  LIG1       -0.0690
     60 C          13.3477    8.0665    0.6548 C.1     1  LIG1       -0.1139
     61 H          13.9062    7.1926    0.8996 H       1  LIG1        0.1232
     62 N           9.8611   13.7716   -0.8488 N.pl3   1  LIG1       -0.3574
     63 H          10.3698   14.5834   -1.1656 H       1  LIG1        0.1423
     64 H           8.9707   13.6252   -1.3001 H       1  LIG1        0.1423
     65 C          12.7445   13.9076   -0.2590 C.ar    1  LIG1        0.1617
     66 C          14.0835   14.1670   -0.3084 C.ar    1  LIG1        0.1138
     67 C          14.2130   15.5902   -0.1588 C.ar    1  LIG1        0.1846
     68 C          12.9604   16.1132   -0.0570 C.ar    1  LIG1        0.1821
     69 O          12.0728   15.0917   -0.1152 O.2     1  LIG1       -0.4490
     70 N          15.1682   13.2937   -0.4270 N.pl3   1  LIG1       -0.3522
     71 H          15.0475   12.5993   -1.1561 H       1  LIG1        0.1425
     72 H          16.0306   13.8104   -0.5601 H       1  LIG1        0.1425
     73 O          15.4221   16.2312   -0.1596 O.3     1  LIG1       -0.5020
     74 H          15.5396   16.7008    0.6762 H       1  LIG1        0.2924
     75 C          11.1793   17.7877    0.5963 C.ar    1  LIG1        0.1277
     76 C          12.4618   17.4818    0.0670 C.ar    1  LIG1        0.0607
     77 C          13.2639   18.5487   -0.3166 C.ar    1  LIG1       -0.0427
     78 C          12.8447   19.8735   -0.1968 C.ar    1  LIG1       -0.0236
     79 C          11.5572   20.0637    0.3207 C.ar    1  LIG1        0.0793
     80 N          10.7750   19.0514    0.7086 N.ar    1  LIG1       -0.2313
     81 H          14.2466   18.3335   -0.7237 H       1  LIG1        0.0629
     82 N          10.3062   16.8400    1.0263 N.pl3   1  LIG1       -0.3426
     83 H           9.4014   17.1675    1.3213 H       1  LIG1        0.1437
     84 H          10.4568   15.8564    0.8735 H       1  LIG1        0.1437
     85 C          13.7845   21.0044   -0.5761 C.3     1  LIG1       -0.0377
     86 H          13.5880   21.8874    0.0306 H       1  LIG1        0.0278
     87 H          13.6797   21.2781   -1.6280 H       1  LIG1        0.0278
     88 H          14.8148   20.6873   -0.4127 H       1  LIG1        0.0278
     89 C          10.3520   21.8287    1.6875 C.ar    1  LIG1        0.1255
     90 C          10.9627   21.4259    0.4754 C.ar    1  LIG1        0.0419
     91 C          10.9839   22.3320   -0.5731 C.ar    1  LIG1       -0.0271
     92 C          10.4338   23.6076   -0.4266 C.ar    1  LIG1        0.0437
     93 C           9.8876   23.9052    0.8175 C.ar    1  LIG1        0.0503
     94 N           9.8438   23.0473    1.8334 N.ar    1  LIG1       -0.2382
     95 H          11.4259   22.0444   -1.5208 H       1  LIG1        0.0644
     96 H           9.4553   24.8839    1.0007 H       1  LIG1        0.0849
     97 N          10.3060   20.9920    2.7844 N.pl3   1  LIG1       -0.3426
     98 H           9.6903   21.3364    3.5073 H       1  LIG1        0.1437
     99 H          10.2165   20.0107    2.5572 H       1  LIG1        0.1437
    100 N          10.4876   24.5538   -1.4718 N.pl3   1  LIG1       -0.3568
    101 H          10.3023   24.1481   -2.3808 H       1  LIG1        0.1424
    102 H           9.8746   25.3445   -1.3168 H       1  LIG1        0.1424
@<TRIPOS>BOND
     1    50    48    1
     2    49    48    1
     3    48    43    1
     4   101   100    1
     5    44    42    1
     6    24    23    1
     7    23    22    3
     8    87    85    1
     9    95    91    1
    10   100   102    1
    11   100    92    1
    12    20    19    1
    13    43    42   ar
    14    43    40   ar
    15    21    19    1
    16    42    39   ar
    17    64    62    1
    18    35    36    3
    19    22    16    1
    20    63    62    1
    21    71    70    1
    22    36    31    1
    23    19    15    1
    24    32    30    1
    25    62    57    1
    26    58    56    1
    27    13    12    1
    28    81    77    1
    29    16    15   ar
    30    16    17   ar
    31    12     7    1
    32    15    14   ar
    33    57    56   ar
    34    57    54   ar
    35    85    88    1
    36    85    78    1
    37    85    86    1
    38    30    31   ar
    39    30    27   ar
    40    91    92   ar
    41    91    90   ar
    42    72    70    1
    43    56    53   ar
    44    31    28   ar
    45    70    66    1
    46    92    93   ar
    47    77    78   ar
    48    77    76   ar
    49    66    65   ar
    50    66    67   ar
    51    54    65    1
    52    54    52   ar
    53    17    27    1
    54    17    18   ar
    55    65    69   ar
    56    53    40    1
    57    53    51   ar
    58    40    38   ar
    59    27    25   ar
    60    78    79   ar
    61    39    28    1
    62    39    37   ar
    63    14    18   ar
    64    14     4    1
    65    28    26   ar
    66    73    67    1
    67    73    74    1
    68    67    68   ar
    69     7     4   ar
    70     7     6   ar
    71    69    68   ar
    72     8     6    1
    73    68    76    1
    74    52    51   ar
    75    52    55    1
    76    51    59    1
    77    76    75   ar
    78     4     2   ar
    79     6     3   ar
    80    25    26   ar
    81    25    34    1
    82    26    29    1
    83    79    90    1
    84    79    80   ar
    85    59    60    3
    86    90    89   ar
    87    75    80   ar
    88    75    82    1
    89     2     5    1
    90     2     1   ar
    91     3     9    1
    92     3     1   ar
    93    60    61    1
    94    34    33    3
    95    93    96    1
    96    93    94   ar
    97     1    11    1
    98    84    82    1
    99    38    37   ar
   100    38    41    1
   101    37    45    1
   102    82    83    1
   103    11    10    3
   104    89    94   ar
   105    89    97    1
   106    45    46    3
   107    99    97    1
   108    97    98    1
   109    46    47    1
