@<TRIPOS>MOLECULE
mol_data/opt/m06hf/geoms/mol2/4df13le-4he6ia-.out
 54 57 0 0 0
SMALL
GASTEIGER

@<TRIPOS>ATOM
      1 C          -0.1671   -0.1666   -1.0535 C.ar    1  LIG1        0.0526
      2 C           1.1699   -0.0892   -0.6697 C.ar    1  LIG1       -0.0316
      3 C          -0.8472    0.9592   -1.5168 C.ar    1  LIG1       -0.0409
      4 C           1.8611    1.1239   -0.7315 C.ar    1  LIG1        0.0445
      5 H           1.6910   -0.9730   -0.3265 H       1  LIG1        0.0638
      6 C          -0.1694    2.1651   -1.5959 C.ar    1  LIG1       -0.0183
      7 C           1.1667    2.2473   -1.2102 C.ar    1  LIG1        0.1261
      8 H          -0.6749    3.0526   -1.9584 H       1  LIG1        0.0655
      9 H          -1.8841    0.8851   -1.8128 H       1  LIG1        0.0631
     10 N          -1.4145   -2.4404   -0.9273 N.1     1  LIG1       -0.1909
     11 C          -0.8590   -1.4376   -0.9801 C.1     1  LIG1        0.0992
     12 O           1.8424    3.4308   -1.2918 O.3     1  LIG1       -0.5061
     13 H           1.2747    4.1326   -1.6278 H       1  LIG1        0.2922
     14 C           3.2672    1.1828   -0.3019 C.ar    1  LIG1        0.0940
     15 C           4.0311    0.2214    0.3344 C.ar    1  LIG1        0.1613
     16 C           5.3414    0.7462    0.5213 C.ar    1  LIG1        0.0922
     17 C           5.3394    2.0257   -0.0246 C.ar    1  LIG1        0.0680
     18 N           4.0959    2.2586   -0.5029 N.ar    1  LIG1       -0.3501
     19 H           3.8097    3.1014   -0.9810 H       1  LIG1        0.1661
     20 O           3.6129   -1.0144    0.7236 O.3     1  LIG1       -0.4917
     21 C           3.3515   -1.1071    2.1277 C.3     1  LIG1        0.0789
     22 H           3.0469   -2.1341    2.3125 H       1  LIG1        0.0660
     23 H           4.2563   -0.8732    2.6898 H       1  LIG1        0.0660
     24 H           2.5500   -0.4168    2.3992 H       1  LIG1        0.0660
     25 C           6.4315    0.0843    1.1697 C.1     1  LIG1       -0.0638
     26 C           7.3525   -0.4776    1.7022 C.1     1  LIG1       -0.1137
     27 H           8.1638   -0.9727    2.1835 H       1  LIG1        0.1232
     28 C           7.6478    2.7931   -0.6812 C.ar    1  LIG1        0.0345
     29 C           8.5811    3.8418   -0.7546 C.ar    1  LIG1       -0.0315
     30 C           6.3885    3.0641   -0.1043 C.ar    1  LIG1        0.0214
     31 C           8.2916    5.1159   -0.2909 C.ar    1  LIG1        0.0010
     32 H           9.5553    3.6528   -1.1900 H       1  LIG1        0.0643
     33 C           6.1030    4.3459    0.3578 C.ar    1  LIG1       -0.0348
     34 C           7.0308    5.3829    0.2711 C.ar    1  LIG1        0.0332
     35 H           5.1384    4.5399    0.8105 H       1  LIG1        0.0637
     36 N           7.9465    1.5662   -1.2171 N.pl3   1  LIG1       -0.3574
     37 H           7.4092    0.7717   -0.9031 H       1  LIG1        0.1423
     38 H           8.9189    1.3731   -1.3977 H       1  LIG1        0.1423
     39 C           6.6877    6.7000    0.7480 C.1     1  LIG1       -0.0690
     40 C           6.3929    7.7949    1.1493 C.1     1  LIG1       -0.1139
     41 H           6.1389    8.7688    1.4982 H       1  LIG1        0.1232
     42 C          10.0048    6.6739    0.7210 C.ar    1  LIG1        0.0459
     43 C           9.3248    6.1895   -0.4101 C.ar    1  LIG1        0.0044
     44 C           9.6486    6.7098   -1.6582 C.ar    1  LIG1       -0.0509
     45 C          10.6190    7.7020   -1.7502 C.ar    1  LIG1       -0.0430
     46 C          11.2287    8.1230   -0.5751 C.ar    1  LIG1        0.0279
     47 N          10.9358    7.6216    0.6240 N.ar    1  LIG1       -0.2596
     48 H           9.1357    6.3425   -2.5387 H       1  LIG1        0.0625
     49 H          11.9900    8.8938   -0.5944 H       1  LIG1        0.0829
     50 C           9.7208    6.1352    2.1075 C.3     1  LIG1       -0.0218
     51 H           9.6667    5.0459    2.0930 H       1  LIG1        0.0293
     52 H           8.7652    6.5241    2.4650 H       1  LIG1        0.0293
     53 H          10.5193    6.4660    2.7672 H       1  LIG1        0.0293
     54 H          10.8960    8.1352   -2.7008 H       1  LIG1        0.0633
@<TRIPOS>BOND
     1    54    45    1
     2    48    44    1
     3     8     6    1
     4     9     3    1
     5    45    44   ar
     6    45    46   ar
     7    44    43   ar
     8    13    12    1
     9     6     3   ar
    10     6     7   ar
    11     3     1   ar
    12    38    36    1
    13    12     7    1
    14    36    37    1
    15    36    28    1
    16     7     4   ar
    17    32    29    1
    18     1    11    1
    19     1     2   ar
    20    19    18    1
    21    11    10    3
    22    29    28   ar
    23    29    31   ar
    24     4     2   ar
    25     4    14    1
    26    28    30   ar
    27     2     5    1
    28    49    46    1
    29    46    47   ar
    30    18    14   ar
    31    18    17   ar
    32    43    31    1
    33    43    42   ar
    34    14    15   ar
    35    31    34   ar
    36    30    17    1
    37    30    33   ar
    38    17    16   ar
    39    34    33   ar
    40    34    39    1
    41    15    16   ar
    42    15    20    1
    43    33    35    1
    44    16    25    1
    45    47    42   ar
    46    42    50    1
    47    20    21    1
    48    39    40    3
    49    40    41    1
    50    25    26    3
    51    26    27    1
    52    51    50    1
    53    50    52    1
    54    50    53    1
    55    21    22    1
    56    21    24    1
    57    21    23    1
