@<TRIPOS>MOLECULE
mol_data/opt/m06hf/geoms/mol2/4dg.out
 14 14 0 0 0
SMALL
GASTEIGER

@<TRIPOS>ATOM
      1 C           0.0742    0.0226    0.0004 C.ar    1  LIG1        0.0518
      2 C           1.4701    0.0046    0.0000 C.ar    1  LIG1       -0.0433
      3 C          -0.6176    1.2336    0.0003 C.ar    1  LIG1       -0.0433
      4 C           2.1712    1.2012   -0.0004 C.ar    1  LIG1       -0.0473
      5 H           1.9957   -0.9402    0.0001 H       1  LIG1        0.0631
      6 C           0.0878    2.4296   -0.0002 C.ar    1  LIG1       -0.0473
      7 C           1.4842    2.4187   -0.0005 C.ar    1  LIG1        0.0048
      8 H          -0.4539    3.3662   -0.0002 H       1  LIG1        0.0629
      9 H           3.2536    1.1913   -0.0007 H       1  LIG1        0.0629
     10 H          -1.6989    1.2352    0.0006 H       1  LIG1        0.0631
     11 N          -1.2460   -2.2128    0.0012 N.1     1  LIG1       -0.1909
     12 C          -0.6621   -1.2251    0.0008 C.1     1  LIG1        0.0992
     13 S           2.4572    3.9029   -0.0011 S.3     1  LIG1       -0.1426
     14 H           1.4270    4.7541   -0.0014 H       1  LIG1        0.1071
@<TRIPOS>BOND
     1    14    13    1
     2    13     7    1
     3     9     4    1
     4     7     4   ar
     5     7     6   ar
     6     4     2   ar
     7     8     6    1
     8     6     3   ar
     9     2     5    1
    10     2     1   ar
    11     3     1   ar
    12     3    10    1
    13     1    12    1
    14    12    11    3
