@<TRIPOS>MOLECULE
mol_data/opt/m06hf/geoms/mol2/4dg4dg-4dg.out
 38 40 0 0 0
SMALL
GASTEIGER

@<TRIPOS>ATOM
      1 C          -0.1101    0.1323   -0.6110 C.ar    1  LIG1        0.0524
      2 C           1.2832    0.1481   -0.6207 C.ar    1  LIG1       -0.0355
      3 C          -0.8234    1.1458    0.0302 C.ar    1  LIG1       -0.0433
      4 C           1.9672    1.1845    0.0062 C.ar    1  LIG1       -0.0022
      5 H           1.8353   -0.6443   -1.1093 H       1  LIG1        0.0637
      6 C          -0.1404    2.1769    0.6574 C.ar    1  LIG1       -0.0468
      7 C           1.2567    2.2037    0.6524 C.ar    1  LIG1        0.0126
      8 H          -0.6982    2.9610    1.1517 H       1  LIG1        0.0629
      9 H          -1.9046    1.1228    0.0334 H       1  LIG1        0.0631
     10 N          -1.3814   -1.7880   -1.8086 N.1     1  LIG1       -0.1909
     11 C          -0.8197   -0.9415   -1.2754 C.1     1  LIG1        0.0992
     12 S           2.1932    3.4928    1.4344 S.3     1  LIG1       -0.1420
     13 H           1.1478    4.0796    2.0225 H       1  LIG1        0.1071
     14 C           4.1754    0.4336    0.9437 C.ar    1  LIG1        0.0601
     15 C           5.5673    0.4264    0.9346 C.ar    1  LIG1       -0.0350
     16 C           3.4635    1.1908    0.0057 C.ar    1  LIG1        0.0016
     17 C           6.2643    1.1823   -0.0035 C.ar    1  LIG1       -0.0022
     18 H           6.1092   -0.1686    1.6579 H       1  LIG1        0.0637
     19 C           4.1635    1.9452   -0.9287 C.ar    1  LIG1       -0.0390
     20 C           5.5608    1.9452   -0.9451 C.ar    1  LIG1        0.0131
     21 H           3.6029    2.5275   -1.6490 H       1  LIG1        0.0635
     22 N           2.8974   -0.9518    2.7283 N.1     1  LIG1       -0.1908
     23 C           3.4581   -0.3398    1.9360 C.1     1  LIG1        0.0998
     24 S           6.4944    2.8615   -2.1445 S.3     1  LIG1       -0.1420
     25 H           5.4335    3.3007   -2.8280 H       1  LIG1        0.1071
     26 C           8.4452    0.0044   -0.4216 C.ar    1  LIG1        0.0596
     27 C           9.8405   -0.0262   -0.4215 C.ar    1  LIG1       -0.0427
     28 C           7.7595    1.1527   -0.0105 C.ar    1  LIG1        0.0016
     29 C          10.5549    1.0905   -0.0169 C.ar    1  LIG1       -0.0473
     30 H          10.3539   -0.9213   -0.7438 H       1  LIG1        0.0631
     31 C           8.4857    2.2682    0.3997 C.ar    1  LIG1       -0.0396
     32 C           9.8809    2.2441    0.3948 C.ar    1  LIG1        0.0054
     33 H           7.9463    3.1491    0.7255 H       1  LIG1        0.0635
     34 H          11.6372    1.0696   -0.0237 H       1  LIG1        0.0629
     35 N           7.1250   -2.0942   -1.1911 N.1     1  LIG1       -0.1909
     36 C           7.7036   -1.1619   -0.8553 C.1     1  LIG1        0.0998
     37 S          10.8682    3.6207    0.9166 S.3     1  LIG1       -0.1426
     38 H           9.8654    4.4934    1.0475 H       1  LIG1        0.1071
@<TRIPOS>BOND
     1    25    24    1
     2    24    20    1
     3    10    11    3
     4    21    19    1
     5    11     1    1
     6    35    36    3
     7     5     2    1
     8    20    19   ar
     9    20    17   ar
    10    19    16   ar
    11    36    26    1
    12    30    27    1
    13     2     1   ar
    14     2     4   ar
    15     1     3   ar
    16    26    27   ar
    17    26    28   ar
    18    27    29   ar
    19    34    29    1
    20    29    32   ar
    21    28    17    1
    22    28    31   ar
    23    17    15   ar
    24    16     4    1
    25    16    14   ar
    26     4     7   ar
    27     3     9    1
    28     3     6   ar
    29    32    31   ar
    30    32    37    1
    31    31    33    1
    32     7     6   ar
    33     7    12    1
    34     6     8    1
    35    37    38    1
    36    15    14   ar
    37    15    18    1
    38    14    23    1
    39    12    13    1
    40    23    22    3
