@<TRIPOS>MOLECULE
mol_data/opt/m06hf/geoms/mol2/4dg4dg-4dg-.out
 38 40 0 0 0
SMALL
GASTEIGER

@<TRIPOS>ATOM
      1 C          -0.1081    0.1232   -0.6129 C.ar    1  LIG1        0.0524
      2 C           1.2853    0.1393   -0.6187 C.ar    1  LIG1       -0.0355
      3 C          -0.8234    1.1440    0.0144 C.ar    1  LIG1       -0.0433
      4 C           1.9672    1.1833   -0.0022 C.ar    1  LIG1       -0.0022
      5 H           1.8389   -0.6586   -1.0964 H       1  LIG1        0.0637
      6 C          -0.1425    2.1827    0.6313 C.ar    1  LIG1       -0.0468
      7 C           1.2545    2.2098    0.6300 C.ar    1  LIG1        0.0126
      8 H          -0.7020    2.9723    1.1148 H       1  LIG1        0.0629
      9 H          -1.9046    1.1208    0.0147 H       1  LIG1        0.0631
     10 N          -1.3753   -1.8114   -1.7915 N.1     1  LIG1       -0.1909
     11 C          -0.8155   -0.9585   -1.2666 C.1     1  LIG1        0.0992
     12 S           2.1884    3.5083    1.3995 S.3     1  LIG1       -0.1420
     13 H           1.1411    4.1018    1.9775 H       1  LIG1        0.1071
     14 C           4.1729    0.4439    0.9503 C.ar    1  LIG1        0.0601
     15 C           5.5648    0.4372    0.9454 C.ar    1  LIG1       -0.0350
     16 C           3.4635    1.1899    0.0015 C.ar    1  LIG1        0.0016
     17 C           6.2643    1.1826    0.0007 C.ar    1  LIG1       -0.0022
     18 H           6.1048   -0.1490    1.6773 H       1  LIG1        0.0637
     19 C           4.1660    1.9336   -0.9395 C.ar    1  LIG1       -0.0390
     20 C           5.5633    1.9341   -0.9518 C.ar    1  LIG1        0.0131
     21 H           3.6072    2.5073   -1.6682 H       1  LIG1        0.0635
     22 N           2.8901   -0.9213    2.7469 N.1     1  LIG1       -0.1908
     23 C           3.4530   -0.3182    1.9494 C.1     1  LIG1        0.0998
     24 S           6.5000    2.8367   -2.1592 S.3     1  LIG1       -0.1420
     25 H           5.4409    3.2670   -2.8511 H       1  LIG1        0.1071
     26 C           8.4473    0.0011   -0.3966 C.ar    1  LIG1        0.0596
     27 C           9.8426   -0.0285   -0.3917 C.ar    1  LIG1       -0.0427
     28 C           7.7595    1.1538   -0.0014 C.ar    1  LIG1        0.0016
     29 C          10.5550    1.0934    0.0018 C.ar    1  LIG1       -0.0473
     30 H          10.3576   -0.9271   -0.7017 H       1  LIG1        0.0631
     31 C           8.4837    2.2745    0.3977 C.ar    1  LIG1       -0.0396
     32 C           9.8789    2.2513    0.3976 C.ar    1  LIG1        0.0054
     33 H           7.9428    3.1589    0.7112 H       1  LIG1        0.0635
     34 H          11.6373    1.0731   -0.0013 H       1  LIG1        0.0629
     35 N           7.1310   -2.1076   -1.1447 N.1     1  LIG1       -0.1909
     36 C           7.7078   -1.1709   -0.8184 C.1     1  LIG1        0.0998
     37 S          10.8638    3.6348    0.9057 S.3     1  LIG1       -0.1426
     38 H           9.8598    4.5081    1.0240 H       1  LIG1        0.1071
@<TRIPOS>BOND
     1    25    24    1
     2    24    20    1
     3    10    11    3
     4    21    19    1
     5    11     1    1
     6    35    36    3
     7     5     2    1
     8    20    19   ar
     9    20    17   ar
    10    19    16   ar
    11    36    26    1
    12    30    27    1
    13     2     1   ar
    14     2     4   ar
    15     1     3   ar
    16    26    27   ar
    17    26    28   ar
    18    27    29   ar
    19     4    16    1
    20     4     7   ar
    21    28    17    1
    22    28    31   ar
    23    34    29    1
    24    17    15   ar
    25    16    14   ar
    26    29    32   ar
    27     3     9    1
    28     3     6   ar
    29    32    31   ar
    30    32    37    1
    31    31    33    1
    32     7     6   ar
    33     7    12    1
    34     6     8    1
    35    37    38    1
    36    15    14   ar
    37    15    18    1
    38    14    23    1
    39    12    13    1
    40    23    22    3
