@<TRIPOS>MOLECULE
mol_data/opt/m06hf/geoms/mol2/4dg4dg4dg4dg.out
 50 53 0 0 0
SMALL
GASTEIGER

@<TRIPOS>ATOM
      1 C          -0.2225    1.4008    1.2376 C.ar    1  LIG1        0.0524
      2 C           1.1706    1.3922    1.2402 C.ar    1  LIG1       -0.0355
      3 C          -0.9273    1.1257    0.0650 C.ar    1  LIG1       -0.0433
      4 C           1.8640    1.1148    0.0665 C.ar    1  LIG1       -0.0022
      5 H           1.7139    1.6009    2.1524 H       1  LIG1        0.0637
      6 C          -0.2362    0.8390   -1.1022 C.ar    1  LIG1       -0.0468
      7 C           1.1617    0.8287   -1.1129 C.ar    1  LIG1        0.0126
      8 H          -0.7877    0.6184   -2.0063 H       1  LIG1        0.0629
      9 H          -2.0087    1.1348    0.0745 H       1  LIG1        0.0631
     10 N          -1.5208    1.9585    3.4145 N.1     1  LIG1       -0.1909
     11 C          -0.9439    1.7070    2.4553 C.1     1  LIG1        0.0992
     12 S           2.1012    0.4433   -2.5678 S.3     1  LIG1       -0.1420
     13 H           1.0388    0.1948   -3.3369 H       1  LIG1        0.1071
     14 C           4.0814    0.0799    0.6727 C.ar    1  LIG1        0.0601
     15 C           5.4741    0.0901    0.6630 C.ar    1  LIG1       -0.0350
     16 C           3.3600    1.1166    0.0688 C.ar    1  LIG1        0.0016
     17 C           6.1629    1.1331    0.0524 C.ar    1  LIG1       -0.0022
     18 H           6.0209   -0.7204    1.1273 H       1  LIG1        0.0637
     19 C           4.0543    2.1540   -0.5443 C.ar    1  LIG1       -0.0390
     20 C           5.4506    2.1706   -0.5663 C.ar    1  LIG1        0.0131
     21 H           3.4880    2.9502   -1.0118 H       1  LIG1        0.0635
     22 N           2.8407   -1.8702    1.8540 N.1     1  LIG1       -0.1908
     23 C           3.3812   -1.0104    1.3200 C.1     1  LIG1        0.0998
     24 S           6.3629    3.4609   -1.3756 S.3     1  LIG1       -0.1420
     25 H           5.2923    4.0401   -1.9254 H       1  LIG1        0.1071
     26 C           8.3686    0.1855   -0.7082 C.ar    1  LIG1        0.0601
     27 C           9.7608    0.2030   -0.7272 C.ar    1  LIG1       -0.0350
     28 C           7.6580    1.1320    0.0399 C.ar    1  LIG1        0.0016
     29 C          10.4610    1.1635   -0.0041 C.ar    1  LIG1       -0.0022
     30 H          10.3002   -0.5291   -1.3144 H       1  LIG1        0.0637
     31 C           8.3623    2.0886    0.7634 C.ar    1  LIG1       -0.0390
     32 C           9.7585    2.1198    0.7424 C.ar    1  LIG1        0.0131
     33 H           7.8053    2.8167    1.3404 H       1  LIG1        0.0635
     34 N           7.1050   -1.6296   -2.0663 N.1     1  LIG1       -0.1908
     35 C           7.6577   -0.8191   -1.4717 C.1     1  LIG1        0.0998
     36 S          10.6890    3.3516    1.6181 S.3     1  LIG1       -0.1420
     37 H           9.6295    4.0636    2.0140 H       1  LIG1        0.1071
     38 C          12.6287    1.5006   -1.2347 C.ar    1  LIG1        0.0596
     39 C          14.0238    1.5153   -1.2751 C.ar    1  LIG1       -0.0427
     40 C          11.9556    1.1801   -0.0500 C.ar    1  LIG1        0.0016
     41 C          14.7506    1.2207   -0.1321 C.ar    1  LIG1       -0.0473
     42 H          14.5265    1.7672   -2.1984 H       1  LIG1        0.0631
     43 C          12.6951    0.8739    1.0901 C.ar    1  LIG1       -0.0396
     44 C          14.0900    0.8995    1.0570 C.ar    1  LIG1        0.0054
     45 H          12.1678    0.6129    1.9994 H       1  LIG1        0.0635
     46 H          15.8325    1.2447   -0.1593 H       1  LIG1        0.0629
     47 N          11.2867    2.0823   -3.3795 N.1     1  LIG1       -0.1909
     48 C          11.8758    1.8293   -2.4276 C.1     1  LIG1        0.0998
     49 S          15.0884    0.5171    2.4716 S.3     1  LIG1       -0.1426
     50 H          14.0904    0.4806    3.3571 H       1  LIG1        0.1071
@<TRIPOS>BOND
     1    47    48    3
     2    13    12    1
     3    12     7    1
     4    48    38    1
     5    42    39    1
     6    34    35    3
     7     8     6    1
     8    25    24    1
     9    35    26    1
    10    24    20    1
    11    30    27    1
    12    39    38   ar
    13    39    41   ar
    14    38    40   ar
    15     7     6   ar
    16     7     4   ar
    17     6     3   ar
    18    21    19    1
    19    27    26   ar
    20    27    29   ar
    21    26    28   ar
    22    20    19   ar
    23    20    17   ar
    24    19    16   ar
    25    46    41    1
    26    41    44   ar
    27    40    29    1
    28    40    43   ar
    29    29    32   ar
    30    28    17    1
    31    28    31   ar
    32    17    15   ar
    33     3     9    1
    34     3     1   ar
    35     4    16    1
    36     4     2   ar
    37    16    14   ar
    38    15    14   ar
    39    15    18    1
    40    14    23    1
    41    32    31   ar
    42    32    36    1
    43    31    33    1
    44    44    43   ar
    45    44    49    1
    46    43    45    1
    47     1     2   ar
    48     1    11    1
    49     2     5    1
    50    23    22    3
    51    36    37    1
    52    11    10    3
    53    49    50    1
