@<TRIPOS>MOLECULE
mol_data/opt/m06hf/geoms/mol2/4dg4dg-4dg-4dg-.out
 50 53 0 0 0
SMALL
GASTEIGER

@<TRIPOS>ATOM
      1 C          -0.2215    0.2549   -0.8011 C.ar    1  LIG1        0.0524
      2 C           1.1716    0.2493   -0.8011 C.ar    1  LIG1       -0.0355
      3 C          -0.9241    1.1662   -0.0114 C.ar    1  LIG1       -0.0433
      4 C           1.8658    1.1636   -0.0147 C.ar    1  LIG1       -0.0022
      5 H           1.7152   -0.4627   -1.4087 H       1  LIG1        0.0637
      6 C          -0.2317    2.0713    0.7784 C.ar    1  LIG1       -0.0468
      7 C           1.1656    2.0758    0.7857 C.ar    1  LIG1        0.0126
      8 H          -0.7825    2.7719    1.3917 H       1  LIG1        0.0629
      9 H          -2.0056    1.1603   -0.0192 H       1  LIG1        0.0631
     10 N          -1.5418   -1.4129   -2.2887 N.1     1  LIG1       -0.1909
     11 C          -0.9508   -0.6827   -1.6299 C.1     1  LIG1        0.0992
     12 S           2.1122    3.1932    1.7894 S.3     1  LIG1       -0.1420
     13 H           1.0556    3.7253    2.4120 H       1  LIG1        0.1071
     14 C           4.0769    0.1654    0.6613 C.ar    1  LIG1        0.0601
     15 C           5.4691    0.1680    0.6534 C.ar    1  LIG1       -0.0350
     16 C           3.3616    1.1592   -0.0181 C.ar    1  LIG1        0.0016
     17 C           6.1643    1.1652   -0.0252 C.ar    1  LIG1       -0.0022
     18 H           6.0124   -0.6062    1.1798 H       1  LIG1        0.0637
     19 C           4.0605    2.1498   -0.6985 C.ar    1  LIG1       -0.0390
     20 C           5.4570    2.1621   -0.7127 C.ar    1  LIG1        0.0131
     21 H           3.4972    2.9129   -1.2214 H       1  LIG1        0.0635
     22 N           2.8031   -1.6809    1.9669 N.1     1  LIG1       -0.1908
     23 C           3.3638   -0.8638    1.3891 C.1     1  LIG1        0.0998
     24 S           6.3729    3.3964   -1.6034 S.3     1  LIG1       -0.1420
     25 H           5.2993    3.9761   -2.1457 H       1  LIG1        0.1071
     26 C           8.3712    0.1200   -0.6407 C.ar    1  LIG1        0.0601
     27 C           9.7638    0.1095   -0.6180 C.ar    1  LIG1       -0.0350
     28 C           7.6589    1.1538   -0.0194 C.ar    1  LIG1        0.0016
     29 C          10.4620    1.1344    0.0109 C.ar    1  LIG1       -0.0022
     30 H          10.3045   -0.6980   -1.0941 H       1  LIG1        0.0637
     31 C           8.3626    2.1699    0.6192 C.ar    1  LIG1       -0.0390
     32 C           9.7590    2.1729    0.6376 C.ar    1  LIG1        0.0131
     33 H           7.8051    2.9575    1.1112 H       1  LIG1        0.0635
     34 N           7.1166   -1.7934   -1.8663 N.1     1  LIG1       -0.1908
     35 C           7.6645   -0.9437   -1.3239 C.1     1  LIG1        0.0998
     36 S          10.6951    3.4374    1.4557 S.3     1  LIG1       -0.1420
     37 H           9.6355    4.1151    1.9068 H       1  LIG1        0.1071
     38 C          12.6475    0.2064    0.8400 C.ar    1  LIG1        0.0596
     39 C          14.0430    0.1838    0.8486 C.ar    1  LIG1       -0.0427
     40 C          11.9574    1.1123    0.0273 C.ar    1  LIG1        0.0016
     41 C          14.7518    1.0708    0.0531 C.ar    1  LIG1       -0.0473
     42 H          14.5605   -0.5225    1.4830 H       1  LIG1        0.0631
     43 C          12.6778    1.9971   -0.7709 C.ar    1  LIG1       -0.0396
     44 C          14.0731    1.9830   -0.7602 C.ar    1  LIG1        0.0054
     45 H          12.1338    2.6906   -1.4004 H       1  LIG1        0.0635
     46 H          15.8343    1.0581    0.0648 H       1  LIG1        0.0629
     47 N          11.3172   -1.4318    2.3519 N.1     1  LIG1       -0.1909
     48 C          11.9050   -0.7061    1.6850 C.1     1  LIG1        0.0998
     49 S          15.0481    3.0741   -1.7617 S.3     1  LIG1       -0.1426
     50 H          14.0258    3.8010   -2.2217 H       1  LIG1        0.1071
@<TRIPOS>BOND
     1    10    11    3
     2    50    49    1
     3    25    24    1
     4    34    35    3
     5    49    44    1
     6    11     1    1
     7    24    20    1
     8     5     2    1
     9    45    43    1
    10    35    26    1
    11    21    19    1
    12    30    27    1
    13     2     1   ar
    14     2     4   ar
    15     1     3   ar
    16    43    44   ar
    17    43    40   ar
    18    44    41   ar
    19    20    19   ar
    20    20    17   ar
    21    19    16   ar
    22    26    27   ar
    23    26    28   ar
    24    27    29   ar
    25    17    28    1
    26    17    15   ar
    27    28    31   ar
    28     9     3    1
    29    16     4    1
    30    16    14   ar
    31     4     7   ar
    32     3     6   ar
    33    29    40    1
    34    29    32   ar
    35    40    38   ar
    36    41    46    1
    37    41    39   ar
    38    31    32   ar
    39    31    33    1
    40    32    36    1
    41    15    14   ar
    42    15    18    1
    43    14    23    1
    44     6     7   ar
    45     6     8    1
    46     7    12    1
    47    38    39   ar
    48    38    48    1
    49    39    42    1
    50    23    22    3
    51    36    37    1
    52    48    47    3
    53    12    13    1
