@<TRIPOS>MOLECULE
mol_data/opt/m06hf/geoms/mol2/4dg4dg4dg-4dg.out
 50 53 0 0 0
SMALL
GASTEIGER

@<TRIPOS>ATOM
      1 C          -0.2219    0.2614    0.8149 C.ar    1  LIG1        0.0524
      2 C           1.1712    0.2570    0.8171 C.ar    1  LIG1       -0.0355
      3 C          -0.9241    1.1589    0.0094 C.ar    1  LIG1       -0.0433
      4 C           1.8657    1.1590    0.0169 C.ar    1  LIG1       -0.0022
      5 H           1.7145   -0.4444    1.4371 H       1  LIG1        0.0637
      6 C          -0.2314    2.0516   -0.7941 C.ar    1  LIG1       -0.0468
      7 C           1.1660    2.0573   -0.7994 C.ar    1  LIG1        0.0126
      8 H          -0.7818    2.7417   -1.4196 H       1  LIG1        0.0629
      9 H          -2.0056    1.1522    0.0156 H       1  LIG1        0.0631
     10 N          -1.5430   -1.3830    2.3277 N.1     1  LIG1       -0.1909
     11 C          -0.9516   -0.6632    1.6579 C.1     1  LIG1        0.0992
     12 S           2.1130    3.1590   -1.8199 S.3     1  LIG1       -0.1420
     13 H           1.0569    3.6800   -2.4525 H       1  LIG1        0.1071
     14 C           4.0788    0.1519   -0.6392 C.ar    1  LIG1        0.0601
     15 C           5.4710    0.1560   -0.6293 C.ar    1  LIG1       -0.0350
     16 C           3.3615    1.1561    0.0226 C.ar    1  LIG1        0.0016
     17 C           6.1642    1.1649    0.0337 C.ar    1  LIG1       -0.0022
     18 H           6.0158   -0.6264   -1.1420 H       1  LIG1        0.0637
     19 C           4.0585    2.1584    0.6875 C.ar    1  LIG1       -0.0390
     20 C           5.4550    2.1723    0.7036 C.ar    1  LIG1        0.0131
     21 H           3.4937    2.9296    1.1969 H       1  LIG1        0.0635
     22 N           2.8088   -1.7171   -1.9159 N.1     1  LIG1       -0.1908
     23 C           3.3678   -0.8900   -1.3509 C.1     1  LIG1        0.0998
     24 S           6.3683    3.4221    1.5752 S.3     1  LIG1       -0.1420
     25 H           5.2934    4.0096    2.1062 H       1  LIG1        0.1071
     26 C           8.3712    0.1320    0.6694 C.ar    1  LIG1        0.0601
     27 C           9.7639    0.1226    0.6488 C.ar    1  LIG1       -0.0350
     28 C           7.6589    1.1548    0.0303 C.ar    1  LIG1        0.0016
     29 C          10.4621    1.1378    0.0044 C.ar    1  LIG1       -0.0022
     30 H          10.3047   -0.6765    1.1388 H       1  LIG1        0.0637
     31 C           8.3625    2.1611   -0.6238 C.ar    1  LIG1       -0.0390
     32 C           9.7589    2.1652   -0.6402 C.ar    1  LIG1        0.0131
     33 H           7.8050    2.9400   -1.1294 H       1  LIG1        0.0635
     34 N           7.1168   -1.7624    1.9243 N.1     1  LIG1       -0.1908
     35 C           7.6646   -0.9211    1.3688 C.1     1  LIG1        0.0998
     36 S          10.6950    3.4171   -1.4774 S.3     1  LIG1       -0.1420
     37 H           9.6354    4.0863   -1.9412 H       1  LIG1        0.1071
     38 C          12.6496    0.1986   -0.8064 C.ar    1  LIG1        0.0596
     39 C          14.0452    0.1773   -0.8126 C.ar    1  LIG1       -0.0427
     40 C          11.9575    1.1169   -0.0096 C.ar    1  LIG1        0.0016
     41 C          14.7520    1.0778   -0.0307 C.ar    1  LIG1       -0.0473
     42 H          14.5643   -0.5388   -1.4347 H       1  LIG1        0.0631
     43 C          12.6758    2.0153    0.7752 C.ar    1  LIG1       -0.0396
     44 C          14.0712    2.0024    0.7667 C.ar    1  LIG1        0.0054
     45 H          12.1303    2.7184    1.3925 H       1  LIG1        0.0635
     46 H          15.8345    1.0660   -0.0406 H       1  LIG1        0.0629
     47 N          11.3231   -1.4654   -2.2933 N.1     1  LIG1       -0.1909
     48 C          11.9093   -0.7283   -1.6375 C.1     1  LIG1        0.0998
     49 S          15.0436    3.1106    1.7517 S.3     1  LIG1       -0.1426
     50 H          14.0199    3.8439    2.1983 H       1  LIG1        0.1071
@<TRIPOS>BOND
     1    13    12    1
     2    47    48    3
     3    37    36    1
     4    22    23    3
     5    12     7    1
     6    48    38    1
     7    36    32    1
     8    42    39    1
     9     8     6    1
    10    23    14    1
    11    18    15    1
    12    33    31    1
    13    39    38   ar
    14    39    41   ar
    15    38    40   ar
    16     7     6   ar
    17     7     4   ar
    18     6     3   ar
    19    32    31   ar
    20    32    29   ar
    21    14    15   ar
    22    14    16   ar
    23    15    17   ar
    24    31    28   ar
    25    46    41    1
    26    41    44   ar
    27    40    29    1
    28    40    43   ar
    29    29    27   ar
    30     3     9    1
    31     3     1   ar
    32     4    16    1
    33     4     2   ar
    34    16    19   ar
    35    28    17    1
    36    28    26   ar
    37    17    20   ar
    38    27    26   ar
    39    27    30    1
    40    26    35    1
    41    19    20   ar
    42    19    21    1
    43    20    24    1
    44    44    43   ar
    45    44    49    1
    46    43    45    1
    47     1     2   ar
    48     1    11    1
    49     2     5    1
    50    35    34    3
    51    24    25    1
    52    11    10    3
    53    49    50    1
