@<TRIPOS>MOLECULE
mol_data/opt/m06hf/geoms/mol2/4dg4dg-4dg4dg-.out
 50 53 0 0 0
SMALL
GASTEIGER

@<TRIPOS>ATOM
      1 C          -0.2196    0.2489   -0.8102 C.ar    1  LIG1        0.0524
      2 C           1.1735    0.2450   -0.8090 C.ar    1  LIG1       -0.0355
      3 C          -0.9241    1.1567   -0.0184 C.ar    1  LIG1       -0.0433
      4 C           1.8658    1.1577   -0.0190 C.ar    1  LIG1       -0.0022
      5 H           1.7186   -0.4644   -1.4182 H       1  LIG1        0.0637
      6 C          -0.2336    2.0602    0.7749 C.ar    1  LIG1       -0.0468
      7 C           1.1638    2.0665    0.7836 C.ar    1  LIG1        0.0126
      8 H          -0.7858    2.7582    1.3899 H       1  LIG1        0.0629
      9 H          -2.0055    1.1495   -0.0271 H       1  LIG1        0.0631
     10 N          -1.5364   -1.4160   -2.3042 N.1     1  LIG1       -0.1909
     11 C          -0.9469   -0.6871   -1.6426 C.1     1  LIG1        0.0992
     12 S           2.1080    3.1820    1.7916 S.3     1  LIG1       -0.1420
     13 H           1.0502    3.7108    2.4149 H       1  LIG1        0.1071
     14 C           4.0775    0.1606    0.6565 C.ar    1  LIG1        0.0601
     15 C           5.4697    0.1649    0.6499 C.ar    1  LIG1       -0.0350
     16 C           3.3616    1.1553   -0.0210 C.ar    1  LIG1        0.0016
     17 C           6.1643    1.1647   -0.0254 C.ar    1  LIG1       -0.0022
     18 H           6.0135   -0.6100    1.1747 H       1  LIG1        0.0637
     19 C           4.0599    2.1485   -0.6981 C.ar    1  LIG1       -0.0390
     20 C           5.4565    2.1625   -0.7110 C.ar    1  LIG1        0.0131
     21 H           3.4962    2.9123   -1.2195 H       1  LIG1        0.0635
     22 N           2.8047   -1.6907    1.9560 N.1     1  LIG1       -0.1908
     23 C           3.3650   -0.8714    1.3809 C.1     1  LIG1        0.0998
     24 S           6.3717    3.4003   -1.5976 S.3     1  LIG1       -0.1420
     25 H           5.2980    3.9801   -2.1393 H       1  LIG1        0.1071
     26 C           8.3729    0.1239   -0.6421 C.ar    1  LIG1        0.0601
     27 C           9.7655    0.1150   -0.6182 C.ar    1  LIG1       -0.0350
     28 C           7.6589    1.1550   -0.0184 C.ar    1  LIG1        0.0016
     29 C          10.4620    1.1388    0.0143 C.ar    1  LIG1       -0.0022
     30 H          10.3076   -0.6905   -1.0962 H       1  LIG1        0.0637
     31 C           8.3609    2.1701    0.6238 C.ar    1  LIG1       -0.0390
     32 C           9.7572    2.1747    0.6434 C.ar    1  LIG1        0.0131
     33 H           7.8021    2.9556    1.1176 H       1  LIG1        0.0635
     34 N           7.1215   -1.7872   -1.8745 N.1     1  LIG1       -0.1908
     35 C           7.6681   -0.9385   -1.3291 C.1     1  LIG1        0.0998
     36 S          10.6912    3.4378    1.4660 S.3     1  LIG1       -0.1420
     37 H           9.6304    4.1130    1.9183 H       1  LIG1        0.1071
     38 C          12.6478    0.2106    0.8425 C.ar    1  LIG1        0.0596
     39 C          14.0433    0.1895    0.8522 C.ar    1  LIG1       -0.0427
     40 C          11.9574    1.1183    0.0320 C.ar    1  LIG1        0.0016
     41 C          14.7519    1.0797    0.0601 C.ar    1  LIG1       -0.0473
     42 H          14.5610   -0.5183    1.4848 H       1  LIG1        0.0631
     43 C          12.6775    2.0064   -0.7628 C.ar    1  LIG1       -0.0396
     44 C          14.0729    1.9937   -0.7509 C.ar    1  LIG1        0.0054
     45 H          12.1334    2.7013   -1.3906 H       1  LIG1        0.0635
     46 H          15.8344    1.0681    0.0727 H       1  LIG1        0.0629
     47 N          11.3179   -1.4338    2.3481 N.1     1  LIG1       -0.1909
     48 C          11.9056   -0.7054    1.6840 C.1     1  LIG1        0.0998
     49 S          15.0475    3.0889   -1.7482 S.3     1  LIG1       -0.1426
     50 H          14.0248    3.8161   -2.2068 H       1  LIG1        0.1071
@<TRIPOS>BOND
     1    10    11    3
     2    50    49    1
     3    25    24    1
     4    34    35    3
     5    49    44    1
     6    11     1    1
     7    24    20    1
     8     5     2    1
     9    45    43    1
    10    35    26    1
    11    21    19    1
    12    30    27    1
    13     1     2   ar
    14     1     3   ar
    15     2     4   ar
    16    43    44   ar
    17    43    40   ar
    18    44    41   ar
    19    20    19   ar
    20    20    17   ar
    21    19    16   ar
    22    26    27   ar
    23    26    28   ar
    24    27    29   ar
    25     9     3    1
    26    17    28    1
    27    17    15   ar
    28    16     4    1
    29    16    14   ar
    30     4     7   ar
    31    28    31   ar
    32     3     6   ar
    33    29    40    1
    34    29    32   ar
    35    40    38   ar
    36    41    46    1
    37    41    39   ar
    38    31    32   ar
    39    31    33    1
    40    32    36    1
    41    15    14   ar
    42    15    18    1
    43    14    23    1
    44     6     7   ar
    45     6     8    1
    46     7    12    1
    47    38    39   ar
    48    38    48    1
    49    39    42    1
    50    23    22    3
    51    36    37    1
    52    48    47    3
    53    12    13    1
