@<TRIPOS>MOLECULE
mol_data/opt/m06hf/geoms/mol2/4dg4dg-4dg4dg.out
 50 53 0 0 0
SMALL
GASTEIGER

@<TRIPOS>ATOM
      1 C          -0.2218    0.2572   -0.8014 C.ar    1  LIG1        0.0524
      2 C           1.1713    0.2533   -0.8040 C.ar    1  LIG1       -0.0355
      3 C          -0.9241    1.1563    0.0024 C.ar    1  LIG1       -0.0433
      4 C           1.8658    1.1572   -0.0059 C.ar    1  LIG1       -0.0022
      5 H           1.7147   -0.4492   -1.4227 H       1  LIG1        0.0637
      6 C          -0.2314    2.0509    0.8037 C.ar    1  LIG1       -0.0468
      7 C           1.1659    2.0571    0.8087 C.ar    1  LIG1        0.0126
      8 H          -0.7819    2.7421    1.4279 H       1  LIG1        0.0629
      9 H          -2.0056    1.1492   -0.0036 H       1  LIG1        0.0631
     10 N          -1.5429   -1.3907   -2.3103 N.1     1  LIG1       -0.1909
     11 C          -0.9514   -0.6694   -1.6423 C.1     1  LIG1        0.0992
     12 S           2.1129    3.1612    1.8265 S.3     1  LIG1       -0.1420
     13 H           1.0568    3.6832    2.4584 H       1  LIG1        0.1071
     14 C           4.0794    0.1525    0.6521 C.ar    1  LIG1        0.0601
     15 C           5.4715    0.1571    0.6418 C.ar    1  LIG1       -0.0350
     16 C           3.3616    1.1549   -0.0120 C.ar    1  LIG1        0.0016
     17 C           6.1642    1.1646   -0.0239 C.ar    1  LIG1       -0.0022
     18 H           6.0168   -0.6238    1.1563 H       1  LIG1        0.0637
     19 C           4.0580    2.1558   -0.6797 C.ar    1  LIG1       -0.0390
     20 C           5.4545    2.1701   -0.6961 C.ar    1  LIG1        0.0131
     21 H           3.4928    2.9254   -1.1908 H       1  LIG1        0.0635
     22 N           2.8103   -1.7136    1.9339 N.1     1  LIG1       -0.1908
     23 C           3.3689   -0.8878    1.3666 C.1     1  LIG1        0.0998
     24 S           6.3671    3.4180   -1.5711 S.3     1  LIG1       -0.1420
     25 H           5.2919    4.0039   -2.1031 H       1  LIG1        0.1071
     26 C           8.3714    0.1311   -0.6579 C.ar    1  LIG1        0.0601
     27 C           9.7641    0.1222   -0.6378 C.ar    1  LIG1       -0.0350
     28 C           7.6589    1.1551   -0.0209 C.ar    1  LIG1        0.0016
     29 C          10.4621    1.1391    0.0042 C.ar    1  LIG1       -0.0022
     30 H          10.3050   -0.6778   -1.1261 H       1  LIG1        0.0637
     31 C           8.3623    2.1631    0.6306 C.ar    1  LIG1       -0.0390
     32 C           9.7587    2.1678    0.6466 C.ar    1  LIG1        0.0131
     33 H           7.8047    2.9429    1.1346 H       1  LIG1        0.0635
     34 N           7.1172   -1.7666   -1.9081 N.1     1  LIG1       -0.1908
     35 C           7.6649   -0.9239   -1.3548 C.1     1  LIG1        0.0998
     36 S          10.6946    3.4219    1.4807 S.3     1  LIG1       -0.1420
     37 H           9.6349    4.0918    1.9432 H       1  LIG1        0.1071
     38 C          12.6502    0.2025    0.8164 C.ar    1  LIG1        0.0596
     39 C          14.0457    0.1817    0.8223 C.ar    1  LIG1       -0.0427
     40 C          11.9575    1.1188    0.0177 C.ar    1  LIG1        0.0016
     41 C          14.7520    1.0807    0.0381 C.ar    1  LIG1       -0.0473
     42 H          14.5653   -0.5328    1.4458 H       1  LIG1        0.0631
     43 C          12.6753    2.0156   -0.7693 C.ar    1  LIG1       -0.0396
     44 C          14.0707    2.0032   -0.7612 C.ar    1  LIG1        0.0054
     45 H          12.1293    2.7172   -1.3881 H       1  LIG1        0.0635
     46 H          15.8345    1.0692    0.0477 H       1  LIG1        0.0629
     47 N          11.3247   -1.4585    2.3075 N.1     1  LIG1       -0.1909
     48 C          11.9104   -0.7228    1.6498 C.1     1  LIG1        0.0998
     49 S          15.0424    3.1096   -1.7490 S.3     1  LIG1       -0.1426
     50 H          14.0183    3.8415   -2.1969 H       1  LIG1        0.1071
@<TRIPOS>BOND
     1    10    11    3
     2    50    49    1
     3    25    24    1
     4    34    35    3
     5    49    44    1
     6    11     1    1
     7    24    20    1
     8     5     2    1
     9    45    43    1
    10    35    26    1
    11    21    19    1
    12    30    27    1
    13     2     1   ar
    14     2     4   ar
    15     1     3   ar
    16    43    44   ar
    17    43    40   ar
    18    44    41   ar
    19    20    19   ar
    20    20    17   ar
    21    19    16   ar
    22    26    27   ar
    23    26    28   ar
    24    27    29   ar
    25    17    28    1
    26    17    15   ar
    27    28    31   ar
    28    16     4    1
    29    16    14   ar
    30     4     7   ar
    31     9     3    1
    32     3     6   ar
    33    29    40    1
    34    29    32   ar
    35    40    38   ar
    36    41    46    1
    37    41    39   ar
    38    31    32   ar
    39    31    33    1
    40    15    14   ar
    41    15    18    1
    42    32    36    1
    43    14    23    1
    44     6     7   ar
    45     6     8    1
    46     7    12    1
    47    38    39   ar
    48    38    48    1
    49    39    42    1
    50    23    22    3
    51    36    37    1
    52    48    47    3
    53    12    13    1
