@<TRIPOS>MOLECULE
mol_data/opt/m06hf/geoms/mol2/4dg4dg4dg-.out
 38 40 0 0 0
SMALL
GASTEIGER

@<TRIPOS>ATOM
      1 C          -0.1086    0.1391    0.6401 C.ar    1  LIG1        0.0524
      2 C           1.2848    0.1541    0.6447 C.ar    1  LIG1       -0.0355
      3 C          -0.8235    1.1484   -0.0060 C.ar    1  LIG1       -0.0433
      4 C           1.9672    1.1853    0.0077 C.ar    1  LIG1       -0.0022
      5 H           1.8381   -0.6351    1.1372 H       1  LIG1        0.0637
      6 C          -0.1421    2.1744   -0.6433 C.ar    1  LIG1       -0.0468
      7 C           1.2550    2.2002   -0.6436 C.ar    1  LIG1        0.0126
      8 H          -0.7012    2.9552   -1.1414 H       1  LIG1        0.0629
      9 H          -1.9047    1.1262   -0.0051 H       1  LIG1        0.0631
     10 N          -1.3769   -1.7714    1.8563 N.1     1  LIG1       -0.1909
     11 C          -0.8165   -0.9292    1.3149 C.1     1  LIG1        0.0992
     12 S           2.1896    3.4828   -1.4385 S.3     1  LIG1       -0.1420
     13 H           1.1425    4.0659   -2.0272 H       1  LIG1        0.1071
     14 C           4.1719    0.4268   -0.9323 C.ar    1  LIG1        0.0601
     15 C           5.5637    0.4191   -0.9279 C.ar    1  LIG1       -0.0350
     16 C           3.4635    1.1907    0.0029 C.ar    1  LIG1        0.0016
     17 C           6.2643    1.1813    0.0024 C.ar    1  LIG1       -0.0022
     18 H           6.1029   -0.1810   -1.6491 H       1  LIG1        0.0637
     19 C           4.1671    1.9512    0.9297 C.ar    1  LIG1       -0.0390
     20 C           5.5644    1.9509    0.9412 C.ar    1  LIG1        0.0131
     21 H           3.6091    2.5387    1.6478 H       1  LIG1        0.0635
     22 N           2.8872   -0.9711   -2.7023 N.1     1  LIG1       -0.1908
     23 C           3.4509   -0.3535   -1.9165 C.1     1  LIG1        0.0998
     24 S           6.5024    2.8752    2.1311 S.3     1  LIG1       -0.1420
     25 H           5.4440    3.3194    2.8151 H       1  LIG1        0.1071
     26 C           8.4466    0.0060    0.4210 C.ar    1  LIG1        0.0596
     27 C           9.8419   -0.0247    0.4160 C.ar    1  LIG1       -0.0427
     28 C           7.7596    1.1515    0.0043 C.ar    1  LIG1        0.0016
     29 C          10.5550    1.0890    0.0010 C.ar    1  LIG1       -0.0473
     30 H          10.3564   -0.9176    0.7427 H       1  LIG1        0.0631
     31 C           8.4844    2.2639   -0.4163 C.ar    1  LIG1       -0.0396
     32 C           9.8795    2.2398   -0.4163 C.ar    1  LIG1        0.0054
     33 H           7.9439    3.1426   -0.7463 H       1  LIG1        0.0635
     34 H          11.6372    1.0681    0.0041 H       1  LIG1        0.0629
     35 N           7.1291   -2.0872    1.2095 N.1     1  LIG1       -0.1909
     36 C           7.7065   -1.1572    0.8653 C.1     1  LIG1        0.0998
     37 S          10.8650    3.6127   -0.9511 S.3     1  LIG1       -0.1426
     38 H           9.8616    4.4843   -1.0852 H       1  LIG1        0.1071
@<TRIPOS>BOND
     1    22    23    3
     2    13    12    1
     3    23    14    1
     4    18    15    1
     5    12     7    1
     6     8     6    1
     7    38    37    1
     8    37    32    1
     9    14    15   ar
    10    14    16   ar
    11    15    17   ar
    12    33    31    1
    13     7     6   ar
    14     7     4   ar
    15     6     3   ar
    16    31    32   ar
    17    31    28   ar
    18    32    29   ar
    19     3     9    1
    20     3     1   ar
    21    29    34    1
    22    29    27   ar
    23    17    28    1
    24    17    20   ar
    25    16     4    1
    26    16    19   ar
    27    28    26   ar
    28     4     2   ar
    29    27    26   ar
    30    27    30    1
    31    26    36    1
    32     1     2   ar
    33     1    11    1
    34     2     5    1
    35    36    35    3
    36    19    20   ar
    37    19    21    1
    38    20    24    1
    39    11    10    3
    40    24    25    1
