@<TRIPOS>MOLECULE
mol_data/opt/m06hf/geoms/mol2/4dg4dg4dg.out
 38 40 0 0 0
SMALL
GASTEIGER

@<TRIPOS>ATOM
      1 C          -0.1053    0.7748    1.1972 C.ar    1  LIG1        0.0524
      2 C           1.2876    0.7623    1.1790 C.ar    1  LIG1       -0.0355
      3 C          -0.8218    1.1773    0.0693 C.ar    1  LIG1       -0.0433
      4 C           1.9689    1.1583    0.0323 C.ar    1  LIG1       -0.0022
      5 H           1.8403    0.4445    2.0536 H       1  LIG1        0.0637
      6 C          -0.1429    1.5628   -1.0763 C.ar    1  LIG1       -0.0468
      7 C           1.2547    1.5528   -1.1077 C.ar    1  LIG1        0.0126
      8 H          -0.7036    1.8704   -1.9490 H       1  LIG1        0.0629
      9 H          -1.9030    1.1848    0.0953 H       1  LIG1        0.0631
     10 N          -1.3842    0.0694    3.3428 N.1     1  LIG1       -0.1909
     11 C          -0.8152    0.3765    2.3950 C.1     1  LIG1        0.0992
     12 S           2.1788    2.0138   -2.5515 S.3     1  LIG1       -0.1420
     13 H           1.1161    2.0995   -3.3556 H       1  LIG1        0.1071
     14 C           4.1815   -0.0474   -0.0157 C.ar    1  LIG1        0.0601
     15 C           5.5740   -0.0385   -0.0285 C.ar    1  LIG1       -0.0350
     16 C           3.4646    1.1544    0.0189 C.ar    1  LIG1        0.0016
     17 C           6.2672    1.1682   -0.0077 C.ar    1  LIG1       -0.0022
     18 H           6.1194   -0.9728   -0.0603 H       1  LIG1        0.0637
     19 C           4.1624    2.3574    0.0341 C.ar    1  LIG1       -0.0390
     20 C           5.5588    2.3769    0.0145 C.ar    1  LIG1        0.0131
     21 H           3.5989    3.2820    0.0594 H       1  LIG1        0.0635
     22 N           2.9164   -2.3136   -0.0484 N.1     1  LIG1       -0.1908
     23 C           3.4723   -1.3099   -0.0409 C.1     1  LIG1        0.0998
     24 S           6.4795    3.8947    0.0077 S.3     1  LIG1       -0.1420
     25 H           5.4114    4.6855   -0.1357 H       1  LIG1        0.1071
     26 C           8.4693    0.7773   -1.1640 C.ar    1  LIG1        0.0596
     27 C           9.8653    0.7695   -1.1646 C.ar    1  LIG1       -0.0427
     28 C           7.7626    1.1639   -0.0200 C.ar    1  LIG1        0.0016
     29 C          10.5590    1.1521   -0.0271 C.ar    1  LIG1       -0.0473
     30 H          10.3950    0.4689   -2.0579 H       1  LIG1        0.0631
     31 C           8.4685    1.5434    1.1192 C.ar    1  LIG1       -0.0396
     32 C           9.8639    1.5426    1.1210 C.ar    1  LIG1        0.0054
     33 H           7.9132    1.8338    2.0027 H       1  LIG1        0.0635
     34 H          11.6416    1.1498   -0.0294 H       1  LIG1        0.0629
     35 N           7.1918    0.0709   -3.3105 N.1     1  LIG1       -0.1909
     36 C           7.7510    0.3884   -2.3600 C.1     1  LIG1        0.0998
     37 S          10.8193    2.0042    2.5417 S.3     1  LIG1       -0.1426
     38 H           9.7845    2.3655    3.3060 H       1  LIG1        0.1071
@<TRIPOS>BOND
     1    13    12    1
     2    35    36    3
     3    12     7    1
     4    36    26    1
     5    30    27    1
     6     8     6    1
     7    27    26   ar
     8    27    29   ar
     9    26    28   ar
    10     7     6   ar
    11     7     4   ar
    12     6     3   ar
    13    25    24    1
    14    18    15    1
    15    22    23    3
    16    23    14    1
    17    34    29    1
    18    15    14   ar
    19    15    17   ar
    20    29    32   ar
    21    28    17    1
    22    28    31   ar
    23    14    16   ar
    24    17    20   ar
    25    24    20    1
    26    20    19   ar
    27    16     4    1
    28    16    19   ar
    29     4     2   ar
    30    19    21    1
    31     3     9    1
    32     3     1   ar
    33    31    32   ar
    34    31    33    1
    35    32    37    1
    36     2     1   ar
    37     2     5    1
    38     1    11    1
    39    11    10    3
    40    37    38    1
