@<TRIPOS>MOLECULE
mol_data/opt/m06hf/geoms/mol2/4dg4dg-.out
 26 27 0 0 0
SMALL
GASTEIGER

@<TRIPOS>ATOM
      1 C          -0.0109    0.1787   -0.6839 C.ar    1  LIG1        0.0524
      2 C           1.3818    0.1744   -0.6687 C.ar    1  LIG1       -0.0355
      3 C          -0.7203    1.1890   -0.0337 C.ar    1  LIG1       -0.0433
      4 C           2.0725    1.1856   -0.0069 C.ar    1  LIG1       -0.0022
      5 H           1.9290   -0.6128   -1.1709 H       1  LIG1        0.0637
      6 C          -0.0338    2.1924    0.6327 C.ar    1  LIG1       -0.0468
      7 C           1.3637    2.1981    0.6553 C.ar    1  LIG1        0.0126
      8 H          -0.5896    2.9696    1.1398 H       1  LIG1        0.0629
      9 H          -1.8014    1.1829   -0.0520 H       1  LIG1        0.0631
     10 N          -1.3090   -1.6827   -1.9441 N.1     1  LIG1       -0.1909
     11 C          -0.7297   -0.8653   -1.3849 C.1     1  LIG1        0.0992
     12 S           2.2943    3.4425    1.5150 S.3     1  LIG1       -0.1420
     13 H           1.2334    4.0656    2.0372 H       1  LIG1        0.1071
     14 C           4.2776    0.1842    0.6880 C.ar    1  LIG1        0.0596
     15 C           5.6737    0.1813    0.6868 C.ar    1  LIG1       -0.0427
     16 C           3.5682    1.1760    0.0007 C.ar    1  LIG1        0.0016
     17 C           6.3666    1.1719    0.0090 C.ar    1  LIG1       -0.0473
     18 H           6.2049   -0.5933    1.2225 H       1  LIG1        0.0631
     19 C           4.2745    2.1630   -0.6834 C.ar    1  LIG1       -0.0396
     20 C           5.6696    2.1709   -0.6772 C.ar    1  LIG1        0.0054
     21 H           3.7182    2.9234   -1.2177 H       1  LIG1        0.0635
     22 H           7.4490    1.1738    0.0149 H       1  LIG1        0.0629
     23 N           3.0062   -1.6718    1.9836 N.1     1  LIG1       -0.1909
     24 C           3.5628   -0.8458    1.4135 C.1     1  LIG1        0.0998
     25 S           6.6238    3.4085   -1.5151 S.3     1  LIG1       -0.1426
     26 H           5.5883    4.1322   -1.9445 H       1  LIG1        0.1071
@<TRIPOS>BOND
     1    26    25    1
     2    10    11    3
     3    25    20    1
     4    11     1    1
     5    21    19    1
     6     5     2    1
     7     1     2   ar
     8     1     3   ar
     9    19    20   ar
    10    19    16   ar
    11    20    17   ar
    12     2     4   ar
    13     9     3    1
    14     3     6   ar
    15     4    16    1
    16     4     7   ar
    17    16    14   ar
    18    17    22    1
    19    17    15   ar
    20     6     7   ar
    21     6     8    1
    22     7    12    1
    23    15    14   ar
    24    15    18    1
    25    14    24    1
    26    24    23    3
    27    12    13    1
