@<TRIPOS>MOLECULE
mol_data/opt/m06hf/geoms/mol2/4dg4dg4dg-4dg-.out
 50 53 0 0 0
SMALL
GASTEIGER

@<TRIPOS>ATOM
      1 C          -0.2209    0.2665    0.8291 C.ar    1  LIG1        0.0524
      2 C           1.1722    0.2620    0.8296 C.ar    1  LIG1       -0.0355
      3 C          -0.9241    1.1596    0.0195 C.ar    1  LIG1       -0.0433
      4 C           1.8658    1.1594    0.0234 C.ar    1  LIG1       -0.0022
      5 H           1.7162   -0.4360    1.4527 H       1  LIG1        0.0637
      6 C          -0.2323    2.0477   -0.7898 C.ar    1  LIG1       -0.0468
      7 C           1.1651    2.0532   -0.7971 C.ar    1  LIG1        0.0126
      8 H          -0.7835    2.7343   -1.4185 H       1  LIG1        0.0629
      9 H          -2.0056    1.1530    0.0272 H       1  LIG1        0.0631
     10 N          -1.5403   -1.3693    2.3528 N.1     1  LIG1       -0.1909
     11 C          -0.9496   -0.6533    1.6782 C.1     1  LIG1        0.0992
     12 S           2.1109    3.1490   -1.8249 S.3     1  LIG1       -0.1420
     13 H           1.0540    3.6665   -2.4591 H       1  LIG1        0.1071
     14 C           4.0779    0.1486   -0.6303 C.ar    1  LIG1        0.0601
     15 C           5.4701    0.1527   -0.6222 C.ar    1  LIG1       -0.0350
     16 C           3.3616    1.1564    0.0272 C.ar    1  LIG1        0.0016
     17 C           6.1642    1.1650    0.0346 C.ar    1  LIG1       -0.0022
     18 H           6.0143   -0.6324   -1.1315 H       1  LIG1        0.0637
     19 C           4.0595    2.1622    0.6859 C.ar    1  LIG1       -0.0390
     20 C           5.4560    2.1760    0.7001 C.ar    1  LIG1        0.0131
     21 H           3.4954    2.9360    1.1919 H       1  LIG1        0.0635
     22 N           2.8061   -1.7268   -1.8956 N.1     1  LIG1       -0.1908
     23 C           3.3659   -0.8968   -1.3356 C.1     1  LIG1        0.0998
     24 S           6.3706    3.4303    1.5639 S.3     1  LIG1       -0.1420
     25 H           5.2964    4.0209    2.0930 H       1  LIG1        0.1071
     26 C           8.3720    0.1356    0.6732 C.ar    1  LIG1        0.0601
     27 C           9.7647    0.1259    0.6509 C.ar    1  LIG1       -0.0350
     28 C           7.6589    1.1549    0.0293 C.ar    1  LIG1        0.0016
     29 C          10.4621    1.1375   -0.0000 C.ar    1  LIG1       -0.0022
     30 H          10.3060   -0.6705    1.1446 H       1  LIG1        0.0637
     31 C           8.3618    2.1575   -0.6312 C.ar    1  LIG1       -0.0390
     32 C           9.7581    2.1614   -0.6494 C.ar    1  LIG1        0.0131
     33 H           7.8037    2.9336   -1.1403 H       1  LIG1        0.0635
     34 N           7.1190   -1.7518    1.9401 N.1     1  LIG1       -0.1908
     35 C           7.6662   -0.9136    1.3793 C.1     1  LIG1        0.0998
     36 S          10.6932    3.4086   -1.4947 S.3     1  LIG1       -0.1420
     37 H           9.6331    4.0753   -1.9607 H       1  LIG1        0.1071
     38 C          12.6485    0.1937   -0.8084 C.ar    1  LIG1        0.0596
     39 C          14.0440    0.1723   -0.8163 C.ar    1  LIG1       -0.0427
     40 C          11.9575    1.1164   -0.0158 C.ar    1  LIG1        0.0016
     41 C          14.7519    1.0770   -0.0402 C.ar    1  LIG1       -0.0473
     42 H          14.5623   -0.5472   -1.4351 H       1  LIG1        0.0631
     43 C          12.6768    2.0191    0.7631 C.ar    1  LIG1       -0.0396
     44 C          14.0722    2.0061    0.7529 C.ar    1  LIG1        0.0054
     45 H          12.1321    2.7257    1.3773 H       1  LIG1        0.0635
     46 H          15.8344    1.0651   -0.0515 H       1  LIG1        0.0629
     47 N          11.3200   -1.4783   -2.2845 N.1     1  LIG1       -0.1909
     48 C          11.9071   -0.7377   -1.6335 C.1     1  LIG1        0.0998
     49 S          15.0460    3.1196    1.7306 S.3     1  LIG1       -0.1426
     50 H          14.0229    3.8554    2.1744 H       1  LIG1        0.1071
@<TRIPOS>BOND
     1    13    12    1
     2    47    48    3
     3    37    36    1
     4    22    23    3
     5    12     7    1
     6    48    38    1
     7    36    32    1
     8    42    39    1
     9     8     6    1
    10    23    14    1
    11    33    31    1
    12    18    15    1
    13    39    38   ar
    14    39    41   ar
    15    38    40   ar
    16     7     6   ar
    17     7     4   ar
    18     6     3   ar
    19    32    31   ar
    20    32    29   ar
    21    31    28   ar
    22    14    15   ar
    23    14    16   ar
    24    15    17   ar
    25    46    41    1
    26    41    44   ar
    27    40    29    1
    28    40    43   ar
    29    29    27   ar
    30     3     9    1
    31     3     1   ar
    32     4    16    1
    33     4     2   ar
    34    16    19   ar
    35    28    17    1
    36    28    26   ar
    37    17    20   ar
    38    27    26   ar
    39    27    30    1
    40    26    35    1
    41    19    20   ar
    42    19    21    1
    43    20    24    1
    44    44    43   ar
    45    44    49    1
    46    43    45    1
    47     1     2   ar
    48     1    11    1
    49     2     5    1
    50    35    34    3
    51    24    25    1
    52    11    10    3
    53    49    50    1
