@<TRIPOS>MOLECULE
mol_data/opt/m06hf/geoms/mol2/4dg4dg.out
 26 27 0 0 0
SMALL
GASTEIGER

@<TRIPOS>ATOM
      1 C          -0.0237    0.1925    0.6532 C.ar    1  LIG1        0.0524
      2 C           1.3690    0.1876    0.6638 C.ar    1  LIG1       -0.0355
      3 C          -0.7204    1.1906   -0.0292 C.ar    1  LIG1       -0.0433
      4 C           2.0724    1.1860   -0.0042 C.ar    1  LIG1       -0.0022
      5 H           1.9064   -0.5900    1.1908 H       1  LIG1        0.0637
      6 C          -0.0210    2.1810   -0.7015 C.ar    1  LIG1       -0.0468
      7 C           1.3766    2.1859   -0.6984 C.ar    1  LIG1        0.0126
      8 H          -0.5669    2.9486   -1.2335 H       1  LIG1        0.0629
      9 H          -1.8016    1.1851   -0.0307 H       1  LIG1        0.0631
     10 N          -1.3460   -1.6443    1.9241 N.1     1  LIG1       -0.1909
     11 C          -0.7559   -0.8378    1.3604 C.1     1  LIG1        0.0992
     12 S           2.3237    3.4135   -1.5643 S.3     1  LIG1       -0.1420
     13 H           1.2730    4.0268   -2.1176 H       1  LIG1        0.1071
     14 C           4.2895    0.1708   -0.6387 C.ar    1  LIG1        0.0596
     15 C           5.6853    0.1675   -0.6116 C.ar    1  LIG1       -0.0427
     16 C           3.5681    1.1758    0.0161 C.ar    1  LIG1        0.0016
     17 C           6.3661    1.1708    0.0597 C.ar    1  LIG1       -0.0473
     18 H           6.2258   -0.6174   -1.1225 H       1  LIG1        0.0631
     19 C           4.2622    2.1756    0.6941 C.ar    1  LIG1       -0.0396
     20 C           5.6572    2.1830    0.7136 C.ar    1  LIG1        0.0054
     21 H           3.6966    2.9462    1.2033 H       1  LIG1        0.0635
     22 H           7.4484    1.1722    0.0739 H       1  LIG1        0.0629
     23 N           3.0411   -1.7094   -1.9219 N.1     1  LIG1       -0.1909
     24 C           3.5875   -0.8728   -1.3575 C.1     1  LIG1        0.0998
     25 S           6.5964    3.4362    1.5452 S.3     1  LIG1       -0.1426
     26 H           5.5536    4.1681    1.9415 H       1  LIG1        0.1071
@<TRIPOS>BOND
     1    13    12    1
     2    23    24    3
     3    12     7    1
     4    24    14    1
     5     8     6    1
     6    18    15    1
     7     6     7   ar
     8     6     3   ar
     9     7     4   ar
    10    14    15   ar
    11    14    16   ar
    12    15    17   ar
    13     9     3    1
    14     3     1   ar
    15     4    16    1
    16     4     2   ar
    17    16    19   ar
    18    17    22    1
    19    17    20   ar
    20     1     2   ar
    21     1    11    1
    22     2     5    1
    23    19    20   ar
    24    19    21    1
    25    20    25    1
    26    11    10    3
    27    25    26    1
