@<TRIPOS>MOLECULE
mol_data/opt/m06hf/geoms/mol2/4dh.out
 15 15 0 0 0
SMALL
GASTEIGER

@<TRIPOS>ATOM
      1 C           0.0769    0.0310    0.0087 C.ar    1  LIG1        0.0519
      2 C           1.4734    0.0129   -0.0085 C.ar    1  LIG1       -0.0426
      3 C          -0.6022    1.2515   -0.0085 C.ar    1  LIG1       -0.0426
      4 C           2.1834    1.2006   -0.0453 C.ar    1  LIG1       -0.0398
      5 H           1.9961   -0.9338    0.0063 H       1  LIG1        0.0631
      6 C           0.1059    2.4403   -0.0453 C.ar    1  LIG1       -0.0398
      7 C           1.5098    2.4323   -0.0672 C.ar    1  LIG1        0.0246
      8 H          -0.4229    3.3847   -0.0529 H       1  LIG1        0.0636
      9 H           3.2657    1.1836   -0.0528 H       1  LIG1        0.0636
     10 H          -1.6835    1.2620    0.0062 H       1  LIG1        0.0631
     11 N          -1.2522   -2.1960    0.0673 N.1     1  LIG1       -0.1909
     12 C          -0.6639   -1.2104    0.0424 C.1     1  LIG1        0.0992
     13 N           2.2172    3.6178   -0.0654 N.pl3   1  LIG1       -0.3580
     14 H           3.1789    3.5777   -0.3651 H       1  LIG1        0.1423
     15 H           1.7253    4.4451   -0.3652 H       1  LIG1        0.1423
@<TRIPOS>BOND
     1    15    13    1
     2    14    13    1
     3     7    13    1
     4     7     6   ar
     5     7     4   ar
     6     8     6    1
     7     9     4    1
     8     6     3   ar
     9     4     2   ar
    10     3    10    1
    11     3     1   ar
    12     2     5    1
    13     2     1   ar
    14     1    12    1
    15    12    11    3
