@<TRIPOS>MOLECULE
mol_data/opt/m06hf/geoms/mol2/4dh4dh-4dh4dh-.out
 54 57 0 0 0
SMALL
GASTEIGER

@<TRIPOS>ATOM
      1 C          -0.2006    0.2241    0.7114 C.ar    1  LIG1        0.0525
      2 C           1.1904    0.2196    0.6324 C.ar    1  LIG1       -0.0348
      3 C          -0.9219    1.2862    0.1575 C.ar    1  LIG1       -0.0426
      4 C           1.8697    1.2586    0.0072 C.ar    1  LIG1        0.0053
      5 H           1.7543   -0.5893    1.0799 H       1  LIG1        0.0637
      6 C          -0.2567    2.3164   -0.4772 C.ar    1  LIG1       -0.0392
      7 C           1.1463    2.3221   -0.5747 C.ar    1  LIG1        0.0325
      8 H          -0.8159    3.1297   -0.9217 H       1  LIG1        0.0636
      9 H          -2.0013    1.2933    0.2269 H       1  LIG1        0.0631
     10 N          -1.4399   -1.7213    1.8981 N.1     1  LIG1       -0.1909
     11 C          -0.8910   -0.8597    1.3736 C.1     1  LIG1        0.0992
     12 N           1.7791    3.3185   -1.2773 N.pl3   1  LIG1       -0.3575
     13 H           2.7787    3.4038   -1.1712 H       1  LIG1        0.1423
     14 H           1.2927    4.1975   -1.3611 H       1  LIG1        0.1423
     15 C           4.1473    2.1980    0.5893 C.ar    1  LIG1        0.0602
     16 C           5.5385    2.1090    0.5512 C.ar    1  LIG1       -0.0342
     17 C           3.3627    1.2174   -0.0458 C.ar    1  LIG1        0.0030
     18 C           6.1719    1.0581   -0.0975 C.ar    1  LIG1        0.0053
     19 H           6.1363    2.8533    1.0624 H       1  LIG1        0.0637
     20 C           3.9965    0.1771   -0.7054 C.ar    1  LIG1       -0.0314
     21 C           5.3982    0.0722   -0.7493 C.ar    1  LIG1        0.0330
     22 H           3.3933   -0.5624   -1.2175 H       1  LIG1        0.0643
     23 N           3.0346    4.1730    1.8512 N.1     1  LIG1       -0.1908
     24 C           3.5241    3.2884    1.3062 C.1     1  LIG1        0.0998
     25 N           5.9857   -0.9355   -1.4640 N.pl3   1  LIG1       -0.3575
     26 H           5.4361   -1.7592   -1.6512 H       1  LIG1        0.1423
     27 H           6.9731   -1.0969   -1.3387 H       1  LIG1        0.1423
     28 C           8.3454   -0.0618    0.5405 C.ar    1  LIG1        0.0602
     29 C           9.7398   -0.0794    0.5544 C.ar    1  LIG1       -0.0342
     30 C           7.6645    0.9914   -0.0980 C.ar    1  LIG1        0.0030
     31 C          10.4775    0.9299   -0.0473 C.ar    1  LIG1        0.0053
     32 H          10.2581   -0.8784    1.0697 H       1  LIG1        0.0637
     33 C           8.4005    1.9908   -0.7126 C.ar    1  LIG1       -0.0314
     34 C           9.8075    1.9850   -0.7074 C.ar    1  LIG1        0.0330
     35 H           7.8763    2.7865   -1.2273 H       1  LIG1        0.0643
     36 N           7.0483   -1.9746    1.7188 N.1     1  LIG1       -0.1908
     37 C           7.6160   -1.1163    1.2087 C.1     1  LIG1        0.0998
     38 N          10.4974    2.9527   -1.3819 N.pl3   1  LIG1       -0.3575
     39 H          11.4894    3.0341   -1.2197 H       1  LIG1        0.1423
     40 H          10.0215    3.8169   -1.5860 H       1  LIG1        0.1423
     41 C          12.7009    1.8713    0.6899 C.ar    1  LIG1        0.0596
     42 C          14.0949    1.7904    0.7516 C.ar    1  LIG1       -0.0420
     43 C          11.9699    0.8811    0.0105 C.ar    1  LIG1        0.0030
     44 C          14.7657    0.7390    0.1556 C.ar    1  LIG1       -0.0398
     45 H          14.6448    2.5563    1.2820 H       1  LIG1        0.0631
     46 C          12.6493   -0.1703   -0.5874 C.ar    1  LIG1       -0.0320
     47 C          14.0505   -0.2627   -0.5243 C.ar    1  LIG1        0.0252
     48 H          12.0835   -0.9277   -1.1161 H       1  LIG1        0.0642
     49 H          15.8448    0.6798    0.2169 H       1  LIG1        0.0636
     50 N          11.4907    3.8522    1.8485 N.1     1  LIG1       -0.1909
     51 C          12.0204    2.9659    1.3457 C.1     1  LIG1        0.0998
     52 N          14.7022   -1.3267   -1.0906 N.pl3   1  LIG1       -0.3579
     53 H          14.2044   -1.9048   -1.7478 H       1  LIG1        0.1423
     54 H          15.6979   -1.2662   -1.2289 H       1  LIG1        0.1423
@<TRIPOS>BOND
     1    53    52    1
     2    26    25    1
     3    40    38    1
     4    25    27    1
     5    25    21    1
     6    38    39    1
     7    38    34    1
     8    14    12    1
     9    12    13    1
    10    12     7    1
    11    54    52    1
    12    35    33    1
    13    22    20    1
    14    48    46    1
    15    52    47    1
    16     8     6    1
    17    21    20   ar
    18    21    18   ar
    19    33    34   ar
    20    33    30   ar
    21    34    31   ar
    22    20    17   ar
    23    46    47   ar
    24    46    43   ar
    25     7     6   ar
    26     7     4   ar
    27    47    44   ar
    28     6     3   ar
    29    30    18    1
    30    30    28   ar
    31    18    16   ar
    32    31    43    1
    33    31    29   ar
    34    17     4    1
    35    17    15   ar
    36     4     2   ar
    37    43    41   ar
    38    44    49    1
    39    44    42   ar
    40     3     9    1
    41     3     1   ar
    42    28    29   ar
    43    28    37    1
    44    16    15   ar
    45    16    19    1
    46    29    32    1
    47    15    24    1
    48     2     1   ar
    49     2     5    1
    50    41    42   ar
    51    41    51    1
    52     1    11    1
    53    42    45    1
    54    37    36    3
    55    24    23    3
    56    51    50    3
    57    11    10    3
