@<TRIPOS>MOLECULE
mol_data/opt/m06hf/geoms/mol2/4dh4dh-.out
 28 29 0 0 0
SMALL
GASTEIGER

@<TRIPOS>ATOM
      1 C          -0.0266    0.2365    0.6201 C.ar    1  LIG1        0.0525
      2 C           1.3666    0.2297    0.6249 C.ar    1  LIG1       -0.0348
      3 C          -0.7104    1.2677   -0.0310 C.ar    1  LIG1       -0.0426
      4 C           2.0843    1.2351   -0.0119 C.ar    1  LIG1        0.0053
      5 H           1.9015   -0.5570    1.1415 H       1  LIG1        0.0637
      6 C          -0.0063    2.2653   -0.6758 C.ar    1  LIG1       -0.0392
      7 C           1.4003    2.2681   -0.6873 C.ar    1  LIG1        0.0325
      8 H          -0.5367    3.0537   -1.1939 H       1  LIG1        0.0636
      9 H          -1.7921    1.2765   -0.0312 H       1  LIG1        0.0631
     10 N          -1.3489   -1.6590    1.7975 N.1     1  LIG1       -0.1909
     11 C          -0.7605   -0.8187    1.2813 C.1     1  LIG1        0.0992
     12 N           2.0784    3.2282   -1.3965 N.pl3   1  LIG1       -0.3575
     13 H           3.0686    3.3231   -1.2287 H       1  LIG1        0.1423
     14 H           1.5971    4.0973   -1.5664 H       1  LIG1        0.1423
     15 C           4.3329    2.1810    0.6593 C.ar    1  LIG1        0.0596
     16 C           5.7276    2.0903    0.6893 C.ar    1  LIG1       -0.0420
     17 C           3.5779    1.1867    0.0141 C.ar    1  LIG1        0.0030
     18 C           6.3766    1.0258    0.0922 C.ar    1  LIG1       -0.0398
     19 H           6.2956    2.8596    1.1949 H       1  LIG1        0.0631
     20 C           4.2367    0.1229   -0.5859 C.ar    1  LIG1       -0.0320
     21 C           5.6377    0.0209   -0.5556 C.ar    1  LIG1        0.0252
     22 H           3.6518   -0.6367   -1.0901 H       1  LIG1        0.0642
     23 H           7.4562    0.9585    0.1286 H       1  LIG1        0.0636
     24 N           3.1800    4.2054    1.8009 N.1     1  LIG1       -0.1909
     25 C           3.6805    3.2969    1.3077 C.1     1  LIG1        0.0998
     26 N           6.2679   -1.0571   -1.1223 N.pl3   1  LIG1       -0.3579
     27 H           5.7476   -1.6388   -1.7587 H       1  LIG1        0.1423
     28 H           7.2586   -1.0010   -1.2948 H       1  LIG1        0.1423
@<TRIPOS>BOND
     1    27    26    1
     2    14    12    1
     3    12    13    1
     4    12     7    1
     5    28    26    1
     6     8     6    1
     7    26    21    1
     8    22    20    1
     9     7     6   ar
    10     7     4   ar
    11     6     3   ar
    12    20    21   ar
    13    20    17   ar
    14    21    18   ar
    15     9     3    1
    16     3     1   ar
    17     4    17    1
    18     4     2   ar
    19    17    15   ar
    20    18    23    1
    21    18    16   ar
    22     1     2   ar
    23     1    11    1
    24     2     5    1
    25    15    16   ar
    26    15    25    1
    27    16    19    1
    28    11    10    3
    29    25    24    3
