@<TRIPOS>MOLECULE
mol_data/opt/m06hf/geoms/mol2/4dh4dh.out
 28 29 0 0 0
SMALL
GASTEIGER

@<TRIPOS>ATOM
      1 C           0.0080    0.2034    0.6742 C.ar    1  LIG1        0.0525
      2 C           1.3991    0.1841    0.5995 C.ar    1  LIG1       -0.0348
      3 C          -0.7047    1.2576    0.0965 C.ar    1  LIG1       -0.0426
      4 C           2.0872    1.2086   -0.0405 C.ar    1  LIG1        0.0053
      5 H           1.9512   -0.6318    1.0479 H       1  LIG1        0.0637
      6 C          -0.0296    2.2745   -0.5517 C.ar    1  LIG1       -0.0392
      7 C           1.3722    2.2684   -0.6354 C.ar    1  LIG1        0.0325
      8 H          -0.5820    3.0892   -1.0019 H       1  LIG1        0.0636
      9 H          -1.7846    1.2702    0.1570 H       1  LIG1        0.0631
     10 N          -1.2715   -1.6803    1.9168 N.1     1  LIG1       -0.1909
     11 C          -0.6993   -0.8535    1.3628 C.1     1  LIG1        0.0992
     12 N           2.0339    3.3059   -1.2638 N.pl3   1  LIG1       -0.3575
     13 H           2.9762    3.1126   -1.5728 H       1  LIG1        0.1423
     14 H           1.4879    3.8493   -1.9156 H       1  LIG1        0.1423
     15 C           4.2791    0.1243   -0.6767 C.ar    1  LIG1        0.0596
     16 C           5.6771    0.1222   -0.6776 C.ar    1  LIG1       -0.0420
     17 C           3.5812    1.1888   -0.0864 C.ar    1  LIG1        0.0030
     18 C           6.3840    1.1649   -0.1094 C.ar    1  LIG1       -0.0398
     19 H           6.2025   -0.7057   -1.1341 H       1  LIG1        0.0631
     20 C           4.2984    2.2379    0.4788 C.ar    1  LIG1       -0.0320
     21 C           5.7020    2.2453    0.4774 C.ar    1  LIG1        0.0252
     22 H           3.7547    3.0548    0.9385 H       1  LIG1        0.0642
     23 H           7.4662    1.1502   -0.1092 H       1  LIG1        0.0636
     24 N           3.0351   -1.8547   -1.8013 N.1     1  LIG1       -0.1909
     25 C           3.5719   -0.9715   -1.3012 C.1     1  LIG1        0.0998
     26 N           6.3941    3.2677    1.0770 N.pl3   1  LIG1       -0.3579
     27 H           7.3743    3.3712    0.8716 H       1  LIG1        0.1423
     28 H           5.9008    4.1159    1.3019 H       1  LIG1        0.1423
@<TRIPOS>BOND
     1    14    12    1
     2    24    25    3
     3    13    12    1
     4    25    15    1
     5    12     7    1
     6    19    16    1
     7     8     6    1
     8    16    15   ar
     9    16    18   ar
    10    15    17   ar
    11     7     6   ar
    12     7     4   ar
    13     6     3   ar
    14    18    23    1
    15    18    21   ar
    16    17     4    1
    17    17    20   ar
    18     4     2   ar
    19     3     9    1
    20     3     1   ar
    21    21    20   ar
    22    21    26    1
    23    20    22    1
    24     2     1   ar
    25     2     5    1
    26     1    11    1
    27    27    26    1
    28    26    28    1
    29    11    10    3
