@<TRIPOS>MOLECULE
mol_data/opt/m06hf/geoms/mol2/4dh4dh-4dh4dh.out
 54 57 0 0 0
SMALL
GASTEIGER

@<TRIPOS>ATOM
      1 C          -0.2514    2.2597    0.4673 C.ar    1  LIG1        0.0525
      2 C           1.1417    2.2794    0.4820 C.ar    1  LIG1       -0.0348
      3 C          -0.9245    1.1861   -0.1226 C.ar    1  LIG1       -0.0426
      4 C           1.8698    1.2365   -0.0779 C.ar    1  LIG1        0.0053
      5 H           1.6624    3.1115    0.9380 H       1  LIG1        0.0637
      6 C          -0.2087    0.1514   -0.6937 C.ar    1  LIG1       -0.0392
      7 C           1.1965    0.1564   -0.6876 C.ar    1  LIG1        0.0325
      8 H          -0.7302   -0.6778   -1.1541 H       1  LIG1        0.0636
      9 H          -2.0061    1.1726   -0.1325 H       1  LIG1        0.0631
     10 N          -1.5967    4.1907    1.5581 N.1     1  LIG1       -0.1909
     11 C          -0.9986    3.3401    1.0716 C.1     1  LIG1        0.0992
     12 N           1.8953   -0.8951   -1.2411 N.pl3   1  LIG1       -0.3575
     13 H           2.8619   -0.7245   -1.4836 H       1  LIG1        0.1423
     14 H           1.3944   -1.4691   -1.9020 H       1  LIG1        0.1423
     15 C           4.1002    2.2956   -0.6228 C.ar    1  LIG1        0.0602
     16 C           5.4945    2.2664   -0.5847 C.ar    1  LIG1       -0.0342
     17 C           3.3627    1.2544   -0.0372 C.ar    1  LIG1        0.0030
     18 C           6.1730    1.2196    0.0218 C.ar    1  LIG1        0.0053
     19 H           6.0582    3.0578   -1.0625 H       1  LIG1        0.0637
     20 C           4.0426    0.2180    0.5892 C.ar    1  LIG1       -0.0314
     21 C           5.4451    0.1793    0.6413 C.ar    1  LIG1        0.0330
     22 H           3.4712   -0.5753    1.0569 H       1  LIG1        0.0643
     23 N           2.9350    4.2694   -1.8374 N.1     1  LIG1       -0.1908
     24 C           3.4383    3.3883   -1.2997 C.1     1  LIG1        0.0998
     25 N           6.0802   -0.8225    1.3256 N.pl3   1  LIG1       -0.3575
     26 H           5.5664   -1.6719    1.4970 H       1  LIG1        0.1423
     27 H           7.0730   -0.9367    1.1899 H       1  LIG1        0.1423
     28 C           8.3574    0.1929   -0.7024 C.ar    1  LIG1        0.0602
     29 C           9.7514    0.2000   -0.7331 C.ar    1  LIG1       -0.0342
     30 C           7.6663    1.1967    0.0011 C.ar    1  LIG1        0.0030
     31 C          10.4765    1.1884   -0.0827 C.ar    1  LIG1        0.0053
     32 H          10.2791   -0.5605   -1.2949 H       1  LIG1        0.0637
     33 C           8.3884    2.1761    0.6608 C.ar    1  LIG1       -0.0314
     34 C           9.7958    2.1957    0.6384 C.ar    1  LIG1        0.0330
     35 H           7.8548    2.9323    1.2230 H       1  LIG1        0.0643
     36 N           7.0389   -1.6648   -1.9442 N.1     1  LIG1       -0.1908
     37 C           7.6251   -0.8345   -1.4087 C.1     1  LIG1        0.0998
     38 N          10.4771    3.1390    1.3517 N.pl3   1  LIG1       -0.3575
     39 H          11.4667    3.2456    1.1909 H       1  LIG1        0.1423
     40 H           9.9871    3.9761    1.6244 H       1  LIG1        0.1423
     41 C          12.6831    2.1977   -0.7807 C.ar    1  LIG1        0.0596
     42 C          14.0787    2.1468   -0.8381 C.ar    1  LIG1       -0.0420
     43 C          11.9695    1.1663   -0.1459 C.ar    1  LIG1        0.0030
     44 C          14.7676    1.0854   -0.2819 C.ar    1  LIG1       -0.0398
     45 H          14.6157    2.9448   -1.3331 H       1  LIG1        0.0631
     46 C          12.6669    0.1040    0.4107 C.ar    1  LIG1       -0.0320
     47 C          14.0698    0.0415    0.3509 C.ar    1  LIG1        0.0252
     48 H          12.1140   -0.6847    0.9062 H       1  LIG1        0.0642
     49 H          15.8480    1.0509   -0.3387 H       1  LIG1        0.0636
     50 N          11.4352    4.1971   -1.8651 N.1     1  LIG1       -0.1909
     51 C          11.9824    3.3038   -1.3945 C.1     1  LIG1        0.0998
     52 N          14.7408   -1.0314    0.8757 N.pl3   1  LIG1       -0.3579
     53 H          15.7335   -0.9550    1.0265 H       1  LIG1        0.1423
     54 H          14.2503   -1.6539    1.4967 H       1  LIG1        0.1423
@<TRIPOS>BOND
     1    36    37    3
     2    14    12    1
     3    50    51    3
     4    23    24    3
     5    13    12    1
     6    37    28    1
     7    51    41    1
     8    45    42    1
     9    24    15    1
    10    32    29    1
    11    12     7    1
    12     8     6    1
    13    19    16    1
    14    42    41   ar
    15    42    44   ar
    16    41    43   ar
    17    29    28   ar
    18    29    31   ar
    19    28    30   ar
    20     6     7   ar
    21     6     3   ar
    22     7     4   ar
    23    15    16   ar
    24    15    17   ar
    25    16    18   ar
    26    49    44    1
    27    44    47   ar
    28    43    31    1
    29    43    46   ar
    30     9     3    1
    31     3     1   ar
    32    31    34   ar
    33     4    17    1
    34     4     2   ar
    35    17    20   ar
    36    30    18    1
    37    30    33   ar
    38    18    21   ar
    39    47    46   ar
    40    47    52    1
    41    46    48    1
    42     1     2   ar
    43     1    11    1
    44     2     5    1
    45    20    21   ar
    46    20    22    1
    47    34    33   ar
    48    34    38    1
    49    21    25    1
    50    33    35    1
    51    52    53    1
    52    52    54    1
    53    11    10    3
    54    27    25    1
    55    39    38    1
    56    25    26    1
    57    38    40    1
