@<TRIPOS>MOLECULE
mol_data/opt/m06hf/geoms/mol2/4dh4dh4dh4dh.out
 54 57 0 0 0
SMALL
GASTEIGER

@<TRIPOS>ATOM
      1 C          -0.2514    1.8050    1.1013 C.ar    1  LIG1        0.0525
      2 C           1.1419    1.8200    1.1266 C.ar    1  LIG1       -0.0348
      3 C          -0.9197    1.2451    0.0087 C.ar    1  LIG1       -0.0426
      4 C           1.8739    1.2907    0.0708 C.ar    1  LIG1        0.0053
      5 H           1.6595    2.2522    1.9731 H       1  LIG1        0.0637
      6 C          -0.2001    0.7042   -1.0394 C.ar    1  LIG1       -0.0392
      7 C           1.2055    0.7117   -1.0294 C.ar    1  LIG1        0.0325
      8 H          -0.7184    0.2675   -1.8832 H       1  LIG1        0.0636
      9 H          -2.0012    1.2351   -0.0094 H       1  LIG1        0.0631
     10 N          -1.6068    2.8354    3.0580 N.1     1  LIG1       -0.1909
     11 C          -1.0036    2.3761    2.1959 C.1     1  LIG1        0.0992
     12 N           1.9080    0.1907   -2.0930 N.pl3   1  LIG1       -0.3575
     13 H           2.8781   -0.0456   -1.9353 H       1  LIG1        0.1423
     14 H           1.4114   -0.4475   -2.6954 H       1  LIG1        0.1423
     15 C           4.0990    0.7000    1.1150 C.ar    1  LIG1        0.0602
     16 C           5.4940    0.7272    1.0843 C.ar    1  LIG1       -0.0342
     17 C           3.3668    1.3283    0.0947 C.ar    1  LIG1        0.0030
     18 C           6.1757    1.3642    0.0597 C.ar    1  LIG1        0.0053
     19 H           6.0541    0.2153    1.8565 H       1  LIG1        0.0637
     20 C           4.0498    1.9896   -0.9172 C.ar    1  LIG1       -0.0314
     21 C           5.4539    2.0336   -0.9560 C.ar    1  LIG1        0.0330
     22 H           3.4811    2.4889   -1.6928 H       1  LIG1        0.0643
     23 N           2.9413   -0.5767    3.0531 N.1     1  LIG1       -0.1908
     24 C           3.4366   -0.0104    2.1853 C.1     1  LIG1        0.0998
     25 N           6.0954    2.7428   -1.9285 N.pl3   1  LIG1       -0.3575
     26 H           7.0936    2.6438   -2.0356 H       1  LIG1        0.1423
     27 H           5.5841    2.9984   -2.7571 H       1  LIG1        0.1423
     28 C           8.3237    0.6497   -1.0307 C.ar    1  LIG1        0.0602
     29 C           9.7154    0.6380   -1.0874 C.ar    1  LIG1       -0.0342
     30 C           7.6667    1.3254    0.0133 C.ar    1  LIG1        0.0030
     31 C          10.4726    1.2735   -0.1117 C.ar    1  LIG1        0.0053
     32 H          10.2139    0.1237   -1.8993 H       1  LIG1        0.0637
     33 C           8.4213    1.9562    0.9883 C.ar    1  LIG1       -0.0314
     34 C           9.8265    1.9424    0.9492 C.ar    1  LIG1        0.0330
     35 H           7.9125    2.4884    1.7827 H       1  LIG1        0.0643
     36 N           6.9320   -0.5661   -2.8526 N.1     1  LIG1       -0.1908
     37 C           7.5518   -0.0365   -2.0438 C.1     1  LIG1        0.0998
     38 N          10.5519    2.5614    1.9383 N.pl3   1  LIG1       -0.3575
     39 H          11.5147    2.7852    1.7314 H       1  LIG1        0.1423
     40 H          10.0672    3.2330    2.5132 H       1  LIG1        0.1423
     41 C          12.6081    1.8506   -1.3104 C.ar    1  LIG1        0.0596
     42 C          14.0030    1.8242   -1.3959 C.ar    1  LIG1       -0.0420
     43 C          11.9636    1.2706   -0.2075 C.ar    1  LIG1        0.0030
     44 C          14.7570    1.2395   -0.3963 C.ar    1  LIG1       -0.0398
     45 H          14.4881    2.2730   -2.2524 H       1  LIG1        0.0631
     46 C          12.7258    0.6894    0.7988 C.ar    1  LIG1       -0.0320
     47 C          14.1285    0.6618    0.7216 C.ar    1  LIG1        0.0252
     48 H          12.2224    0.2368    1.6453 H       1  LIG1        0.0642
     49 H          15.8365    1.2188   -0.4733 H       1  LIG1        0.0636
     50 N          11.2338    3.0264   -3.1706 N.1     1  LIG1       -0.1909
     51 C          11.8383    2.5016   -2.3470 C.1     1  LIG1        0.0998
     52 N          14.8667    0.0470    1.6973 N.pl3   1  LIG1       -0.3579
     53 H          15.8600    0.2061    1.7331 H       1  LIG1        0.1423
     54 H          14.4248   -0.1973    2.5679 H       1  LIG1        0.1423
@<TRIPOS>BOND
     1    50    51    3
     2    36    37    3
     3    27    25    1
     4    14    12    1
     5    51    41    1
     6    45    42    1
     7    12    13    1
     8    12     7    1
     9    37    28    1
    10    26    25    1
    11    25    21    1
    12    32    29    1
    13     8     6    1
    14    22    20    1
    15    42    41   ar
    16    42    44   ar
    17    41    43   ar
    18    29    28   ar
    19    29    31   ar
    20     6     7   ar
    21     6     3   ar
    22    28    30   ar
    23     7     4   ar
    24    21    20   ar
    25    21    18   ar
    26    20    17   ar
    27    49    44    1
    28    44    47   ar
    29    43    31    1
    30    43    46   ar
    31    31    34   ar
    32     9     3    1
    33     3     1   ar
    34    30    18    1
    35    30    33   ar
    36    18    16   ar
    37     4    17    1
    38     4     2   ar
    39    17    15   ar
    40    47    46   ar
    41    47    52    1
    42    46    48    1
    43    34    33   ar
    44    34    38    1
    45    33    35    1
    46    16    15   ar
    47    16    19    1
    48     1     2   ar
    49     1    11    1
    50    15    24    1
    51     2     5    1
    52    52    53    1
    53    52    54    1
    54    39    38    1
    55    38    40    1
    56    24    23    3
    57    11    10    3
