@<TRIPOS>MOLECULE
mol_data/opt/m06hf/geoms/mol2/4dh4dh-4dh.out
 41 43 0 0 0
SMALL
GASTEIGER

@<TRIPOS>ATOM
      1 C          -0.1203    0.1199    0.4371 C.ar    1  LIG1        0.0525
      2 C           1.2730    0.1188    0.4154 C.ar    1  LIG1       -0.0348
      3 C          -0.8182    1.2506    0.0015 C.ar    1  LIG1       -0.0426
      4 C           1.9761    1.2303   -0.0339 C.ar    1  LIG1        0.0053
      5 H           1.8183   -0.7466    0.7700 H       1  LIG1        0.0637
      6 C          -0.1281    2.3551   -0.4577 C.ar    1  LIG1       -0.0392
      7 C           1.2775    2.3674   -0.4928 C.ar    1  LIG1        0.0325
      8 H          -0.6690    3.2236   -0.8102 H       1  LIG1        0.0636
      9 H          -1.8996    1.2526    0.0236 H       1  LIG1        0.0631
     10 N          -1.4169   -1.9581    1.2906 N.1     1  LIG1       -0.1909
     11 C          -0.8403   -1.0392    0.9142 C.1     1  LIG1        0.0992
     12 N           1.9407    3.4486   -1.0218 N.pl3   1  LIG1       -0.3575
     13 H           2.9313    3.5197   -0.8443 H       1  LIG1        0.1423
     14 H           1.4522    4.3307   -1.0104 H       1  LIG1        0.1423
     15 C           4.2289    2.0660    0.7607 C.ar    1  LIG1        0.0602
     16 C           5.6211    1.9834    0.7532 C.ar    1  LIG1       -0.0342
     17 C           3.4700    1.1914   -0.0385 C.ar    1  LIG1        0.0030
     18 C           6.2810    1.0441   -0.0265 C.ar    1  LIG1        0.0053
     19 H           6.1987    2.6439    1.3876 H       1  LIG1        0.0637
     20 C           4.1295    0.2624   -0.8258 C.ar    1  LIG1       -0.0314
     21 C           5.5331    0.1669   -0.8427 C.ar    1  LIG1        0.0330
     22 H           3.5462   -0.3921   -1.4617 H       1  LIG1        0.0643
     23 N           3.0838    3.8490    2.2568 N.1     1  LIG1       -0.1908
     24 C           3.5820    3.0440    1.6067 C.1     1  LIG1        0.0998
     25 N           6.1456   -0.7191   -1.6851 N.pl3   1  LIG1       -0.3575
     26 H           5.6035   -1.5026   -2.0138 H       1  LIG1        0.1423
     27 H           7.1283   -0.9028   -1.5530 H       1  LIG1        0.1423
     28 C           8.4488   -0.1470    0.4859 C.ar    1  LIG1        0.0596
     29 C           9.8461   -0.1651    0.5222 C.ar    1  LIG1       -0.0420
     30 C           7.7738    0.9873    0.0035 C.ar    1  LIG1        0.0030
     31 C          10.5747    0.9286    0.0939 C.ar    1  LIG1       -0.0398
     32 H          10.3529   -1.0424    0.9012 H       1  LIG1        0.0631
     33 C           8.5114    2.0811   -0.4264 C.ar    1  LIG1       -0.0320
     34 C           9.9163    2.0738   -0.3867 C.ar    1  LIG1        0.0252
     35 H           7.9882    2.9501   -0.8061 H       1  LIG1        0.0642
     36 H          11.6563    0.9095    0.1347 H       1  LIG1        0.0636
     37 N           7.1271   -2.2149    1.3270 N.1     1  LIG1       -0.1909
     38 C           7.7073   -1.2918    0.9659 C.1     1  LIG1        0.0998
     39 N          10.6288    3.1752   -0.7834 N.pl3   1  LIG1       -0.3579
     40 H          11.6146    3.0744   -0.9628 H       1  LIG1        0.1423
     41 H          10.1593    3.8926   -1.3113 H       1  LIG1        0.1423
@<TRIPOS>BOND
     1    26    25    1
     2    25    27    1
     3    25    21    1
     4    22    20    1
     5    41    39    1
     6    12    14    1
     7    12    13    1
     8    12     7    1
     9    40    39    1
    10    21    20   ar
    11    21    18   ar
    12    20    17   ar
    13     8     6    1
    14    35    33    1
    15    39    34    1
    16     7     6   ar
    17     7     4   ar
    18     6     3   ar
    19    33    34   ar
    20    33    30   ar
    21    34    31   ar
    22    17     4    1
    23    17    15   ar
    24     4     2   ar
    25    18    30    1
    26    18    16   ar
    27     3     9    1
    28     3     1   ar
    29    30    28   ar
    30    31    36    1
    31    31    29   ar
    32     2     1   ar
    33     2     5    1
    34     1    11    1
    35    28    29   ar
    36    28    38    1
    37    29    32    1
    38    16    15   ar
    39    16    19    1
    40    15    24    1
    41    11    10    3
    42    38    37    3
    43    24    23    3
