@<TRIPOS>MOLECULE
mol_data/opt/m06hf/geoms/mol2/4dh4dh-4dh-4dh.out
 54 57 0 0 0
SMALL
GASTEIGER

@<TRIPOS>ATOM
      1 C          -0.2605    0.8219    1.0305 C.ar    1  LIG1        0.0525
      2 C           1.1324    0.8274    1.0740 C.ar    1  LIG1       -0.0348
      3 C          -0.9206    1.1928   -0.1441 C.ar    1  LIG1       -0.0426
      4 C           1.8711    1.1889   -0.0456 C.ar    1  LIG1        0.0053
      5 H           1.6451    0.5419    1.9835 H       1  LIG1        0.0637
      6 C          -0.1930    1.5684   -1.2575 C.ar    1  LIG1       -0.0392
      7 C           1.2115    1.5787   -1.2291 C.ar    1  LIG1        0.0325
      8 H          -0.7048    1.8614   -2.1651 H       1  LIG1        0.0636
      9 H          -2.0019    1.1865   -0.1749 H       1  LIG1        0.0631
     10 N          -1.6298    0.0890    3.1085 N.1     1  LIG1       -0.1909
     11 C          -1.0211    0.4191    2.1925 C.1     1  LIG1        0.0992
     12 N           1.9297    1.9321   -2.3527 N.pl3   1  LIG1       -0.3575
     13 H           2.8851    2.2261   -2.2026 H       1  LIG1        0.1423
     14 H           1.4357    2.4705   -3.0481 H       1  LIG1        0.1423
     15 C           4.0840    2.0130    0.8531 C.ar    1  LIG1        0.0602
     16 C           5.4781    1.9671    0.8678 C.ar    1  LIG1       -0.0342
     17 C           3.3648    1.1632   -0.0013 C.ar    1  LIG1        0.0030
     18 C           6.1703    1.0831    0.0530 C.ar    1  LIG1        0.0053
     19 H           6.0276    2.6317    1.5222 H       1  LIG1        0.0637
     20 C           4.0585    0.2894   -0.8281 C.ar    1  LIG1       -0.0314
     21 C           5.4615    0.2260   -0.8172 C.ar    1  LIG1        0.0330
     22 H           3.4982   -0.3590   -1.4913 H       1  LIG1        0.0643
     23 N           2.8626    3.6935    2.4063 N.1     1  LIG1       -0.1908
     24 C           3.3942    2.9492    1.7125 C.1     1  LIG1        0.0998
     25 N           6.1235   -0.6739   -1.6132 N.pl3   1  LIG1       -0.3575
     26 H           5.6131   -1.0882   -2.3767 H       1  LIG1        0.1423
     27 H           7.1102   -0.5299   -1.7739 H       1  LIG1        0.1423
     28 C           8.4236    2.1420   -0.3483 C.ar    1  LIG1        0.0602
     29 C           9.8165    2.0629   -0.3490 C.ar    1  LIG1       -0.0342
     30 C           7.6630    1.0413    0.0758 C.ar    1  LIG1        0.0030
     31 C          10.4674    0.9098    0.0620 C.ar    1  LIG1        0.0053
     32 H          10.3993    2.9034   -0.7042 H       1  LIG1        0.0637
     33 C           8.3129   -0.1075    0.5036 C.ar    1  LIG1       -0.0314
     34 C           9.7155   -0.1976    0.5165 C.ar    1  LIG1        0.0330
     35 H           7.7213   -0.9490    0.8448 H       1  LIG1        0.0643
     36 N           7.2830    4.3137   -1.1902 N.1     1  LIG1       -0.1908
     37 C           7.7785    3.3475   -0.8171 C.1     1  LIG1        0.0998
     38 N          10.3284   -1.3177    0.9993 N.pl3   1  LIG1       -0.3575
     39 H           9.7933   -2.1688    1.0584 H       1  LIG1        0.1423
     40 H          11.3205   -1.4280    0.8570 H       1  LIG1        0.1423
     41 C          12.5833   -0.0367   -0.9135 C.ar    1  LIG1        0.0596
     42 C          13.9779   -0.0846   -0.9876 C.ar    1  LIG1       -0.0420
     43 C          11.9581    0.8370   -0.0070 C.ar    1  LIG1        0.0030
     44 C          14.7503    0.7281   -0.1784 C.ar    1  LIG1       -0.0398
     45 H          14.4483   -0.7569   -1.6923 H       1  LIG1        0.0631
     46 C          12.7374    1.6481    0.8035 C.ar    1  LIG1       -0.0320
     47 C          14.1412    1.6133    0.7284 C.ar    1  LIG1        0.0252
     48 H          12.2503    2.3088    1.5100 H       1  LIG1        0.0642
     49 H          15.8300    0.6844   -0.2397 H       1  LIG1        0.0636
     50 N          11.1340   -1.5433   -2.4503 N.1     1  LIG1       -0.1909
     51 C          11.7798   -0.8705   -1.7799 C.1     1  LIG1        0.0998
     52 N          14.9001    2.3989    1.5553 N.pl3   1  LIG1       -0.3579
     53 H          15.8737    2.5322    1.3347 H       1  LIG1        0.1423
     54 H          14.4547    3.1619    2.0385 H       1  LIG1        0.1423
@<TRIPOS>BOND
     1    14    12    1
     2    50    51    3
     3    26    25    1
     4    12    13    1
     5    12     7    1
     6     8     6    1
     7    51    41    1
     8    27    25    1
     9    45    42    1
    10    25    21    1
    11    22    20    1
    12     6     7   ar
    13     6     3   ar
    14     7     4   ar
    15    36    37    3
    16    42    41   ar
    17    42    44   ar
    18    41    43   ar
    19    20    21   ar
    20    20    17   ar
    21    21    18   ar
    22    37    28    1
    23    32    29    1
    24    29    28   ar
    25    29    31   ar
    26    28    30   ar
    27    49    44    1
    28    44    47   ar
    29     9     3    1
    30     3     1   ar
    31     4    17    1
    32     4     2   ar
    33    43    31    1
    34    43    46   ar
    35    17    15   ar
    36    18    30    1
    37    18    16   ar
    38    31    34   ar
    39    30    33   ar
    40    33    34   ar
    41    33    35    1
    42    34    38    1
    43    47    46   ar
    44    47    52    1
    45    46    48    1
    46    15    16   ar
    47    15    24    1
    48    40    38    1
    49    16    19    1
    50    38    39    1
    51     1     2   ar
    52     1    11    1
    53     2     5    1
    54    53    52    1
    55    52    54    1
    56    24    23    3
    57    11    10    3
