@<TRIPOS>MOLECULE
mol_data/opt/m06hf/geoms/mol2/4dh4ai12fa6le.out
 51 54 0 0 0
SMALL
GASTEIGER

@<TRIPOS>ATOM
      1 C          -0.2090    0.0320    0.4218 C.ar    1  LIG1        0.0525
      2 C           1.1781    0.1528    0.5139 C.ar    1  LIG1       -0.0349
      3 C          -0.9179    0.8416   -0.4685 C.ar    1  LIG1       -0.0426
      4 C           1.8691    1.0691   -0.2688 C.ar    1  LIG1        0.0040
      5 H           1.7280   -0.4660    1.2114 H       1  LIG1        0.0637
      6 C          -0.2417    1.7546   -1.2569 C.ar    1  LIG1       -0.0392
      7 C           1.1546    1.8829   -1.1760 C.ar    1  LIG1        0.0324
      8 H          -0.7902    2.3806   -1.9492 H       1  LIG1        0.0636
      9 H          -1.9931    0.7486   -0.5392 H       1  LIG1        0.0631
     10 N          -1.4698   -1.6874    1.8993 N.1     1  LIG1       -0.1909
     11 C          -0.9099   -0.9262    1.2470 C.1     1  LIG1        0.0992
     12 N           1.8123    2.8077   -1.9571 N.pl3   1  LIG1       -0.3575
     13 H           2.8076    2.6761   -2.0727 H       1  LIG1        0.1423
     14 H           1.3272    3.1388   -2.7764 H       1  LIG1        0.1423
     15 C           4.1532    0.0388   -0.3611 C.ar    1  LIG1       -0.0533
     16 C           5.5335    0.1349   -0.2498 C.ar    1  LIG1       -0.0501
     17 C           3.3562    1.1667   -0.1645 C.ar    1  LIG1       -0.0158
     18 C           6.1426    1.3542    0.0669 C.ar    1  LIG1        0.0239
     19 H           6.1541   -0.7360   -0.4128 H       1  LIG1        0.0625
     20 C           3.9724    2.3806    0.1548 C.ar    1  LIG1       -0.0504
     21 C           5.3550    2.5017    0.2835 C.ar    1  LIG1       -0.0391
     22 H           3.3488    3.2509    0.3286 H       1  LIG1        0.0626
     23 H           3.6911   -0.9062   -0.6184 H       1  LIG1        0.0624
     24 C           5.9455    3.8458    0.6784 C.3     1  LIG1       -0.0390
     25 H           5.1426    4.5121    0.9932 H       1  LIG1        0.0278
     26 H           6.4834    4.2967   -0.1560 H       1  LIG1        0.0278
     27 H           6.6608    3.7274    1.4933 H       1  LIG1        0.0278
     28 C           7.6073    1.3774    0.1809 C.ar    1  LIG1        0.1771
     29 C           8.5209    0.3948    0.4392 C.ar    1  LIG1        0.1632
     30 C           9.8156    1.0063    0.4327 C.ar    1  LIG1        0.0266
     31 C           9.5895    2.3235    0.1677 C.ar    1  LIG1        0.1445
     32 O           8.2754    2.5441    0.0047 O.2     1  LIG1       -0.4509
     33 O           8.2220   -0.9191    0.6377 O.3     1  LIG1       -0.5032
     34 H           8.8554   -1.3149    1.2453 H       1  LIG1        0.2923
     35 H          10.7681    0.5396    0.6248 H       1  LIG1        0.0692
     36 C          10.2260    4.7422    0.5182 C.ar    1  LIG1        0.2255
     37 C          10.5186    3.4517    0.0117 C.ar    1  LIG1        0.0800
     38 C          11.7387    3.2838   -0.6151 C.ar    1  LIG1       -0.0291
     39 C          12.6292    4.3636   -0.7200 C.ar    1  LIG1        0.0437
     40 C          12.2267    5.5850   -0.1930 C.ar    1  LIG1        0.0468
     41 N          11.0508    5.7646    0.4102 N.ar    1  LIG1       -0.2195
     42 H          12.0015    2.3236   -1.0395 H       1  LIG1        0.0639
     43 H          12.8776    6.4473   -0.2597 H       1  LIG1        0.0843
     44 O           9.0594    4.9133    1.1440 O.3     1  LIG1       -0.4792
     45 C           8.7755    6.2169    1.6512 C.3     1  LIG1        0.0804
     46 H           7.7891    6.1362    2.0989 H       1  LIG1        0.0660
     47 H           9.5208    6.5010    2.3933 H       1  LIG1        0.0660
     48 H           8.7791    6.9436    0.8399 H       1  LIG1        0.0660
     49 C          13.9094    4.2218   -1.3644 C.1     1  LIG1       -0.0681
     50 C          14.9768    4.1005   -1.9021 C.1     1  LIG1       -0.1139
     51 H          15.9237    3.9948   -2.3786 H       1  LIG1        0.1232
@<TRIPOS>BOND
     1    14    12    1
     2    51    50    1
     3    13    12    1
     4    12     7    1
     5     8     6    1
     6    50    49    3
     7    49    39    1
     8     6     7   ar
     9     6     3   ar
    10     7     4   ar
    11    42    38    1
    12    39    38   ar
    13    39    40   ar
    14    23    15    1
    15    38    37   ar
    16     9     3    1
    17     3     1   ar
    18    19    16    1
    19    15    16   ar
    20    15    17   ar
    21     4    17    1
    22     4     2   ar
    23    43    40    1
    24    16    18   ar
    25    40    41   ar
    26    17    20   ar
    27    26    24    1
    28    32    31   ar
    29    32    28   ar
    30    37    31    1
    31    37    36   ar
    32    18    28    1
    33    18    21   ar
    34    20    21   ar
    35    20    22    1
    36    31    30   ar
    37    28    29   ar
    38    21    24    1
    39    41    36   ar
    40     1     2   ar
    41     1    11    1
    42    30    29   ar
    43    30    35    1
    44    29    33    1
    45     2     5    1
    46    36    44    1
    47    33    34    1
    48    24    25    1
    49    24    27    1
    50    48    45    1
    51    44    45    1
    52    11    10    3
    53    45    46    1
    54    45    47    1
