@<TRIPOS>MOLECULE
mol_data/opt/m06hf/geoms/mol2/4dh4dh4dh-4dh-.out
 54 57 0 0 0
SMALL
GASTEIGER

@<TRIPOS>ATOM
      1 C          -0.2257    0.7701    1.1024 C.ar    1  LIG1        0.0525
      2 C           1.1656    0.7063    1.0638 C.ar    1  LIG1       -0.0348
      3 C          -0.9230    1.3761    0.0532 C.ar    1  LIG1       -0.0426
      4 C           1.8701    1.2449   -0.0069 C.ar    1  LIG1        0.0053
      5 H           1.7052    0.2400    1.8783 H       1  LIG1        0.0637
      6 C          -0.2318    1.9058   -1.0195 C.ar    1  LIG1       -0.0392
      7 C           1.1708    1.8504   -1.0725 C.ar    1  LIG1        0.0325
      8 H          -0.7717    2.3726   -1.8337 H       1  LIG1        0.0636
      9 H          -2.0030    1.4249    0.0858 H       1  LIG1        0.0631
     10 N          -1.5272   -0.2145    3.1187 N.1     1  LIG1       -0.1909
     11 C          -0.9472    0.2174    2.2271 C.1     1  LIG1        0.0992
     12 N           1.8443    2.4119   -2.1375 N.pl3   1  LIG1       -0.3575
     13 H           2.7941    2.1034   -2.2885 H       1  LIG1        0.1423
     14 H           1.3109    2.5585   -2.9807 H       1  LIG1        0.1423
     15 C           4.0435   -0.0421    0.0311 C.ar    1  LIG1        0.0602
     16 C           5.4382   -0.0619    0.0451 C.ar    1  LIG1       -0.0342
     17 C           3.3631    1.1853   -0.0234 C.ar    1  LIG1        0.0030
     18 C           6.1732    1.1131   -0.0071 C.ar    1  LIG1        0.0053
     19 H           5.9574   -1.0096    0.1107 H       1  LIG1        0.0637
     20 C           4.0984    2.3608   -0.0923 C.ar    1  LIG1       -0.0314
     21 C           5.5045    2.3551   -0.0988 C.ar    1  LIG1        0.0330
     22 H           3.5711    3.3059   -0.1479 H       1  LIG1        0.0643
     23 N           2.7762   -2.3045    0.0693 N.1     1  LIG1       -0.1908
     24 C           3.3226   -1.2947    0.0560 C.1     1  LIG1        0.0998
     25 N           6.1948    3.5258   -0.2418 N.pl3   1  LIG1       -0.3575
     26 H           7.1914    3.5259   -0.0835 H       1  LIG1        0.1423
     27 H           5.7223    4.3853   -0.0116 H       1  LIG1        0.1423
     28 C           8.3914    1.6214    1.0820 C.ar    1  LIG1        0.0602
     29 C           9.7844    1.5771    1.0757 C.ar    1  LIG1       -0.0342
     30 C           7.6650    1.0542    0.0204 C.ar    1  LIG1        0.0030
     31 C          10.4736    0.9597    0.0410 C.ar    1  LIG1        0.0053
     32 H          10.3363    2.0266    1.8916 H       1  LIG1        0.0637
     33 C           8.3538    0.4338   -1.0098 C.ar    1  LIG1       -0.0314
     34 C           9.7576    0.3691   -1.0203 C.ar    1  LIG1        0.0330
     35 H           7.7938    0.0088   -1.8339 H       1  LIG1        0.0643
     36 N           7.1675    2.7762    3.0569 N.1     1  LIG1       -0.1908
     37 C           7.7040    2.2532    2.1869 C.1     1  LIG1        0.0998
     38 N          10.4145   -0.2724   -2.0425 N.pl3   1  LIG1       -0.3575
     39 H           9.8967   -0.4390   -2.8911 H       1  LIG1        0.1423
     40 H          11.3923   -0.0537   -2.1692 H       1  LIG1        0.1423
     41 C          12.6796    2.1623   -0.0433 C.ar    1  LIG1        0.0596
     42 C          14.0775    2.1478   -0.0372 C.ar    1  LIG1       -0.0420
     43 C          11.9679    0.9558    0.0363 C.ar    1  LIG1        0.0030
     44 C          14.7665    0.9522    0.0382 C.ar    1  LIG1       -0.0398
     45 H          14.6159    3.0838   -0.0970 H       1  LIG1        0.0631
     46 C          12.6637   -0.2450    0.1057 C.ar    1  LIG1       -0.0320
     47 C          14.0693   -0.2679    0.1111 C.ar    1  LIG1        0.0252
     48 H          12.1077   -1.1726    0.1729 H       1  LIG1        0.0642
     49 H          15.8489    0.9505    0.0479 H       1  LIG1        0.0636
     50 N          11.4137    4.4175   -0.2454 N.1     1  LIG1       -0.1909
     51 C          11.9722    3.4183   -0.1542 C.1     1  LIG1        0.0998
     52 N          14.7443   -1.4516    0.2199 N.pl3   1  LIG1       -0.3579
     53 H          14.2475   -2.3203    0.1177 H       1  LIG1        0.1423
     54 H          15.7367   -1.4762    0.0560 H       1  LIG1        0.1423
@<TRIPOS>BOND
     1    14    12    1
     2    39    38    1
     3    13    12    1
     4    40    38    1
     5    12     7    1
     6    38    34    1
     7    35    33    1
     8     8     6    1
     9     7     6   ar
    10     7     4   ar
    11    34    33   ar
    12    34    31   ar
    13     6     3   ar
    14    33    30   ar
    15    50    51    3
    16    25    21    1
    17    25    26    1
    18    25    27    1
    19    51    41    1
    20    22    20    1
    21    21    20   ar
    22    21    18   ar
    23    45    42    1
    24    20    17   ar
    25    41    42   ar
    26    41    43   ar
    27    42    44   ar
    28    17     4    1
    29    17    15   ar
    30    18    30    1
    31    18    16   ar
    32     4     2   ar
    33    30    28   ar
    34    15    16   ar
    35    15    24    1
    36    43    31    1
    37    43    46   ar
    38    44    49    1
    39    44    47   ar
    40    31    29   ar
    41    16    19    1
    42     3     9    1
    43     3     1   ar
    44    24    23    3
    45    54    52    1
    46    46    47   ar
    47    46    48    1
    48    47    52    1
    49    53    52    1
    50     2     1   ar
    51     2     5    1
    52    29    28   ar
    53    29    32    1
    54    28    37    1
    55     1    11    1
    56    37    36    3
    57    11    10    3
