@<TRIPOS>MOLECULE
mol_data/opt/m06hf/geoms/mol2/4dh4dh4dh.out
 41 43 0 0 0
SMALL
GASTEIGER

@<TRIPOS>ATOM
      1 C          -0.0870    0.8007    1.2181 C.ar    1  LIG1        0.0525
      2 C           1.3053    0.7611    1.1686 C.ar    1  LIG1       -0.0348
      3 C          -0.8074    1.2898    0.1248 C.ar    1  LIG1       -0.0426
      4 C           1.9825    1.2157    0.0444 C.ar    1  LIG1        0.0053
      5 H           1.8655    0.3805    2.0128 H       1  LIG1        0.0637
      6 C          -0.1410    1.7295   -1.0036 C.ar    1  LIG1       -0.0392
      7 C           1.2620    1.6972   -1.0677 C.ar    1  LIG1        0.0325
      8 H          -0.7003    2.1014   -1.8522 H       1  LIG1        0.0636
      9 H          -1.8880    1.3189    0.1662 H       1  LIG1        0.0631
     10 N          -1.3430    0.0071    3.3442 N.1     1  LIG1       -0.1909
     11 C          -0.7845    0.3514    2.4022 C.1     1  LIG1        0.0992
     12 N           1.9226    2.1618   -2.1858 N.pl3   1  LIG1       -0.3575
     13 H           2.8705    1.8360   -2.3170 H       1  LIG1        0.1423
     14 H           1.3816    2.2137   -3.0356 H       1  LIG1        0.1423
     15 C           4.1925   -0.0068    0.0081 C.ar    1  LIG1        0.0602
     16 C           5.5865    0.0108   -0.0400 C.ar    1  LIG1       -0.0342
     17 C           3.4764    1.1992    0.0058 C.ar    1  LIG1        0.0030
     18 C           6.2816    1.2107   -0.0802 C.ar    1  LIG1        0.0053
     19 H           6.1339   -0.9232   -0.0484 H       1  LIG1        0.0637
     20 C           4.1728    2.3996   -0.0483 C.ar    1  LIG1       -0.0314
     21 C           5.5752    2.4307   -0.0886 C.ar    1  LIG1        0.0330
     22 H           3.6141    3.3279   -0.0583 H       1  LIG1        0.0643
     23 N           2.9650   -2.2905    0.0935 N.1     1  LIG1       -0.1908
     24 C           3.4982   -1.2749    0.0508 C.1     1  LIG1        0.0998
     25 N           6.2481    3.6308   -0.1038 N.pl3   1  LIG1       -0.3575
     26 H           7.2085    3.6124   -0.4153 H       1  LIG1        0.1423
     27 H           5.7242    4.4474   -0.3770 H       1  LIG1        0.1423
     28 C           8.4523    0.7409   -1.2674 C.ar    1  LIG1        0.0596
     29 C           9.8501    0.7322   -1.2904 C.ar    1  LIG1       -0.0420
     30 C           7.7755    1.2119   -0.1330 C.ar    1  LIG1        0.0030
     31 C          10.5723    1.1934   -0.2058 C.ar    1  LIG1       -0.0398
     32 H          10.3619    0.3629   -2.1689 H       1  LIG1        0.0631
     33 C           8.5047    1.6864    0.9500 C.ar    1  LIG1       -0.0320
     34 C           9.9098    1.6826    0.9343 C.ar    1  LIG1        0.0252
     35 H           7.9735    2.0494    1.8219 H       1  LIG1        0.0642
     36 H          11.6546    1.1749   -0.2284 H       1  LIG1        0.0636
     37 N           7.1275   -0.0597   -3.3488 N.1     1  LIG1       -0.1909
     38 C           7.7089    0.2898   -2.4225 C.1     1  LIG1        0.0998
     39 N          10.6193    2.1090    2.0260 N.pl3   1  LIG1       -0.3579
     40 H          11.6035    2.2955    1.9261 H       1  LIG1        0.1423
     41 H          10.1422    2.6260    2.7461 H       1  LIG1        0.1423
@<TRIPOS>BOND
     1    37    38    3
     2    14    12    1
     3    38    28    1
     4    13    12    1
     5    12     7    1
     6    32    29    1
     7     8     6    1
     8    29    28   ar
     9    29    31   ar
    10    28    30   ar
    11     7     6   ar
    12     7     4   ar
    13     6     3   ar
    14    26    25    1
    15    27    25    1
    16    36    31    1
    17    31    34   ar
    18    30    18    1
    19    30    33   ar
    20    25    21    1
    21    21    18   ar
    22    21    20   ar
    23    18    16   ar
    24    22    20    1
    25    19    16    1
    26    20    17   ar
    27    16    15   ar
    28    17    15   ar
    29    17     4    1
    30    15    24    1
    31     4     2   ar
    32    24    23    3
    33     3     9    1
    34     3     1   ar
    35    34    33   ar
    36    34    39    1
    37    33    35    1
    38     2     1   ar
    39     2     5    1
    40     1    11    1
    41    40    39    1
    42    39    41    1
    43    11    10    3
