@<TRIPOS>MOLECULE
mol_data/opt/m06hf/geoms/mol2/4dh4dh-4dh-4dh-.out
 54 57 0 0 0
SMALL
GASTEIGER

@<TRIPOS>ATOM
      1 C          -0.2945    0.2085   -0.2690 C.ar    1  LIG1        0.0525
      2 C           1.0965    0.1244   -0.2407 C.ar    1  LIG1       -0.0348
      3 C          -0.9142    1.4516   -0.1050 C.ar    1  LIG1       -0.0426
      4 C           1.8725    1.2597   -0.0508 C.ar    1  LIG1        0.0053
      5 H           1.5818   -0.8371   -0.3503 H       1  LIG1        0.0637
      6 C          -0.1507    2.5884    0.0718 C.ar    1  LIG1       -0.0392
      7 C           1.2548    2.5219    0.0958 C.ar    1  LIG1        0.0325
      8 H          -0.6322    3.5513    0.1830 H       1  LIG1        0.0636
      9 H          -1.9938    1.5171   -0.1223 H       1  LIG1        0.0631
     10 N          -1.7051   -1.9377   -0.6299 N.1     1  LIG1       -0.1909
     11 C          -1.0840   -0.9856   -0.4663 C.1     1  LIG1        0.0992
     12 N           1.9967    3.6661    0.2045 N.pl3   1  LIG1       -0.3575
     13 H           2.9869    3.5884    0.3811 H       1  LIG1        0.1423
     14 H           1.5530    4.4829    0.5923 H       1  LIG1        0.1423
     15 C           4.0812    1.4293    1.1591 C.ar    1  LIG1        0.0602
     16 C           5.4708    1.3258    1.1667 C.ar    1  LIG1       -0.0342
     17 C           3.3607    1.1398   -0.0142 C.ar    1  LIG1        0.0030
     18 C           6.1637    0.9223    0.0334 C.ar    1  LIG1        0.0053
     19 H           6.0164    1.5561    2.0730 H       1  LIG1        0.0637
     20 C           4.0527    0.7388   -1.1453 C.ar    1  LIG1       -0.0314
     21 C           5.4539    0.6216   -1.1500 C.ar    1  LIG1        0.0330
     22 H           3.4972    0.5316   -2.0519 H       1  LIG1        0.0643
     23 N           2.8534    2.1450    3.3298 N.1     1  LIG1       -0.1908
     24 C           3.3901    1.8214    2.3676 C.1     1  LIG1        0.0998
     25 N           6.1069    0.2095   -2.2844 N.pl3   1  LIG1       -0.3575
     26 H           5.5985    0.2563   -3.1536 H       1  LIG1        0.1423
     27 H           7.0967    0.4008   -2.3531 H       1  LIG1        0.1423
     28 C           8.4392    1.9631    0.3381 C.ar    1  LIG1        0.0602
     29 C           9.8306    1.8649    0.3136 C.ar    1  LIG1       -0.0342
     30 C           7.6537    0.8348    0.0532 C.ar    1  LIG1        0.0030
     31 C          10.4575    0.6672    0.0059 C.ar    1  LIG1        0.0053
     32 H          10.4322    2.7449    0.5039 H       1  LIG1        0.0637
     33 C           8.2805   -0.3711   -0.2295 C.ar    1  LIG1       -0.0314
     34 C           9.6807   -0.4855   -0.2515 C.ar    1  LIG1        0.0330
     35 H           7.6718   -1.2453   -0.4292 H       1  LIG1        0.0643
     36 N           7.3389    4.2589    0.8366 N.1     1  LIG1       -0.1908
     37 C           7.8213    3.2406    0.6139 C.1     1  LIG1        0.0998
     38 N          10.2688   -1.6989   -0.4734 N.pl3   1  LIG1       -0.3575
     39 H           9.7190   -2.4216   -0.9094 H       1  LIG1        0.1423
     40 H          11.2587   -1.7262   -0.6645 H       1  LIG1        0.1423
     41 C          12.5771    0.3728   -1.3139 C.ar    1  LIG1        0.0596
     42 C          13.9719    0.3428   -1.3914 C.ar    1  LIG1       -0.0420
     43 C          11.9479    0.6125   -0.0797 C.ar    1  LIG1        0.0030
     44 C          14.7418    0.5523   -0.2623 C.ar    1  LIG1       -0.0398
     45 H          14.4454    0.1621   -2.3470 H       1  LIG1        0.0631
     46 C          12.7244    0.8207    1.0496 C.ar    1  LIG1       -0.0320
     47 C          14.1289    0.7981    0.9793 C.ar    1  LIG1        0.0252
     48 H          12.2338    0.9980    1.9989 H       1  LIG1        0.0642
     49 H          15.8218    0.5352   -0.3323 H       1  LIG1        0.0636
     50 N          11.1413   -0.0149   -3.4399 N.1     1  LIG1       -0.1909
     51 C          11.7799    0.1701   -2.5034 C.1     1  LIG1        0.0998
     52 N          14.8830    1.0398    2.0959 N.pl3   1  LIG1       -0.3579
     53 H          14.4386    1.0128    2.9990 H       1  LIG1        0.1423
     54 H          15.8630    0.8095    2.0807 H       1  LIG1        0.1423
@<TRIPOS>BOND
     1    50    51    3
     2    26    25    1
     3    51    41    1
     4    27    25    1
     5    45    42    1
     6    25    21    1
     7    22    20    1
     8    42    41   ar
     9    42    44   ar
    10    41    43   ar
    11    21    20   ar
    12    21    18   ar
    13    20    17   ar
    14    39    38    1
    15    40    38    1
    16    10    11    3
    17    38    34    1
    18    11     1    1
    19    35    33    1
    20     5     2    1
    21    49    44    1
    22     1     2   ar
    23     1     3   ar
    24    44    47   ar
    25    34    33   ar
    26    34    31   ar
    27     2     4   ar
    28    33    30   ar
    29     9     3    1
    30     3     6   ar
    31    43    31    1
    32    43    46   ar
    33     4    17    1
    34     4     7   ar
    35    17    15   ar
    36    31    29   ar
    37    18    30    1
    38    18    16   ar
    39    30    28   ar
    40     6     7   ar
    41     6     8    1
    42     7    12    1
    43    12    13    1
    44    12    14    1
    45    29    28   ar
    46    29    32    1
    47    28    37    1
    48    37    36    3
    49    47    46   ar
    50    47    52    1
    51    46    48    1
    52    15    16   ar
    53    15    24    1
    54    16    19    1
    55    54    52    1
    56    52    53    1
    57    24    23    3
