@<TRIPOS>MOLECULE
mol_data/opt/m06hf/geoms/mol2/4dh4dh4dh-4dh.out
 54 57 0 0 0
SMALL
GASTEIGER

@<TRIPOS>ATOM
      1 C          -0.1138    2.6884    0.3280 C.ar    1  LIG1        0.0525
      2 C           1.2741    2.5643    0.3178 C.ar    1  LIG1       -0.0348
      3 C          -0.9097    1.5857    0.0036 C.ar    1  LIG1       -0.0426
      4 C           1.8758    1.3562   -0.0128 C.ar    1  LIG1        0.0053
      5 H           1.8942    3.4098    0.5877 H       1  LIG1        0.0637
      6 C          -0.3203    0.3839   -0.3358 C.ar    1  LIG1       -0.0392
      7 C           1.0788    0.2440   -0.3575 C.ar    1  LIG1        0.0325
      8 H          -0.9362   -0.4653   -0.6029 H       1  LIG1        0.0636
      9 H          -1.9871    1.6821    0.0158 H       1  LIG1        0.0631
     10 N          -1.2114    4.9604    0.9292 N.1     1  LIG1       -0.1909
     11 C          -0.7249    3.9534    0.6683 C.1     1  LIG1        0.0992
     12 N           1.6437   -0.9400   -0.7651 N.pl3   1  LIG1       -0.3575
     13 H           2.6255   -1.0768   -0.5779 H       1  LIG1        0.1423
     14 H           1.0819   -1.7710   -0.6622 H       1  LIG1        0.1423
     15 C           4.0458    0.4351    0.9036 C.ar    1  LIG1        0.0602
     16 C           5.4394    0.3889    0.9011 C.ar    1  LIG1       -0.0342
     17 C           3.3675    1.2624   -0.0095 C.ar    1  LIG1        0.0030
     18 C           6.1767    1.1485    0.0034 C.ar    1  LIG1        0.0053
     19 H           5.9530   -0.2439    1.6138 H       1  LIG1        0.0637
     20 C           4.1048    2.0274   -0.8990 C.ar    1  LIG1       -0.0314
     21 C           5.5105    1.9948   -0.9101 C.ar    1  LIG1        0.0330
     22 H           3.5801    2.6588   -1.6055 H       1  LIG1        0.0643
     23 N           2.7196   -1.0378    2.5773 N.1     1  LIG1       -0.1908
     24 C           3.3059   -0.3696    1.8506 C.1     1  LIG1        0.0998
     25 N           6.2114    2.7479   -1.8162 N.pl3   1  LIG1       -0.3575
     26 H           7.1929    2.9098   -1.6402 H       1  LIG1        0.1423
     27 H           5.7229    3.5007   -2.2747 H       1  LIG1        0.1423
     28 C           8.4094    1.4649    1.1374 C.ar    1  LIG1        0.0602
     29 C           9.8037    1.4309    1.0956 C.ar    1  LIG1       -0.0342
     30 C           7.6691    1.0874    0.0068 C.ar    1  LIG1        0.0030
     31 C          10.4771    1.0296   -0.0479 C.ar    1  LIG1        0.0053
     32 H          10.3707    1.7543    1.9592 H       1  LIG1        0.0637
     33 C           8.3419    0.6636   -1.1313 C.ar    1  LIG1       -0.0314
     34 C           9.7451    0.6130   -1.1825 C.ar    1  LIG1        0.0330
     35 H           7.7671    0.3550   -1.9965 H       1  LIG1        0.0643
     36 N           7.2537    2.2787    3.3116 N.1     1  LIG1       -0.1908
     37 C           7.7514    1.9210    2.3409 C.1     1  LIG1        0.0998
     38 N          10.3765    0.1270   -2.2924 N.pl3   1  LIG1       -0.3575
     39 H           9.8626    0.0950   -3.1579 H       1  LIG1        0.1423
     40 H          11.3729    0.2569   -2.3772 H       1  LIG1        0.1423
     41 C          12.6405    1.9598   -0.9318 C.ar    1  LIG1        0.0596
     42 C          14.0371    2.0079   -0.9338 C.ar    1  LIG1       -0.0420
     43 C          11.9702    1.0680   -0.0763 C.ar    1  LIG1        0.0030
     44 C          14.7671    1.1880   -0.0932 C.ar    1  LIG1       -0.0398
     45 H          14.5427    2.7020   -1.5915 H       1  LIG1        0.0631
     46 C          12.7074    0.2465    0.7627 C.ar    1  LIG1       -0.0320
     47 C          14.1128    0.2959    0.7743 C.ar    1  LIG1        0.0252
     48 H          12.1858   -0.4490    1.4087 H       1  LIG1        0.0642
     49 H          15.8488    1.2306   -0.1005 H       1  LIG1        0.0636
     50 N          11.2677    3.5251   -2.4804 N.1     1  LIG1       -0.1909
     51 C          11.8807    2.8420   -1.7897 C.1     1  LIG1        0.0998
     52 N          14.8307   -0.5428    1.5854 N.pl3   1  LIG1       -0.3579
     53 H          15.8051   -0.3440    1.7440 H       1  LIG1        0.1423
     54 H          14.3540   -1.0129    2.3377 H       1  LIG1        0.1423
@<TRIPOS>BOND
     1    39    38    1
     2    50    51    3
     3    40    38    1
     4    38    34    1
     5    27    25    1
     6    35    33    1
     7    25    26    1
     8    25    21    1
     9    51    41    1
    10    22    20    1
    11    45    42    1
    12    34    33   ar
    13    34    31   ar
    14    33    30   ar
    15    42    41   ar
    16    42    44   ar
    17    41    43   ar
    18    21    20   ar
    19    21    18   ar
    20    20    17   ar
    21    12    14    1
    22    12    13    1
    23    12     7    1
    24     8     6    1
    25     7     6   ar
    26     7     4   ar
    27     6     3   ar
    28    49    44    1
    29    44    47   ar
    30    43    31    1
    31    43    46   ar
    32    31    29   ar
    33     4    17    1
    34     4     2   ar
    35    17    15   ar
    36    18    30    1
    37    18    16   ar
    38     3     9    1
    39     3     1   ar
    40    30    28   ar
    41     2     1   ar
    42     2     5    1
    43     1    11    1
    44    11    10    3
    45    46    47   ar
    46    46    48    1
    47    47    52    1
    48    16    15   ar
    49    16    19    1
    50    15    24    1
    51    29    28   ar
    52    29    32    1
    53    28    37    1
    54    52    53    1
    55    52    54    1
    56    24    23    3
    57    37    36    3
