@<TRIPOS>MOLECULE
mol_data/opt/m06hf/geoms/mol2/4dh4dh4dh4dh-.out
 54 57 0 0 0
SMALL
GASTEIGER

@<TRIPOS>ATOM
      1 C          -0.1925    2.0427    0.9772 C.ar    1  LIG1        0.0525
      2 C           1.2005    2.0317    0.9270 C.ar    1  LIG1       -0.0348
      3 C          -0.9215    1.2310    0.1025 C.ar    1  LIG1       -0.0426
      4 C           1.8719    1.2248    0.0178 C.ar    1  LIG1        0.0053
      5 H           1.7698    2.6427    1.6156 H       1  LIG1        0.0637
      6 C          -0.2636    0.4353   -0.8144 C.ar    1  LIG1       -0.0392
      7 C           1.1417    0.4204   -0.8847 C.ar    1  LIG1        0.0325
      8 H          -0.8293   -0.1788   -1.5029 H       1  LIG1        0.0636
      9 H          -2.0022    1.2341    0.1460 H       1  LIG1        0.0631
     10 N          -1.4145    3.5569    2.6914 N.1     1  LIG1       -0.1909
     11 C          -0.8744    2.8842    1.9337 C.1     1  LIG1        0.0992
     12 N           1.7737   -0.3194   -1.8468 N.pl3   1  LIG1       -0.3575
     13 H           2.7735   -0.4371   -1.7857 H       1  LIG1        0.1423
     14 H           1.2708   -1.0897   -2.2565 H       1  LIG1        0.1423
     15 C           4.0944    0.0662    0.3322 C.ar    1  LIG1        0.0602
     16 C           5.4889    0.0960    0.3197 C.ar    1  LIG1       -0.0342
     17 C           3.3660    1.2248    0.0028 C.ar    1  LIG1        0.0030
     18 C           6.1771    1.2546   -0.0061 C.ar    1  LIG1        0.0053
     19 H           6.0455   -0.8007    0.5620 H       1  LIG1        0.0637
     20 C           4.0529    2.3850   -0.3124 C.ar    1  LIG1       -0.0314
     21 C           5.4600    2.4338   -0.3140 C.ar    1  LIG1        0.0330
     22 H           3.4897    3.2745   -0.5668 H       1  LIG1        0.0643
     23 N           2.8879   -2.1395    0.9704 N.1     1  LIG1       -0.1908
     24 C           3.4136   -1.1558    0.6962 C.1     1  LIG1        0.0998
     25 N           6.1075    3.6015   -0.5736 N.pl3   1  LIG1       -0.3575
     26 H           7.1090    3.6033   -0.6873 H       1  LIG1        0.1423
     27 H           5.6010    4.3647   -0.9899 H       1  LIG1        0.1423
     28 C           8.3719    1.4125   -1.2364 C.ar    1  LIG1        0.0602
     29 C           9.7663    1.4037   -1.2369 C.ar    1  LIG1       -0.0342
     30 C           7.6709    1.2506   -0.0275 C.ar    1  LIG1        0.0030
     31 C          10.4807    1.2334   -0.0601 C.ar    1  LIG1        0.0053
     32 H          10.3023    1.5406   -2.1678 H       1  LIG1        0.0637
     33 C           8.3827    1.0708    1.1464 C.ar    1  LIG1       -0.0314
     34 C           9.7900    1.0501    1.1590 C.ar    1  LIG1        0.0330
     35 H           7.8401    0.9465    2.0755 H       1  LIG1        0.0643
     36 N           7.0916    1.7108   -3.4728 N.1     1  LIG1       -0.1908
     37 C           7.6552    1.5725   -2.4816 C.1     1  LIG1        0.0998
     38 N          10.4624    0.8166    2.3235 N.pl3   1  LIG1       -0.3575
     39 H          11.4574    0.9792    2.3480 H       1  LIG1        0.1423
     40 H           9.9738    0.9592    3.1929 H       1  LIG1        0.1423
     41 C          12.7047    2.2763    0.5107 C.ar    1  LIG1        0.0596
     42 C          14.1011    2.2750    0.4494 C.ar    1  LIG1       -0.0420
     43 C          11.9750    1.2412   -0.0976 C.ar    1  LIG1        0.0030
     44 C          14.7733    1.2642   -0.2122 C.ar    1  LIG1       -0.0398
     45 H          14.6516    3.0799    0.9174 H       1  LIG1        0.0631
     46 C          12.6548    0.2287   -0.7581 C.ar    1  LIG1       -0.0320
     47 C          14.0587    0.2246   -0.8326 C.ar    1  LIG1        0.0252
     48 H          12.0882   -0.5750   -1.2119 H       1  LIG1        0.0642
     49 H          15.8549    1.2689   -0.2529 H       1  LIG1        0.0636
     50 N          11.4722    4.2009    1.7379 N.1     1  LIG1       -0.1909
     51 C          12.0149    3.3537    1.1844 C.1     1  LIG1        0.0998
     52 N          14.7176   -0.7990   -1.4618 N.pl3   1  LIG1       -0.3579
     53 H          14.1939   -1.4064   -2.0708 H       1  LIG1        0.1423
     54 H          15.6864   -0.6701   -1.7053 H       1  LIG1        0.1423
@<TRIPOS>BOND
     1    36    37    3
     2    37    28    1
     3    14    12    1
     4    32    29    1
     5    53    52    1
     6    12    13    1
     7    12     7    1
     8    54    52    1
     9     8     6    1
    10    52    47    1
    11    29    28   ar
    12    29    31   ar
    13    28    30   ar
    14    48    46    1
    15    27    25    1
    16     7     6   ar
    17     7     4   ar
    18    47    46   ar
    19    47    44   ar
    20     6     3   ar
    21    46    43   ar
    22    26    25    1
    23    25    21    1
    24    22    20    1
    25    21    20   ar
    26    21    18   ar
    27    20    17   ar
    28    49    44    1
    29    44    42   ar
    30    43    31    1
    31    43    41   ar
    32    31    34   ar
    33    30    18    1
    34    30    33   ar
    35    18    16   ar
    36    17     4    1
    37    17    15   ar
    38     4     2   ar
    39     3     9    1
    40     3     1   ar
    41    16    15   ar
    42    16    19    1
    43    15    24    1
    44    42    41   ar
    45    42    45    1
    46    41    51    1
    47    24    23    3
    48     2     1   ar
    49     2     5    1
    50     1    11    1
    51    33    34   ar
    52    33    35    1
    53    34    38    1
    54    51    50    3
    55    11    10    3
    56    38    39    1
    57    38    40    1
