@<TRIPOS>MOLECULE
mol_data/opt/m06hf/geoms/mol2/4di6ae-13hh13li.out
 54 57 0 0 0
SMALL
GASTEIGER

@<TRIPOS>ATOM
      1 C           0.0159    1.8135   -0.2167 C.ar    1  LIG1        0.0524
      2 C           1.3473    1.5130   -0.4996 C.ar    1  LIG1       -0.0363
      3 C          -0.3691    2.1777    1.0729 C.ar    1  LIG1       -0.0441
      4 C           2.3070    1.5715    0.5099 C.ar    1  LIG1       -0.0123
      5 H           1.6381    1.2467   -1.5076 H       1  LIG1        0.0636
      6 C           0.5918    2.2265    2.0737 C.ar    1  LIG1       -0.0570
      7 C           1.9314    1.9244    1.8175 C.ar    1  LIG1       -0.0426
      8 H           0.2960    2.4933    3.0805 H       1  LIG1        0.0621
      9 H          -1.4042    2.4107    1.2817 H       1  LIG1        0.0630
     10 N          -1.7623    1.7008   -2.1063 N.1     1  LIG1       -0.1909
     11 C          -0.9749    1.7508   -1.2733 C.1     1  LIG1        0.0992
     12 C           2.9406    1.9593    2.9516 C.3     1  LIG1       -0.0391
     13 H           2.4255    1.8708    3.9075 H       1  LIG1        0.0278
     14 H           3.4949    2.8999    2.9472 H       1  LIG1        0.0278
     15 H           3.6554    1.1421    2.8541 H       1  LIG1        0.0278
     16 C           4.7513    2.1775    0.3217 C.ar    1  LIG1        0.0361
     17 C           3.7230    1.2366    0.1759 C.ar    1  LIG1        0.0017
     18 C           4.0771    0.0010   -0.3477 C.ar    1  LIG1       -0.0350
     19 C           5.4129   -0.2746   -0.6529 C.ar    1  LIG1        0.0527
     20 C           6.3886    0.6994   -0.3532 C.ar    1  LIG1        0.1043
     21 N           6.0236    1.9201    0.0786 N.ar    1  LIG1       -0.2516
     22 H           3.3225   -0.7512   -0.5426 H       1  LIG1        0.0637
     23 H           4.5154    3.1854    0.6468 H       1  LIG1        0.0836
     24 C           5.7159   -1.4905   -1.3613 C.1     1  LIG1       -0.0675
     25 C           5.9015   -2.4979   -1.9938 C.1     1  LIG1       -0.1138
     26 H           6.0638   -3.3766   -2.5750 H       1  LIG1        0.1232
     27 C           7.8224    0.5043   -0.4981 C.ar    1  LIG1        0.0894
     28 C           8.6802   -0.5838   -0.3362 C.ar    1  LIG1        0.0734
     29 C          10.0073   -0.0830   -0.4465 C.ar    1  LIG1        0.0734
     30 C           9.9191    1.2896   -0.6441 C.ar    1  LIG1        0.0897
     31 N           8.6133    1.6197   -0.6689 N.ar    1  LIG1       -0.3487
     32 H           8.2598    2.5590   -0.8000 H       1  LIG1        0.1661
     33 N           8.4177   -1.8949    0.0316 N.pl3   1  LIG1       -0.3548
     34 H           7.6492   -2.3389   -0.4522 H       1  LIG1        0.1424
     35 H           9.2757   -2.4353    0.0229 H       1  LIG1        0.1424
     36 N          11.1484   -0.9232   -0.3146 N.pl3   1  LIG1       -0.3548
     37 H          11.6673   -1.0586   -1.1747 H       1  LIG1        0.1424
     38 H          11.7610   -0.6713    0.4523 H       1  LIG1        0.1424
     39 C          10.9371    2.3192   -0.7728 C.ar    1  LIG1        0.1072
     40 C          10.7806    3.6890   -0.7564 C.ar    1  LIG1        0.1496
     41 C          12.0543    4.3006   -0.9156 C.ar    1  LIG1        0.0092
     42 C          12.9511    3.2628   -1.0298 C.ar    1  LIG1        0.0087
     43 N          12.2728    2.0803   -0.9400 N.ar    1  LIG1       -0.3563
     44 H          12.6741    1.1611   -1.0092 H       1  LIG1        0.1655
     45 H          14.0178    3.2836   -1.1758 H       1  LIG1        0.0811
     46 O           9.5750    4.3315   -0.6224 O.3     1  LIG1       -0.4927
     47 C           9.2690    4.6694    0.7317 C.3     1  LIG1        0.0789
     48 H           8.3166    5.1943    0.7101 H       1  LIG1        0.0660
     49 H           9.1838    3.7615    1.3323 H       1  LIG1        0.0660
     50 H          10.0478    5.3154    1.1412 H       1  LIG1        0.0660
     51 C          12.3242    5.7839   -0.9541 C.3     1  LIG1       -0.0348
     52 H          13.2319    5.9919   -1.5200 H       1  LIG1        0.0279
     53 H          12.4448    6.1902    0.0520 H       1  LIG1        0.0279
     54 H          11.4865    6.2924   -1.4323 H       1  LIG1        0.0279
@<TRIPOS>BOND
     1    26    25    1
     2    10    11    3
     3    25    24    3
     4    52    51    1
     5     5     2    1
     6    54    51    1
     7    24    19    1
     8    11     1    1
     9    45    42    1
    10    37    36    1
    11    42    43   ar
    12    42    41   ar
    13    44    43    1
    14    51    41    1
    15    51    53    1
    16    43    39   ar
    17    41    40   ar
    18    32    31    1
    19    39    40   ar
    20    39    30    1
    21    40    46    1
    22    31    30   ar
    23    31    27   ar
    24    19    20   ar
    25    19    18   ar
    26    30    29   ar
    27    46    47    1
    28    22    18    1
    29     2     1   ar
    30     2     4   ar
    31    27    20    1
    32    27    28   ar
    33    34    33    1
    34    29    28   ar
    35    29    36    1
    36    20    21   ar
    37    18    17   ar
    38    28    33    1
    39    36    38    1
    40     1     3   ar
    41    35    33    1
    42    21    16   ar
    43    17    16   ar
    44    17     4    1
    45    16    23    1
    46     4     7   ar
    47    48    47    1
    48    47    50    1
    49    47    49    1
    50     3     9    1
    51     3     6   ar
    52     7     6   ar
    53     7    12    1
    54     6     8    1
    55    15    12    1
    56    14    12    1
    57    12    13    1
