@<TRIPOS>MOLECULE
mol_data/opt/m06hf/geoms/mol2/4dl12aa6li-6de.out
 52 55 0 0 0
SMALL
GASTEIGER

@<TRIPOS>ATOM
      1 C           0.7941   -0.5862   -1.4081 C.ar    1  LIG1        0.0527
      2 C           1.8981   -0.2600   -0.6262 C.ar    1  LIG1       -0.0302
      3 C          -0.0962    0.4098   -1.8203 C.ar    1  LIG1       -0.0409
      4 C           2.1191    1.0574   -0.2262 C.ar    1  LIG1        0.0601
      5 H           2.6119   -1.0245   -0.3500 H       1  LIG1        0.0639
      6 C           0.1107    1.7169   -1.4155 C.ar    1  LIG1       -0.0180
      7 C           1.1990    2.0515   -0.6035 C.ar    1  LIG1        0.1308
      8 H          -0.5686    2.5099   -1.6945 H       1  LIG1        0.0655
      9 H          -0.9436    0.1506   -2.4400 H       1  LIG1        0.0631
     10 N           0.4302   -3.0500   -2.1392 N.1     1  LIG1       -0.1909
     11 C           0.5889   -1.9601   -1.8165 C.1     1  LIG1        0.0992
     12 O           1.2979    3.3478   -0.2379 O.3     1  LIG1       -0.4944
     13 C           1.5940    3.6633    1.1298 C.3     1  LIG1        0.0788
     14 H           0.9865    4.5343    1.3690 H       1  LIG1        0.0660
     15 H           1.3157    2.8290    1.7761 H       1  LIG1        0.0660
     16 H           2.6500    3.9032    1.2350 H       1  LIG1        0.0660
     17 C           3.3360    1.3701    0.5448 C.ar    1  LIG1        0.1392
     18 C           3.9049    0.7950    1.6399 C.ar    1  LIG1       -0.0151
     19 C           5.0887    1.5557    1.9133 C.ar    1  LIG1       -0.0151
     20 C           5.1405    2.5268    0.9586 C.ar    1  LIG1        0.1408
     21 O           4.0846    2.4101    0.1270 O.2     1  LIG1       -0.4545
     22 H           3.5108   -0.0391    2.1955 H       1  LIG1        0.0656
     23 H           5.7851    1.4235    2.7239 H       1  LIG1        0.0656
     24 C           5.7094    4.8956    0.3138 C.ar    1  LIG1        0.2260
     25 C           6.1152    3.5965    0.7036 C.ar    1  LIG1        0.0790
     26 C           7.4699    3.3949    0.8805 C.ar    1  LIG1       -0.0410
     27 C           8.4009    4.4260    0.6785 C.ar    1  LIG1       -0.0235
     28 C           7.8755    5.6436    0.2584 C.ar    1  LIG1        0.0805
     29 N           6.5648    5.8636    0.0854 N.ar    1  LIG1       -0.2120
     30 H           7.8177    2.4126    1.1802 H       1  LIG1        0.0630
     31 O           4.4024    5.1309    0.1907 O.3     1  LIG1       -0.4792
     32 C           4.0103    6.4624   -0.1544 C.3     1  LIG1        0.0804
     33 H           2.9249    6.4302   -0.1937 H       1  LIG1        0.0660
     34 H           4.3638    7.1630    0.6014 H       1  LIG1        0.0660
     35 H           4.4248    6.7300   -1.1251 H       1  LIG1        0.0660
     36 C           9.8758    4.1764    0.9389 C.3     1  LIG1       -0.0377
     37 H          10.3847    5.0969    1.2223 H       1  LIG1        0.0278
     38 H          10.3660    3.7616    0.0556 H       1  LIG1        0.0278
     39 H           9.9814    3.4585    1.7520 H       1  LIG1        0.0278
     40 C           8.4314    8.0927    0.5014 C.ar    1  LIG1        0.1492
     41 C           8.7351    6.8318   -0.0277 C.ar    1  LIG1        0.0377
     42 C           9.8438    6.7540   -0.8655 C.ar    1  LIG1       -0.0329
     43 C          10.5914    7.9014   -1.1256 C.ar    1  LIG1        0.0435
     44 C          10.1930    9.1044   -0.5291 C.ar    1  LIG1        0.0444
     45 N           9.1367    9.1952    0.2646 N.ar    1  LIG1       -0.2428
     46 H          10.1145    5.8156   -1.3312 H       1  LIG1        0.0638
     47 H          10.7527   10.0126   -0.7106 H       1  LIG1        0.0842
     48 N           6.4092    8.4334    2.1116 N.1     1  LIG1       -0.1893
     49 C           7.2897    8.2681    1.3958 C.1     1  LIG1        0.1198
     50 C          11.7423    7.8633   -1.9905 C.1     1  LIG1       -0.0681
     51 C          12.7029    7.8331   -2.7105 C.1     1  LIG1       -0.1139
     52 H          13.5549    7.8075   -3.3505 H       1  LIG1        0.1232
@<TRIPOS>BOND
     1    52    51    1
     2    51    50    3
     3     9     3    1
     4    10    11    3
     5    50    43    1
     6     3     6   ar
     7     3     1   ar
     8    11     1    1
     9     8     6    1
    10     6     7   ar
    11     1     2   ar
    12    46    42    1
    13    43    42   ar
    14    43    44   ar
    15    35    32    1
    16    42    41   ar
    17    47    44    1
    18     2     5    1
    19     2     4   ar
    20     7    12    1
    21     7     4   ar
    22    44    45   ar
    23    12    13    1
    24     4    17    1
    25    33    32    1
    26    32    31    1
    27    32    34    1
    28    41    28    1
    29    41    40   ar
    30    38    36    1
    31    29    28   ar
    32    29    24   ar
    33    21    17   ar
    34    21    20   ar
    35    31    24    1
    36    28    27   ar
    37    45    40   ar
    38    24    25   ar
    39    40    49    1
    40    17    18   ar
    41    27    26   ar
    42    27    36    1
    43    25    26   ar
    44    25    20    1
    45    26    30    1
    46    36    37    1
    47    36    39    1
    48    20    19   ar
    49    13    16    1
    50    13    14    1
    51    13    15    1
    52    49    48    3
    53    18    19   ar
    54    18    22    1
    55    19    23    1
