@<TRIPOS>MOLECULE
mol_data/opt/m06hf/geoms/mol2/4ea.out
 14 14 0 0 0
SMALL
GASTEIGER

@<TRIPOS>ATOM
      1 C           0.1177    0.0755    0.0003 C.ar    1  LIG1        0.0247
      2 C           1.5160    0.0651   -0.0000 C.ar    1  LIG1       -0.0463
      3 C          -0.5722    1.2917    0.0002 C.ar    1  LIG1       -0.0463
      4 C           2.2167    1.2659   -0.0004 C.ar    1  LIG1       -0.0606
      5 H           2.0377   -0.8821    0.0000 H       1  LIG1        0.0630
      6 C           0.1354    2.4884   -0.0002 C.ar    1  LIG1       -0.0606
      7 C           1.5285    2.4772   -0.0005 C.ar    1  LIG1       -0.0617
      8 H          -0.4002    3.4284   -0.0002 H       1  LIG1        0.0618
      9 H           3.2985    1.2557   -0.0007 H       1  LIG1        0.0618
     10 H          -1.6535    1.2862    0.0005 H       1  LIG1        0.0630
     11 C          -0.6146   -1.1712    0.0007 C.1     1  LIG1       -0.0697
     12 C          -1.2232   -2.2073    0.0010 C.1     1  LIG1       -0.1139
     13 H          -1.7623   -3.1262    0.0013 H       1  LIG1        0.1232
     14 H           2.0767    3.4103   -0.0008 H       1  LIG1        0.0618
@<TRIPOS>BOND
     1    14     7    1
     2     9     4    1
     3     7     4   ar
     4     7     6   ar
     5     4     2   ar
     6     8     6    1
     7     6     3   ar
     8     2     5    1
     9     2     1   ar
    10     3     1   ar
    11     3    10    1
    12     1    11    1
    13    11    12    3
    14    12    13    1
