@<TRIPOS>MOLECULE
mol_data/opt/m06hf/geoms/mol2/4ea13ff12ih-12lh-.out
 49 52 0 0 0
SMALL
GASTEIGER

@<TRIPOS>ATOM
      1 C          -0.0842   -0.1273    0.6595 C.ar    1  LIG1        0.0253
      2 C           1.2903   -0.1252    0.4181 C.ar    1  LIG1       -0.0371
      3 C          -0.8260    1.0525    0.5386 C.ar    1  LIG1       -0.0463
      4 C           1.9316    1.0593    0.0455 C.ar    1  LIG1        0.0032
      5 H           1.8592   -1.0398    0.5163 H       1  LIG1        0.0636
      6 C          -0.1864    2.2269    0.1623 C.ar    1  LIG1       -0.0600
      7 C           1.1817    2.2322   -0.0911 C.ar    1  LIG1       -0.0524
      8 H          -0.7559    3.1401    0.0524 H       1  LIG1        0.0618
      9 H          -1.8894    1.0338    0.7335 H       1  LIG1        0.0630
     10 C          -0.7418   -1.3555    1.0482 C.1     1  LIG1       -0.0696
     11 C          -1.2866   -2.3762    1.3734 C.1     1  LIG1       -0.1139
     12 H          -1.7650   -3.2832    1.6616 H       1  LIG1        0.1232
     13 H           1.6586    3.1456   -0.4251 H       1  LIG1        0.0624
     14 C           3.3795    1.0512   -0.2009 C.ar    1  LIG1        0.0928
     15 C           4.2087    0.0169   -0.5894 C.ar    1  LIG1        0.1849
     16 C           5.5142    0.5370   -0.7241 C.ar    1  LIG1        0.1879
     17 C           5.4678    1.8767   -0.3938 C.ar    1  LIG1        0.1286
     18 N           4.1682    2.1685   -0.0991 N.ar    1  LIG1       -0.3459
     19 H           3.8666    3.0695    0.2370 H       1  LIG1        0.1662
     20 O           3.8426   -1.2700   -0.8355 O.3     1  LIG1       -0.5019
     21 H           4.6156   -1.7359   -1.1787 H       1  LIG1        0.2924
     22 O           6.5762   -0.2283   -1.1389 O.3     1  LIG1       -0.5018
     23 H           7.0709    0.2537   -1.8130 H       1  LIG1        0.2924
     24 C           6.5131    2.8852   -0.3555 C.ar    1  LIG1        0.1603
     25 C           7.8509    2.8206   -0.1062 C.ar    1  LIG1        0.0183
     26 C           8.3263    4.1792   -0.2200 C.ar    1  LIG1        0.0778
     27 C           7.2316    4.9461   -0.5010 C.ar    1  LIG1        0.1951
     28 O           6.1222    4.1599   -0.5803 O.2     1  LIG1       -0.4478
     29 C           8.6910    1.6390    0.2997 C.3     1  LIG1       -0.0343
     30 H           9.3008    1.9195    1.1601 H       1  LIG1        0.0279
     31 H           9.3615    1.3323   -0.5078 H       1  LIG1        0.0279
     32 H           8.0568    0.7936    0.5612 H       1  LIG1        0.0279
     33 N           9.6421    4.5708    0.0164 N.pl3   1  LIG1       -0.3547
     34 H          10.3258    3.9641   -0.4172 H       1  LIG1        0.1424
     35 H           9.8169    5.5537   -0.1664 H       1  LIG1        0.1424
     36 C           7.0676    6.3740   -0.6887 C.ar    1  LIG1        0.2147
     37 C           7.8745    7.4282   -0.3833 C.ar    1  LIG1        0.1895
     38 C           7.1901    8.6213   -0.8052 C.ar    1  LIG1        0.1059
     39 C           6.0180    8.1904   -1.3343 C.ar    1  LIG1        0.1171
     40 O           5.9418    6.8311   -1.2674 O.2     1  LIG1       -0.4541
     41 H           5.1766    8.6987   -1.7673 H       1  LIG1        0.1050
     42 O           9.1017    7.4144    0.2201 O.3     1  LIG1       -0.4896
     43 C           9.0109    7.4493    1.6522 C.3     1  LIG1        0.0791
     44 H          10.0331    7.4719    2.0218 H       1  LIG1        0.0660
     45 H           8.4695    8.3452    1.9587 H       1  LIG1        0.0660
     46 H           8.5007    6.5526    2.0055 H       1  LIG1        0.0660
     47 N           7.6979    9.9073   -0.5835 N.pl3   1  LIG1       -0.3527
     48 H           8.7102    9.9138   -0.6353 H       1  LIG1        0.1425
     49 H           7.3023   10.6116   -1.1924 H       1  LIG1        0.1425
@<TRIPOS>BOND
     1    23    22    1
     2    41    39    1
     3    39    40   ar
     4    39    38   ar
     5    40    36   ar
     6    49    47    1
     7    21    20    1
     8    22    16    1
     9    20    15    1
    10    38    47    1
    11    38    37   ar
    12    16    15   ar
    13    16    17   ar
    14    36    27    1
    15    36    37   ar
    16    48    47    1
    17    15    14   ar
    18    28    27   ar
    19    28    24   ar
    20    31    29    1
    21    27    26   ar
    22    13     7    1
    23    34    33    1
    24    17    24    1
    25    17    18   ar
    26    37    42    1
    27    24    25   ar
    28    26    25   ar
    29    26    33    1
    30    14    18   ar
    31    14     4    1
    32    35    33    1
    33    25    29    1
    34    18    19    1
    35     7     4   ar
    36     7     6   ar
    37     4     2   ar
    38     8     6    1
    39     6     3   ar
    40    42    43    1
    41    29    32    1
    42    29    30    1
    43     2     5    1
    44     2     1   ar
    45     3     1   ar
    46     3     9    1
    47     1    10    1
    48    10    11    3
    49    11    12    1
    50    43    45    1
    51    43    46    1
    52    43    44    1
