@<TRIPOS>MOLECULE
mol_data/opt/m06hf/geoms/mol2/4ea13li6fl13lf-.out
 56 59 0 0 0
SMALL
GASTEIGER

@<TRIPOS>ATOM
      1 C          -0.3322    0.0405   -0.9569 C.ar    1  LIG1        0.0253
      2 C           1.0394    0.0025   -0.7041 C.ar    1  LIG1       -0.0371
      3 C          -1.0531    1.2251   -0.7665 C.ar    1  LIG1       -0.0463
      4 C           1.6962    1.1480   -0.2456 C.ar    1  LIG1        0.0031
      5 H           1.5995   -0.9107   -0.8602 H       1  LIG1        0.0636
      6 C          -0.3965    2.3623   -0.3130 C.ar    1  LIG1       -0.0600
      7 C           0.9686    2.3258   -0.0454 C.ar    1  LIG1       -0.0524
      8 H          -0.9506    3.2779   -0.1543 H       1  LIG1        0.0618
      9 H          -2.1144    1.2378   -0.9713 H       1  LIG1        0.0630
     10 C          -1.0105   -1.1474   -1.4258 C.1     1  LIG1       -0.0696
     11 C          -1.5801   -2.1312   -1.8145 C.1     1  LIG1       -0.1139
     12 H          -2.0848   -3.0028   -2.1612 H       1  LIG1        0.1232
     13 H           1.4626    3.2075    0.3448 H       1  LIG1        0.0624
     14 C           3.1404    1.0906    0.0277 C.ar    1  LIG1        0.0895
     15 C           3.9424    0.0281    0.3940 C.ar    1  LIG1        0.1487
     16 C           5.2784    0.4862    0.5573 C.ar    1  LIG1        0.0173
     17 C           5.2547    1.8366    0.2674 C.ar    1  LIG1        0.0587
     18 N           3.9567    2.1899   -0.0240 N.ar    1  LIG1       -0.3509
     19 H           3.7036    3.0704   -0.4502 H       1  LIG1        0.1660
     20 O           3.5345   -1.2592    0.6057 O.3     1  LIG1       -0.4927
     21 C           2.8741   -1.4486    1.8579 C.3     1  LIG1        0.0789
     22 H           2.6516   -2.5105    1.9297 H       1  LIG1        0.0660
     23 H           3.5298   -1.1433    2.6761 H       1  LIG1        0.0660
     24 H           1.9498   -0.8685    1.8895 H       1  LIG1        0.0660
     25 C           6.4443   -0.3680    0.9863 C.3     1  LIG1       -0.0342
     26 H           7.1747    0.2282    1.5340 H       1  LIG1        0.0279
     27 H           6.9344   -0.8235    0.1231 H       1  LIG1        0.0279
     28 H           6.0863   -1.1738    1.6269 H       1  LIG1        0.0279
     29 C           6.1684    4.1358    0.6831 C.ar    1  LIG1        0.2225
     30 C           6.3458    2.8231    0.2228 C.ar    1  LIG1        0.0635
     31 C           7.5997    2.4966   -0.2962 C.ar    1  LIG1       -0.0035
     32 C           8.6120    3.4479   -0.3324 C.ar    1  LIG1        0.1484
     33 C           8.3356    4.7253    0.1861 C.ar    1  LIG1        0.1361
     34 N           7.1246    5.0375    0.6540 N.ar    1  LIG1       -0.2072
     35 H           7.7475    1.5072   -0.7067 H       1  LIG1        0.0663
     36 O           4.9736    4.5581    1.1819 O.3     1  LIG1       -0.4919
     37 H           4.4878    3.7961    1.5252 H       1  LIG1        0.2937
     38 O           9.8274    3.2417   -0.8852 O.3     1  LIG1       -0.4929
     39 C          10.1971    1.9126   -1.1953 C.3     1  LIG1        0.0789
     40 H          11.2403    1.9590   -1.4958 H       1  LIG1        0.0660
     41 H          10.0916    1.2705   -0.3171 H       1  LIG1        0.0660
     42 H           9.5942    1.5224   -2.0199 H       1  LIG1        0.0660
     43 C           9.3086    5.8273    0.2119 C.ar    1  LIG1        0.1146
     44 C          10.6915    5.9303    0.2413 C.ar    1  LIG1        0.1883
     45 C          11.0003    7.3147    0.3216 C.ar    1  LIG1        0.1769
     46 C           9.8132    8.0099    0.3628 C.ar    1  LIG1        0.0480
     47 N           8.8083    7.0937    0.3051 N.ar    1  LIG1       -0.3533
     48 H           7.8166    7.2520    0.4095 H       1  LIG1        0.1656
     49 H           9.6220    9.0667    0.4315 H       1  LIG1        0.0845
     50 O          11.6148    4.9340    0.2727 O.3     1  LIG1       -0.4895
     51 C          12.3932    4.8559   -0.9174 C.3     1  LIG1        0.0791
     52 H          13.1124    4.0540   -0.7594 H       1  LIG1        0.0660
     53 H          11.7439    4.6239   -1.7641 H       1  LIG1        0.0660
     54 H          12.9185    5.7976   -1.0854 H       1  LIG1        0.0660
     55 O          12.2870    7.7786    0.3424 O.3     1  LIG1       -0.5023
     56 H          12.2947    8.7181    0.5507 H       1  LIG1        0.2923
@<TRIPOS>BOND
     1    12    11    1
     2    42    39    1
     3    11    10    3
     4    53    51    1
     5    40    39    1
     6    10     1    1
     7    39    38    1
     8    39    41    1
     9    54    51    1
    10     9     3    1
    11     1     3   ar
    12     1     2   ar
    13    51    52    1
    14    51    50    1
    15    38    32    1
    16     5     2    1
    17     3     6   ar
    18    35    31    1
    19     2     4   ar
    20    19    18    1
    21    32    31   ar
    22    32    33   ar
    23     6     8    1
    24     6     7   ar
    25    31    30   ar
    26     4     7   ar
    27     4    14    1
    28     7    13    1
    29    18    14   ar
    30    18    17   ar
    31    14    15   ar
    32    27    25    1
    33    33    43    1
    34    33    34   ar
    35    43    44   ar
    36    43    47   ar
    37    30    17    1
    38    30    29   ar
    39    44    50    1
    40    44    45   ar
    41    17    16   ar
    42    47    46   ar
    43    47    48    1
    44    45    55    1
    45    45    46   ar
    46    55    56    1
    47    46    49    1
    48    15    16   ar
    49    15    20    1
    50    16    25    1
    51    20    21    1
    52    34    29   ar
    53    29    36    1
    54    25    26    1
    55    25    28    1
    56    36    37    1
    57    21    24    1
    58    21    22    1
    59    21    23    1
