@<TRIPOS>MOLECULE
mol_data/opt/m06hf/geoms/mol2/4ea13dd-6aa-13fh-.out
 44 47 0 0 0
SMALL
GASTEIGER

@<TRIPOS>ATOM
      1 C          -0.0759    0.0632   -0.5446 C.ar    1  LIG1        0.0253
      2 C           1.3078    0.0101   -0.3632 C.ar    1  LIG1       -0.0372
      3 C          -0.7852    1.2213   -0.2108 C.ar    1  LIG1       -0.0463
      4 C           1.9775    1.1152    0.1614 C.ar    1  LIG1        0.0008
      5 H           1.8484   -0.8860   -0.6373 H       1  LIG1        0.0636
      6 C          -0.1125    2.3186    0.3136 C.ar    1  LIG1       -0.0600
      7 C           1.2636    2.2666    0.5069 C.ar    1  LIG1       -0.0525
      8 H          -0.6612    3.2099    0.5859 H       1  LIG1        0.0618
      9 H          -1.8557    1.2461   -0.3612 H       1  LIG1        0.0630
     10 C          -0.7727   -1.0788   -1.0899 C.1     1  LIG1       -0.0696
     11 C          -1.3517   -2.0290   -1.5418 C.1     1  LIG1       -0.1139
     12 H          -1.8615   -2.8766   -1.9378 H       1  LIG1        0.1232
     13 H           1.7784    3.1081    0.9546 H       1  LIG1        0.0624
     14 C           3.4405    1.0737    0.3493 C.ar    1  LIG1        0.0658
     15 C           4.2805    0.0519    0.7427 C.ar    1  LIG1        0.0949
     16 C           5.6118    0.5729    0.7578 C.ar    1  LIG1        0.0949
     17 C           5.5440    1.8968    0.3717 C.ar    1  LIG1        0.0672
     18 N           4.2277    2.1681    0.1380 N.ar    1  LIG1       -0.3521
     19 H           3.8969    3.0273   -0.2783 H       1  LIG1        0.1660
     20 N           3.5553   -2.3418    1.3754 N.1     1  LIG1       -0.1908
     21 C           3.8808   -1.2756    1.1029 C.1     1  LIG1        0.1026
     22 N           7.7698   -0.6761    1.4226 N.1     1  LIG1       -0.1908
     23 C           6.8040   -0.1259    1.1356 C.1     1  LIG1        0.1026
     24 C           6.3582    4.2375    0.5736 C.ar    1  LIG1        0.0374
     25 C           6.5964    2.9115    0.2113 C.ar    1  LIG1        0.0177
     26 C           7.8616    2.5879   -0.2962 C.ar    1  LIG1       -0.0491
     27 C           8.8085    3.5852   -0.4282 C.ar    1  LIG1       -0.0335
     28 C           8.4592    4.8927   -0.0539 C.ar    1  LIG1        0.0907
     29 N           7.2552    5.2050    0.4388 N.ar    1  LIG1       -0.2527
     30 H           8.0887    1.5688   -0.5819 H       1  LIG1        0.0625
     31 H           5.4073    4.5243    1.0117 H       1  LIG1        0.0836
     32 H           9.7998    3.3899   -0.8141 H       1  LIG1        0.0640
     33 C           9.4022    5.9938   -0.1745 C.ar    1  LIG1        0.1088
     34 C          10.6984    6.0696   -0.6403 C.ar    1  LIG1        0.1643
     35 C          11.1349    7.4102   -0.5117 C.ar    1  LIG1        0.0849
     36 C          10.0812    8.1226    0.0340 C.ar    1  LIG1        0.0267
     37 N           9.0568    7.2619    0.2270 N.ar    1  LIG1       -0.3549
     38 H           8.1440    7.4559    0.6114 H       1  LIG1        0.1655
     39 H          10.0026    9.1658    0.2886 H       1  LIG1        0.0827
     40 O          11.4637    5.0743   -1.1442 O.3     1  LIG1       -0.5031
     41 H          12.3127    5.4888   -1.3690 H       1  LIG1        0.2923
     42 N          12.4516    7.7732   -0.9198 N.pl3   1  LIG1       -0.3540
     43 H          12.4533    8.4681   -1.6586 H       1  LIG1        0.1425
     44 H          13.0186    8.1068   -0.1479 H       1  LIG1        0.1425
@<TRIPOS>BOND
     1    12    11    1
     2    43    42    1
     3    11    10    3
     4    41    40    1
     5    40    34    1
     6    10     1    1
     7    42    35    1
     8    42    44    1
     9    32    27    1
    10    34    35   ar
    11    34    33   ar
    12     5     2    1
    13    30    26    1
    14     1     2   ar
    15     1     3   ar
    16    35    36   ar
    17    27    26   ar
    18    27    28   ar
    19     2     4   ar
    20     9     3    1
    21    26    25   ar
    22    19    18    1
    23     3     6   ar
    24    33    28    1
    25    33    37   ar
    26    28    29   ar
    27    36    37   ar
    28    36    39    1
    29    18    14   ar
    30    18    17   ar
    31     4    14    1
    32     4     7   ar
    33    25    17    1
    34    25    24   ar
    35    37    38    1
    36     6     7   ar
    37     6     8    1
    38    14    15   ar
    39    17    16   ar
    40    29    24   ar
    41     7    13    1
    42    24    31    1
    43    15    16   ar
    44    15    21    1
    45    16    23    1
    46    21    20    3
    47    23    22    3
