@<TRIPOS>MOLECULE
mol_data/opt/m06hf/geoms/mol2/4ea4ed-13ai-13de.out
 49 52 0 0 0
SMALL
GASTEIGER

@<TRIPOS>ATOM
      1 C          -0.1447    0.3181   -0.8122 C.ar    1  LIG1        0.0253
      2 C           1.2497    0.2969   -0.7497 C.ar    1  LIG1       -0.0386
      3 C          -0.8775    1.0617    0.1191 C.ar    1  LIG1       -0.0463
      4 C           1.9144    1.0200    0.2402 C.ar    1  LIG1       -0.0155
      5 H           1.8081   -0.2768   -1.4773 H       1  LIG1        0.0636
      6 C          -0.2130    1.7795    1.1054 C.ar    1  LIG1       -0.0600
      7 C           1.1777    1.7606    1.1674 C.ar    1  LIG1       -0.0539
      8 H          -0.7772    2.3502    1.8308 H       1  LIG1        0.0618
      9 H          -1.9571    1.0683    0.0580 H       1  LIG1        0.0630
     10 C          -0.8302   -0.4258   -1.8444 C.1     1  LIG1       -0.0696
     11 C          -1.4010   -1.0438   -2.7020 C.1     1  LIG1       -0.1139
     12 H          -1.9051   -1.5906   -3.4647 H       1  LIG1        0.1232
     13 H           1.6960    2.3056    1.9467 H       1  LIG1        0.0624
     14 C           4.1757   -0.1427    0.3133 C.ar    1  LIG1        0.0331
     15 C           5.5689   -0.0814    0.3518 C.ar    1  LIG1       -0.0354
     16 C           3.4055    1.0365    0.2950 C.ar    1  LIG1       -0.0012
     17 C           6.2462    1.1373    0.3943 C.ar    1  LIG1        0.0168
     18 H           6.1364   -1.0016    0.3339 H       1  LIG1        0.0637
     19 C           4.0748    2.2554    0.3300 C.ar    1  LIG1       -0.0348
     20 C           5.4674    2.3078    0.3883 C.ar    1  LIG1        0.0615
     21 H           3.5086    3.1776    0.3027 H       1  LIG1        0.0637
     22 C           3.5498   -1.4441    0.3018 C.1     1  LIG1       -0.0690
     23 C           3.0548   -2.5388    0.2964 C.1     1  LIG1       -0.1139
     24 H           2.6047   -3.5052    0.2916 H       1  LIG1        0.1232
     25 N           6.6341    4.6289    0.4681 N.1     1  LIG1       -0.1908
     26 C           6.1013    3.6112    0.4460 C.1     1  LIG1        0.0998
     27 C           7.7148    1.1470    0.4711 C.ar    1  LIG1        0.0485
     28 C           8.5771    0.2446    1.0679 C.ar    1  LIG1       -0.0328
     29 C           9.9023    0.7308    0.9175 C.ar    1  LIG1       -0.0231
     30 C           9.7955    1.9201    0.2178 C.ar    1  LIG1        0.0676
     31 N           8.4761    2.1550   -0.0426 N.ar    1  LIG1       -0.3527
     32 H           8.1354    2.9095   -0.6198 H       1  LIG1        0.1660
     33 H           8.2850   -0.6427    1.6071 H       1  LIG1        0.0641
     34 C          11.1661    0.1096    1.4591 C.3     1  LIG1       -0.0376
     35 H          11.9077    0.8818    1.6669 H       1  LIG1        0.0278
     36 H          11.5970   -0.5864    0.7383 H       1  LIG1        0.0278
     37 H          10.9459   -0.4244    2.3832 H       1  LIG1        0.0278
     38 C          10.7878    2.9224   -0.1572 C.ar    1  LIG1        0.0819
     39 C          12.0555    2.8102   -0.6917 C.ar    1  LIG1        0.0937
     40 C          12.5762    4.1346   -0.8637 C.ar    1  LIG1        0.0600
     41 C          11.5957    4.9974   -0.4337 C.ar    1  LIG1        0.0190
     42 N          10.5325    4.2560   -0.0144 N.ar    1  LIG1       -0.3573
     43 H           9.6884    4.6237    0.4051 H       1  LIG1        0.1655
     44 H          11.5944    6.0722   -0.3968 H       1  LIG1        0.0820
     45 N          13.2003    0.5874   -1.3289 N.1     1  LIG1       -0.1908
     46 C          12.6958    1.5806   -1.0499 C.1     1  LIG1        0.1026
     47 C          13.8585    4.4849   -1.3949 C.1     1  LIG1       -0.0669
     48 C          14.9372    4.7624   -1.8434 C.1     1  LIG1       -0.1138
     49 H          15.8945    5.0006   -2.2452 H       1  LIG1        0.1232
@<TRIPOS>BOND
     1    12    11    1
     2    11    10    3
     3    49    48    1
     4    10     1    1
     5    48    47    3
     6     5     2    1
     7    47    40    1
     8    45    46    3
     9    46    39    1
    10    40    39   ar
    11    40    41   ar
    12     1     2   ar
    13     1     3   ar
    14     2     4   ar
    15    39    38   ar
    16    32    31    1
    17    41    44    1
    18    41    42   ar
    19    38    42   ar
    20    38    30    1
    21    31    30   ar
    22    31    27   ar
    23    42    43    1
    24     9     3    1
    25     3     6   ar
    26    30    29   ar
    27     4    16    1
    28     4     7   ar
    29    24    23    1
    30    16    14   ar
    31    16    19   ar
    32    23    22    3
    33    22    14    1
    34    21    19    1
    35    14    15   ar
    36    19    20   ar
    37    18    15    1
    38    15    17   ar
    39    20    17   ar
    40    20    26    1
    41    17    27    1
    42    26    25    3
    43    27    28   ar
    44    36    34    1
    45    29    28   ar
    46    29    34    1
    47    28    33    1
    48     6     7   ar
    49     6     8    1
    50     7    13    1
    51    34    35    1
    52    34    37    1
