@<TRIPOS>MOLECULE
mol_data/opt/m06hf/geoms/mol2/4ea4ea-4ea4ea.out
 50 53 0 0 0
SMALL
GASTEIGER

@<TRIPOS>ATOM
      1 C          -0.2640    0.2060    0.0394 C.ar    1  LIG1        0.0253
      2 C           1.1285    0.1842    0.1560 C.ar    1  LIG1       -0.0386
      3 C          -0.8960    1.2914   -0.5736 C.ar    1  LIG1       -0.0463
      4 C           1.8932    1.2407   -0.3356 C.ar    1  LIG1       -0.0156
      5 H           1.6079   -0.6533    0.6464 H       1  LIG1        0.0636
      6 C          -0.1324    2.3445   -1.0641 C.ar    1  LIG1       -0.0600
      7 C           1.2537    2.3235   -0.9467 C.ar    1  LIG1       -0.0539
      8 H          -0.6182    3.1837   -1.5443 H       1  LIG1        0.0618
      9 H          -1.9741    1.2968   -0.6604 H       1  LIG1        0.0630
     10 C          -1.0466   -0.8940    0.5570 C.1     1  LIG1       -0.0696
     11 C          -1.6951   -1.8097    0.9868 C.1     1  LIG1       -0.1139
     12 H          -2.2673   -2.6225    1.3691 H       1  LIG1        0.1232
     13 H           1.8463    3.1414   -1.3351 H       1  LIG1        0.0624
     14 C           4.1399    2.2403    0.2906 C.ar    1  LIG1        0.0329
     15 C           5.5326    2.1368    0.3629 C.ar    1  LIG1       -0.0380
     16 C           3.3817    1.1814   -0.2349 C.ar    1  LIG1       -0.0024
     17 C           6.1909    0.9916   -0.0783 C.ar    1  LIG1       -0.0155
     18 H           6.0952    2.9558    0.7920 H       1  LIG1        0.0636
     19 C           4.0532    0.0369   -0.6722 C.ar    1  LIG1       -0.0523
     20 C           5.4361   -0.0639   -0.5968 C.ar    1  LIG1       -0.0533
     21 H           3.4765   -0.7736   -1.0997 H       1  LIG1        0.0624
     22 C           3.5169    3.4427    0.7983 C.1     1  LIG1       -0.0690
     23 C           3.0333    4.4538    1.2321 C.1     1  LIG1       -0.1139
     24 H           2.5959    5.3441    1.6198 H       1  LIG1        0.1232
     25 H           5.9353   -0.9546   -0.9547 H       1  LIG1        0.0624
     26 C           8.3666   -0.1708    0.5210 C.ar    1  LIG1        0.0329
     27 C           9.7632   -0.1928    0.5380 C.ar    1  LIG1       -0.0380
     28 C           7.6810    0.9279   -0.0271 C.ar    1  LIG1       -0.0024
     29 C          10.4997    0.8711    0.0211 C.ar    1  LIG1       -0.0155
     30 H          10.2688   -1.0454    0.9713 H       1  LIG1        0.0636
     31 C           8.4295    1.9889   -0.5378 C.ar    1  LIG1       -0.0523
     32 C           9.8190    1.9665   -0.5137 C.ar    1  LIG1       -0.0533
     33 H           7.9105    2.8285   -0.9831 H       1  LIG1        0.0624
     34 C           7.6608   -1.2853    1.1143 C.1     1  LIG1       -0.0690
     35 C           7.1092   -2.2252    1.6214 C.1     1  LIG1       -0.1139
     36 H           6.6152   -3.0527    2.0751 H       1  LIG1        0.1232
     37 H          10.3813    2.7896   -0.9369 H       1  LIG1        0.0624
     38 C          12.7449   -0.2195   -0.4222 C.ar    1  LIG1        0.0324
     39 C          14.1426   -0.1783   -0.3742 C.ar    1  LIG1       -0.0457
     40 C          11.9919    0.8644    0.0609 C.ar    1  LIG1       -0.0025
     41 C          14.7980    0.9296    0.1468 C.ar    1  LIG1       -0.0606
     42 H          14.6995   -1.0225   -0.7571 H       1  LIG1        0.0630
     43 C          12.6683    1.9697    0.5814 C.ar    1  LIG1       -0.0529
     44 C          14.0577    2.0074    0.6259 C.ar    1  LIG1       -0.0611
     45 H          12.0894    2.7974    0.9717 H       1  LIG1        0.0624
     46 H          15.8793    0.9512    0.1800 H       1  LIG1        0.0618
     47 C          12.1109   -1.3826   -1.0023 C.1     1  LIG1       -0.0691
     48 C          11.6172   -2.3623   -1.4935 C.1     1  LIG1       -0.1139
     49 H          11.1677   -3.2247   -1.9282 H       1  LIG1        0.1232
     50 H          14.5591    2.8723    1.0393 H       1  LIG1        0.0618
@<TRIPOS>BOND
     1    49    48    1
     2     8     6    1
     3    48    47    3
     4    13     7    1
     5    21    19    1
     6     6     7   ar
     7     6     3   ar
     8    47    38    1
     9    33    31    1
    10    25    20    1
    11     7     4   ar
    12    37    32    1
    13    42    39    1
    14    19    20   ar
    15    19    16   ar
    16     9     3    1
    17    20    17   ar
    18     3     1   ar
    19    31    32   ar
    20    31    28   ar
    21    32    29   ar
    22    38    39   ar
    23    38    40   ar
    24    39    41   ar
    25     4    16    1
    26     4     2   ar
    27    16    14   ar
    28    17    28    1
    29    17    15   ar
    30    28    26   ar
    31    29    40    1
    32    29    27   ar
    33     1     2   ar
    34     1    10    1
    35    40    43   ar
    36    41    46    1
    37    41    44   ar
    38     2     5    1
    39    14    15   ar
    40    14    22    1
    41    15    18    1
    42    26    27   ar
    43    26    34    1
    44    27    30    1
    45    10    11    3
    46    43    44   ar
    47    43    45    1
    48    44    50    1
    49    22    23    3
    50    11    12    1
    51    34    35    3
    52    23    24    1
    53    35    36    1
