@<TRIPOS>MOLECULE
mol_data/opt/m06hf/geoms/mol2/4ea4ea4ea.out
 38 40 0 0 0
SMALL
GASTEIGER

@<TRIPOS>ATOM
      1 C          -0.2137    0.3913    0.4327 C.ar    1  LIG1        0.0253
      2 C           1.1732    0.3329    0.5831 C.ar    1  LIG1       -0.0386
      3 C          -0.7767    1.1108   -0.6267 C.ar    1  LIG1       -0.0463
      4 C           2.0039    0.9917   -0.3235 C.ar    1  LIG1       -0.0156
      5 H           1.5974   -0.2215    1.4092 H       1  LIG1        0.0636
      6 C           0.0513    1.7656   -1.5295 C.ar    1  LIG1       -0.0600
      7 C           1.4343    1.7083   -1.3789 C.ar    1  LIG1       -0.0539
      8 H          -0.3792    2.3173   -2.3545 H       1  LIG1        0.0618
      9 H          -1.8526    1.1468   -0.7307 H       1  LIG1        0.0630
     10 C          -1.0686   -0.2886    1.3801 C.1     1  LIG1       -0.0696
     11 C          -1.7794   -0.8522    2.1684 C.1     1  LIG1       -0.1139
     12 H          -2.4074   -1.3509    2.8697 H       1  LIG1        0.1232
     13 H           2.0811    2.2037   -2.0923 H       1  LIG1        0.0624
     14 C           4.2055   -0.2287    0.0072 C.ar    1  LIG1        0.0329
     15 C           5.5947   -0.2035    0.1541 C.ar    1  LIG1       -0.0380
     16 C           3.4877    0.9691   -0.1581 C.ar    1  LIG1       -0.0024
     17 C           6.2917    1.0028    0.1369 C.ar    1  LIG1       -0.0155
     18 H           6.1246   -1.1378    0.2807 H       1  LIG1        0.0636
     19 C           4.1969    2.1704   -0.1742 C.ar    1  LIG1       -0.0523
     20 C           5.5790    2.1921   -0.0287 C.ar    1  LIG1       -0.0533
     21 H           3.6508    3.0983   -0.2875 H       1  LIG1        0.0624
     22 C           3.5412   -1.5133    0.0091 C.1     1  LIG1       -0.0690
     23 C           3.0172   -2.5948    0.0120 C.1     1  LIG1       -0.1139
     24 H           2.5433   -3.5488    0.0128 H       1  LIG1        0.1232
     25 H           6.1118    3.1345   -0.0551 H       1  LIG1        0.0624
     26 C           8.6424    0.2457   -0.4435 C.ar    1  LIG1        0.0324
     27 C          10.0242    0.3199   -0.2372 C.ar    1  LIG1       -0.0457
     28 C           7.7727    1.0401    0.3237 C.ar    1  LIG1       -0.0025
     29 C          10.5491    1.1783    0.7199 C.ar    1  LIG1       -0.0606
     30 H          10.6730   -0.2975   -0.8434 H       1  LIG1        0.0630
     31 C           8.3188    1.8975    1.2811 C.ar    1  LIG1       -0.0529
     32 C           9.6932    1.9704    1.4810 C.ar    1  LIG1       -0.0611
     33 H           7.6489    2.4961    1.8858 H       1  LIG1        0.0624
     34 H          11.6190    1.2278    0.8716 H       1  LIG1        0.0618
     35 C           8.1461   -0.6382   -1.4748 C.1     1  LIG1       -0.0691
     36 C           7.7637   -1.3818   -2.3382 C.1     1  LIG1       -0.1139
     37 H           7.4118   -2.0377   -3.1006 H       1  LIG1        0.1232
     38 H          10.0929    2.6380    2.2328 H       1  LIG1        0.0618
@<TRIPOS>BOND
     1    37    36    1
     2     8     6    1
     3    36    35    3
     4    13     7    1
     5     6     7   ar
     6     6     3   ar
     7    35    26    1
     8     7     4   ar
     9    30    27    1
    10     9     3    1
    11     3     1   ar
    12    26    27   ar
    13    26    28   ar
    14     4    16    1
    15     4     2   ar
    16    21    19    1
    17    27    29   ar
    18    19    16   ar
    19    19    20   ar
    20    16    14   ar
    21    25    20    1
    22    20    17   ar
    23    14    22    1
    24    14    15   ar
    25    22    23    3
    26    23    24    1
    27    17    15   ar
    28    17    28    1
    29    15    18    1
    30    28    31   ar
    31     1     2   ar
    32     1    10    1
    33     2     5    1
    34    29    34    1
    35    29    32   ar
    36    31    32   ar
    37    31    33    1
    38    10    11    3
    39    32    38    1
    40    11    12    1
