@<TRIPOS>MOLECULE
mol_data/opt/m06hf/geoms/mol2/4ea4ea-4ea-4ea-.out
 50 53 0 0 0
SMALL
GASTEIGER

@<TRIPOS>ATOM
      1 C          -0.1760    0.0381   -0.3295 C.ar    1  LIG1        0.0253
      2 C           1.2161    0.0815   -0.2143 C.ar    1  LIG1       -0.0386
      3 C          -0.9059    1.2263   -0.4168 C.ar    1  LIG1       -0.0463
      4 C           1.8830    1.3056   -0.1854 C.ar    1  LIG1       -0.0156
      5 H           1.7715   -0.8434   -0.1306 H       1  LIG1        0.0636
      6 C          -0.2404    2.4468   -0.3864 C.ar    1  LIG1       -0.0600
      7 C           1.1456    2.4900   -0.2709 C.ar    1  LIG1       -0.0539
      8 H          -0.8025    3.3680   -0.4594 H       1  LIG1        0.0618
      9 H          -1.9826    1.1810   -0.5083 H       1  LIG1        0.0630
     10 C          -0.8566   -1.2370   -0.3561 C.1     1  LIG1       -0.0696
     11 C          -1.4196   -2.2983   -0.3805 C.1     1  LIG1       -0.1139
     12 H          -1.9158   -3.2407   -0.4007 H       1  LIG1        0.1232
     13 H           1.6622    3.4406   -0.2553 H       1  LIG1        0.0624
     14 C           4.0648    2.1048    0.8411 C.ar    1  LIG1        0.0329
     15 C           5.4612    2.0851    0.8856 C.ar    1  LIG1       -0.0380
     16 C           3.3737    1.3251   -0.1031 C.ar    1  LIG1       -0.0024
     17 C           6.1910    1.2909    0.0033 C.ar    1  LIG1       -0.0155
     18 H           5.9714    2.6838    1.6280 H       1  LIG1        0.0636
     19 C           4.1160    0.5364   -0.9831 C.ar    1  LIG1       -0.0523
     20 C           5.5045    0.5148   -0.9332 C.ar    1  LIG1       -0.0533
     21 H           3.5922   -0.0473   -1.7296 H       1  LIG1        0.0624
     22 C           3.3617    2.9126    1.8135 C.1     1  LIG1       -0.0690
     23 C           2.8075    3.5877    2.6391 C.1     1  LIG1       -0.1139
     24 H           2.3081    4.1769    3.3728 H       1  LIG1        0.1232
     25 H           6.0638   -0.0869   -1.6390 H       1  LIG1        0.0624
     26 C           8.4802    2.3874    0.0663 C.ar    1  LIG1        0.0329
     27 C           9.8723    2.2814    0.1160 C.ar    1  LIG1       -0.0380
     28 C           7.6804    1.2307    0.0695 C.ar    1  LIG1       -0.0024
     29 C          10.4914    1.0339    0.1688 C.ar    1  LIG1       -0.0155
     30 H          10.4676    3.1847    0.1089 H       1  LIG1        0.0636
     31 C           8.3118   -0.0127    0.1225 C.ar    1  LIG1       -0.0523
     32 C           9.6967   -0.1145    0.1724 C.ar    1  LIG1       -0.0533
     33 H           7.7029   -0.9080    0.1393 H       1  LIG1        0.0624
     34 C           7.8957    3.7078   -0.0125 C.1     1  LIG1       -0.0690
     35 C           7.4411    4.8184   -0.0794 C.1     1  LIG1       -0.1139
     36 H           7.0280    5.7984   -0.1412 H       1  LIG1        0.1232
     37 H          10.1680   -1.0890    0.2016 H       1  LIG1        0.0624
     38 C          12.8332    1.5765   -0.6412 C.ar    1  LIG1        0.0324
     39 C          14.2193    1.4244   -0.5273 C.ar    1  LIG1       -0.0457
     40 C          11.9766    0.9122    0.2543 C.ar    1  LIG1       -0.0025
     41 C          14.7611    0.6177    0.4646 C.ar    1  LIG1       -0.0606
     42 H          14.8574    1.9408   -1.2314 H       1  LIG1        0.0630
     43 C          12.5398    0.1050    1.2449 C.ar    1  LIG1       -0.0529
     44 C          13.9180   -0.0454    1.3529 C.ar    1  LIG1       -0.0611
     45 H          11.8819   -0.3914    1.9474 H       1  LIG1        0.0624
     46 H          15.8343    0.5064    0.5440 H       1  LIG1        0.0618
     47 C          12.3158    2.4006   -1.7110 C.1     1  LIG1       -0.0691
     48 C          11.9137    3.0889   -2.6107 C.1     1  LIG1       -0.1139
     49 H          11.5425    3.6927   -3.4062 H       1  LIG1        0.1232
     50 H          14.3316   -0.6710    2.1328 H       1  LIG1        0.0618
@<TRIPOS>BOND
     1    49    48    1
     2    48    47    3
     3    21    19    1
     4    47    38    1
     5    25    20    1
     6    42    39    1
     7    19    20   ar
     8    19    16   ar
     9    20    17   ar
    10    38    39   ar
    11    38    40   ar
    12    39    41   ar
    13     9     3    1
    14     8     6    1
    15     3     6   ar
    16     3     1   ar
    17    12    11    1
    18     6     7   ar
    19    11    10    3
    20    10     1    1
    21     1     2   ar
    22     7    13    1
    23     7     4   ar
    24     2     4   ar
    25     2     5    1
    26     4    16    1
    27    36    35    1
    28    16    14   ar
    29    35    34    3
    30    34    26    1
    31    17    28    1
    32    17    15   ar
    33    26    28   ar
    34    26    27   ar
    35    28    31   ar
    36    30    27    1
    37    27    29   ar
    38    31    33    1
    39    31    32   ar
    40    29    32   ar
    41    29    40    1
    42    32    37    1
    43    40    43   ar
    44    41    46    1
    45    41    44   ar
    46    14    15   ar
    47    14    22    1
    48    15    18    1
    49    43    44   ar
    50    43    45    1
    51    44    50    1
    52    22    23    3
    53    23    24    1
