@<TRIPOS>MOLECULE
mol_data/opt/m06hf/geoms/mol2/4ea4ea4ea4ea-.out
 50 53 0 0 0
SMALL
GASTEIGER

@<TRIPOS>ATOM
      1 C          -0.2761    0.6777    0.5465 C.ar    1  LIG1        0.0253
      2 C           1.1175    0.6695    0.6359 C.ar    1  LIG1       -0.0386
      3 C          -0.9007    0.8479   -0.6935 C.ar    1  LIG1       -0.0463
      4 C           1.8931    0.8324   -0.5119 C.ar    1  LIG1       -0.0156
      5 H           1.5895    0.5424    1.6009 H       1  LIG1        0.0636
      6 C          -0.1275    1.0085   -1.8361 C.ar    1  LIG1       -0.0600
      7 C           1.2620    1.0011   -1.7469 C.ar    1  LIG1       -0.0539
      8 H          -0.6055    1.1332   -2.7987 H       1  LIG1        0.0618
      9 H          -1.9809    0.8521   -0.7466 H       1  LIG1        0.0630
     10 C          -1.0747    0.5134    1.7406 C.1     1  LIG1       -0.0696
     11 C          -1.7417    0.3756    2.7304 C.1     1  LIG1       -0.1139
     12 H          -2.3313    0.2546    3.6091 H       1  LIG1        0.1232
     13 H           1.8660    1.1080   -2.6394 H       1  LIG1        0.0624
     14 C           4.1211   -0.1415    0.2191 C.ar    1  LIG1        0.0329
     15 C           5.5162   -0.0780    0.2592 C.ar    1  LIG1       -0.0380
     16 C           3.3838    0.8622   -0.4333 C.ar    1  LIG1       -0.0024
     17 C           6.1998    0.9748   -0.3469 C.ar    1  LIG1       -0.0155
     18 H           6.0625   -0.8611    0.7671 H       1  LIG1        0.0636
     19 C           4.0797    1.9117   -1.0353 C.ar    1  LIG1       -0.0523
     20 C           5.4675    1.9715   -0.9949 C.ar    1  LIG1       -0.0533
     21 H           3.5186    2.6957   -1.5279 H       1  LIG1        0.0624
     22 C           3.4693   -1.2723    0.8422 C.1     1  LIG1       -0.0690
     23 C           2.9593   -2.2255    1.3671 C.1     1  LIG1       -0.1139
     24 H           2.4992   -3.0678    1.8294 H       1  LIG1        0.1232
     25 H           5.9889    2.7881   -1.4789 H       1  LIG1        0.0624
     26 C           8.5190   -0.0098   -0.6397 C.ar    1  LIG1        0.0329
     27 C           9.9088    0.1248   -0.5663 C.ar    1  LIG1       -0.0380
     28 C           7.6881    1.0649   -0.2818 C.ar    1  LIG1       -0.0024
     29 C          10.4925    1.3164   -0.1441 C.ar    1  LIG1       -0.0155
     30 H          10.5310   -0.7192   -0.8353 H       1  LIG1        0.0636
     31 C           8.2852    2.2557    0.1384 C.ar    1  LIG1       -0.0523
     32 C           9.6658    2.3867    0.2081 C.ar    1  LIG1       -0.0533
     33 H           7.6499    3.0831    0.4289 H       1  LIG1        0.0624
     34 C           7.9750   -1.2625   -1.1150 C.1     1  LIG1       -0.0690
     35 C           7.5523   -2.3135   -1.5161 C.1     1  LIG1       -0.1139
     36 H           7.1651   -3.2404   -1.8710 H       1  LIG1        0.1232
     37 H          10.1073    3.3184    0.5363 H       1  LIG1        0.0624
     38 C          12.6614    1.9164    1.0246 C.ar    1  LIG1        0.0324
     39 C          14.0565    2.0211    1.0111 C.ar    1  LIG1       -0.0457
     40 C          11.9799    1.4426   -0.1097 C.ar    1  LIG1       -0.0025
     41 C          14.7802    1.6553   -0.1162 C.ar    1  LIG1       -0.0606
     42 H          14.5575    2.3831    1.8982 H       1  LIG1        0.0630
     43 C          12.7243    1.0774   -1.2332 C.ar    1  LIG1       -0.0529
     44 C          14.1114    1.1797   -1.2413 C.ar    1  LIG1       -0.0611
     45 H          12.2006    0.7285   -2.1143 H       1  LIG1        0.0624
     46 H          15.8587    1.7396   -0.1158 H       1  LIG1        0.0618
     47 C          11.9578    2.2739    2.2366 C.1     1  LIG1       -0.0691
     48 C          11.4062    2.5717    3.2624 C.1     1  LIG1       -0.1139
     49 H          10.9091    2.8255    4.1698 H       1  LIG1        0.1232
     50 H          14.6659    0.8962   -2.1258 H       1  LIG1        0.0618
@<TRIPOS>BOND
     1     8     6    1
     2    13     7    1
     3    50    44    1
     4    45    43    1
     5    36    35    1
     6     6     7   ar
     7     6     3   ar
     8     7     4   ar
     9    21    19    1
    10    35    34    3
    11    25    20    1
    12    44    43   ar
    13    44    41   ar
    14    43    40   ar
    15    34    26    1
    16    19    20   ar
    17    19    16   ar
    18    20    17   ar
    19    30    27    1
    20     9     3    1
    21     3     1   ar
    22    26    27   ar
    23    26    28   ar
    24    27    29   ar
    25     4    16    1
    26     4     2   ar
    27    16    14   ar
    28    17    28    1
    29    17    15   ar
    30    28    31   ar
    31    29    40    1
    32    29    32   ar
    33    41    46    1
    34    41    39   ar
    35    40    38   ar
    36    31    32   ar
    37    31    33    1
    38    32    37    1
    39    14    15   ar
    40    14    22    1
    41    15    18    1
    42     1     2   ar
    43     1    10    1
    44     2     5    1
    45    22    23    3
    46    39    38   ar
    47    39    42    1
    48    38    47    1
    49    23    24    1
    50    10    11    3
    51    47    48    3
    52    11    12    1
    53    48    49    1
