@<TRIPOS>MOLECULE
mol_data/opt/m06hf/geoms/mol2/4ea4ea.out
 26 27 0 0 0
SMALL
GASTEIGER

@<TRIPOS>ATOM
      1 C          -0.0612    0.1420    0.2830 C.ar    1  LIG1        0.0253
      2 C           1.3282    0.1020    0.4157 C.ar    1  LIG1       -0.0386
      3 C          -0.6756    1.2240   -0.3565 C.ar    1  LIG1       -0.0463
      4 C           2.1102    1.1412   -0.0888 C.ar    1  LIG1       -0.0156
      5 H           1.7930   -0.7368    0.9158 H       1  LIG1        0.0636
      6 C           0.1039    2.2576   -0.8600 C.ar    1  LIG1       -0.0600
      7 C           1.4893    2.2180   -0.7267 C.ar    1  LIG1       -0.0539
      8 H          -0.3663    3.0930   -1.3615 H       1  LIG1        0.0618
      9 H          -1.7524    1.2404   -0.4533 H       1  LIG1        0.0630
     10 C          -0.8667   -0.9349    0.8139 C.1     1  LIG1       -0.0696
     11 C          -1.5423   -1.8261    1.2539 C.1     1  LIG1       -0.1139
     12 H          -2.1415   -2.6151    1.6454 H       1  LIG1        0.1232
     13 H           2.0990    3.0146   -1.1346 H       1  LIG1        0.0624
     14 C           4.3844    0.0327   -0.2928 C.ar    1  LIG1        0.0324
     15 C           5.7727    0.0769   -0.1231 C.ar    1  LIG1       -0.0457
     16 C           3.5946    1.1346    0.0770 C.ar    1  LIG1       -0.0025
     17 C           6.3827    1.2057    0.4081 C.ar    1  LIG1       -0.0606
     18 H           6.3592   -0.7819   -0.4197 H       1  LIG1        0.0630
     19 C           4.2259    2.2608    0.6097 C.ar    1  LIG1       -0.0529
     20 C           5.6060    2.3016    0.7754 C.ar    1  LIG1       -0.0611
     21 H           3.6165    3.1026    0.9136 H       1  LIG1        0.0624
     22 H           7.4566    1.2282    0.5362 H       1  LIG1        0.0618
     23 C           3.7991   -1.1553   -0.8739 C.1     1  LIG1       -0.0691
     24 C           3.3428   -2.1563   -1.3577 C.1     1  LIG1       -0.1139
     25 H           2.9265   -3.0384   -1.7858 H       1  LIG1        0.1232
     26 H           6.0713    3.1832    1.1959 H       1  LIG1        0.0618
@<TRIPOS>BOND
     1    25    24    1
     2     8     6    1
     3    24    23    3
     4    13     7    1
     5    23    14    1
     6     6     7   ar
     7     6     3   ar
     8     7     4   ar
     9     9     3    1
    10    18    15    1
    11     3     1   ar
    12    14    15   ar
    13    14    16   ar
    14    15    17   ar
    15     4    16    1
    16     4     2   ar
    17    16    19   ar
    18     1     2   ar
    19     1    10    1
    20    17    22    1
    21    17    20   ar
    22     2     5    1
    23    19    20   ar
    24    19    21    1
    25    20    26    1
    26    10    11    3
    27    11    12    1
