@<TRIPOS>MOLECULE
mol_data/opt/m06hf/geoms/mol2/4ea4ea-4ea-4ea.out
 50 53 0 0 0
SMALL
GASTEIGER

@<TRIPOS>ATOM
      1 C          -0.2426    0.1522   -0.2450 C.ar    1  LIG1        0.0253
      2 C           1.1543    0.1247   -0.2029 C.ar    1  LIG1       -0.0386
      3 C          -0.9154    1.3764   -0.2821 C.ar    1  LIG1       -0.0463
      4 C           1.8813    1.3139   -0.1954 C.ar    1  LIG1       -0.0156
      5 H           1.6661   -0.8278   -0.1572 H       1  LIG1        0.0636
      6 C          -0.1893    2.5622   -0.2754 C.ar    1  LIG1       -0.0600
      7 C           1.2009    2.5347   -0.2316 C.ar    1  LIG1       -0.0539
      8 H          -0.7075    3.5111   -0.3099 H       1  LIG1        0.0618
      9 H          -1.9964    1.3852   -0.3158 H       1  LIG1        0.0630
     10 C          -0.9876   -1.0865   -0.2462 C.1     1  LIG1       -0.0696
     11 C          -1.6060   -2.1168   -0.2478 C.1     1  LIG1       -0.1139
     12 H          -2.1516   -3.0315   -0.2479 H       1  LIG1        0.1232
     13 H           1.7655    3.4577   -0.2314 H       1  LIG1        0.0624
     14 C           4.1368    2.0046    0.7391 C.ar    1  LIG1        0.0329
     15 C           5.5318    1.9372    0.7139 C.ar    1  LIG1       -0.0380
     16 C           3.3737    1.2673   -0.1836 C.ar    1  LIG1       -0.0024
     17 C           6.1902    1.1386   -0.2191 C.ar    1  LIG1       -0.0155
     18 H           6.0976    2.5037    1.4411 H       1  LIG1        0.0636
     19 C           4.0441    0.4686   -1.1108 C.ar    1  LIG1       -0.0523
     20 C           5.4323    0.4008   -1.1310 C.ar    1  LIG1       -0.0533
     21 H           3.4650   -0.0838   -1.8400 H       1  LIG1        0.0624
     22 C           3.5123    2.8179    1.7594 C.1     1  LIG1       -0.0690
     23 C           3.0307    3.4991    2.6246 C.1     1  LIG1       -0.1139
     24 H           2.5966    4.0943    3.3940 H       1  LIG1        0.1232
     25 H           5.9342   -0.2057   -1.8746 H       1  LIG1        0.0624
     26 C           8.5042    2.1771   -0.2388 C.ar    1  LIG1        0.0329
     27 C           9.8951    2.0336   -0.2477 C.ar    1  LIG1       -0.0380
     28 C           7.6792    1.0397   -0.2295 C.ar    1  LIG1       -0.0024
     29 C          10.4863    0.7731   -0.2502 C.ar    1  LIG1       -0.0155
     30 H          10.5114    2.9234   -0.2418 H       1  LIG1        0.0636
     31 C           8.2838   -0.2194   -0.2355 C.ar    1  LIG1       -0.0523
     32 C           9.6655   -0.3582   -0.2458 C.ar    1  LIG1       -0.0533
     33 H           7.6545   -1.1004   -0.2146 H       1  LIG1        0.0624
     34 C           7.9545    3.5145   -0.2645 C.1     1  LIG1       -0.0690
     35 C           7.5326    4.6395   -0.2882 C.1     1  LIG1       -0.1139
     36 H           7.1451    5.6314   -0.3102 H       1  LIG1        0.1232
     37 H          10.1125   -1.3435   -0.2493 H       1  LIG1        0.0624
     38 C          12.6809   -0.1573    0.6136 C.ar    1  LIG1        0.0324
     39 C          14.0757   -0.2394    0.5385 C.ar    1  LIG1       -0.0457
     40 C          11.9738    0.6528   -0.2916 C.ar    1  LIG1       -0.0025
     41 C          14.7732    0.4795   -0.4232 C.ar    1  LIG1       -0.0606
     42 H          14.5977   -0.8649    1.2496 H       1  LIG1        0.0630
     43 C          12.6923    1.3690   -1.2513 C.ar    1  LIG1       -0.0529
     44 C          14.0789    1.2877   -1.3199 C.ar    1  LIG1       -0.0611
     45 H          12.1477    1.9796   -1.9606 H       1  LIG1        0.0624
     46 H          15.8517    0.4087   -0.4725 H       1  LIG1        0.0618
     47 C          12.0051   -0.8944    1.6586 C.1     1  LIG1       -0.0691
     48 C          11.4812   -1.5171    2.5432 C.1     1  LIG1       -0.1139
     49 H          11.0097   -2.0601    3.3294 H       1  LIG1        0.1232
     50 H          14.6138    1.8472   -2.0759 H       1  LIG1        0.0618
@<TRIPOS>BOND
     1    50    44    1
     2    45    43    1
     3    25    20    1
     4    21    19    1
     5    44    43   ar
     6    44    41   ar
     7    43    40   ar
     8    20    19   ar
     9    20    17   ar
    10    19    16   ar
    11    46    41    1
    12    41    39   ar
    13     9     3    1
    14    36    35    1
    15     8     6    1
    16    40    29    1
    17    40    38   ar
    18    35    34    3
    19     3     6   ar
    20     3     1   ar
    21     6     7   ar
    22    34    26    1
    23    29    27   ar
    24    29    32   ar
    25    37    32    1
    26    12    11    1
    27    11    10    3
    28    27    30    1
    29    27    26   ar
    30    10     1    1
    31    32    31   ar
    32     1     2   ar
    33    26    28   ar
    34    31    28   ar
    35    31    33    1
    36     7    13    1
    37     7     4   ar
    38    28    17    1
    39    17    15   ar
    40     2     4   ar
    41     2     5    1
    42     4    16    1
    43    16    14   ar
    44    39    38   ar
    45    39    42    1
    46    38    47    1
    47    15    14   ar
    48    15    18    1
    49    14    22    1
    50    47    48    3
    51    22    23    3
    52    48    49    1
    53    23    24    1
