@<TRIPOS>MOLECULE
mol_data/opt/m06hf/geoms/mol2/4ea4ea-4ea.out
 38 40 0 0 0
SMALL
GASTEIGER

@<TRIPOS>ATOM
      1 C          -0.1301    0.1447    0.0192 C.ar    1  LIG1        0.0253
      2 C           1.2661    0.1332    0.0790 C.ar    1  LIG1       -0.0386
      3 C          -0.8009    1.2981   -0.3958 C.ar    1  LIG1       -0.0463
      4 C           1.9956    1.2685   -0.2716 C.ar    1  LIG1       -0.0156
      5 H           1.7764   -0.7591    0.4177 H       1  LIG1        0.0636
      6 C          -0.0727    2.4302   -0.7446 C.ar    1  LIG1       -0.0600
      7 C           1.3172    2.4191   -0.6837 C.ar    1  LIG1       -0.0539
      8 H          -0.5891    3.3229   -1.0709 H       1  LIG1        0.0618
      9 H          -1.8816    1.2954   -0.4405 H       1  LIG1        0.0630
     10 C          -0.8752   -1.0371    0.3906 C.1     1  LIG1       -0.0696
     11 C          -1.4903   -2.0225    0.6994 C.1     1  LIG1       -0.1139
     12 H          -2.0320   -2.8977    0.9743 H       1  LIG1        0.1232
     13 H           1.8825    3.2990   -0.9612 H       1  LIG1        0.0624
     14 C           4.2532    2.2058    0.4119 C.ar    1  LIG1        0.0329
     15 C           5.6485    2.1145    0.4223 C.ar    1  LIG1       -0.0380
     16 C           3.4875    1.2227   -0.2359 C.ar    1  LIG1       -0.0024
     17 C           6.3031    1.0547   -0.2011 C.ar    1  LIG1       -0.0155
     18 H           6.2174    2.8700    0.9488 H       1  LIG1        0.0636
     19 C           4.1557    0.1648   -0.8584 C.ar    1  LIG1       -0.0523
     20 C           5.5412    0.0756   -0.8441 C.ar    1  LIG1       -0.0533
     21 H           3.5729   -0.5830   -1.3812 H       1  LIG1        0.0624
     22 C           3.6367    3.3127    1.1098 C.1     1  LIG1       -0.0690
     23 C           3.1644    4.2450    1.7034 C.1     1  LIG1       -0.1139
     24 H           2.7378    5.0654    2.2325 H       1  LIG1        0.1232
     25 H           6.0374   -0.7471   -1.3419 H       1  LIG1        0.0624
     26 C           8.5018   -0.1533    0.1715 C.ar    1  LIG1        0.0324
     27 C           9.9009   -0.1545    0.1582 C.ar    1  LIG1       -0.0457
     28 C           7.7951    1.0035   -0.2011 C.ar    1  LIG1       -0.0025
     29 C          10.6032    0.9830   -0.2180 C.ar    1  LIG1       -0.0606
     30 H          10.4212   -1.0548    0.4545 H       1  LIG1        0.0630
     31 C           8.5187    2.1380   -0.5759 C.ar    1  LIG1       -0.0529
     32 C           9.9094    2.1335   -0.5848 C.ar    1  LIG1       -0.0611
     33 H           7.9764    3.0240   -0.8815 H       1  LIG1        0.0624
     34 H          11.6849    0.9713   -0.2243 H       1  LIG1        0.0618
     35 C           7.8187   -1.3526    0.6041 C.1     1  LIG1       -0.0691
     36 C           7.2889   -2.3664    0.9729 C.1     1  LIG1       -0.1139
     37 H           6.8117   -3.2590    1.3047 H       1  LIG1        0.1232
     38 H          10.4478    3.0230   -0.8841 H       1  LIG1        0.0618
@<TRIPOS>BOND
     1    21    19    1
     2    25    20    1
     3     8     6    1
     4    13     7    1
     5    38    32    1
     6    33    31    1
     7    19    20   ar
     8    19    16   ar
     9    20    17   ar
    10     6     7   ar
    11     6     3   ar
    12     7     4   ar
    13    32    31   ar
    14    32    29   ar
    15    31    28   ar
    16     9     3    1
    17     3     1   ar
    18     4    16    1
    19     4     2   ar
    20    16    14   ar
    21    34    29    1
    22    29    27   ar
    23    28    17    1
    24    28    26   ar
    25    17    15   ar
    26     1     2   ar
    27     1    10    1
    28     2     5    1
    29    27    26   ar
    30    27    30    1
    31    26    35    1
    32    10    11    3
    33    14    15   ar
    34    14    22    1
    35    15    18    1
    36    35    36    3
    37    11    12    1
    38    36    37    1
    39    22    23    3
    40    23    24    1
