@<TRIPOS>MOLECULE
mol_data/opt/m06hf/geoms/mol2/4ea4ea4ea-4ea-.out
 50 53 0 0 0
SMALL
GASTEIGER

@<TRIPOS>ATOM
      1 C          -0.2634    0.3921    0.4175 C.ar    1  LIG1        0.0253
      2 C           1.1303    0.3631    0.4957 C.ar    1  LIG1       -0.0386
      3 C          -0.8951    1.0935   -0.6147 C.ar    1  LIG1       -0.0463
      4 C           1.8982    1.0356   -0.4551 C.ar    1  LIG1       -0.0156
      5 H           1.6090   -0.1760    1.3021 H       1  LIG1        0.0636
      6 C          -0.1295    1.7613   -1.5621 C.ar    1  LIG1       -0.0600
      7 C           1.2602    1.7339   -1.4830 C.ar    1  LIG1       -0.0539
      8 H          -0.6140    2.2984   -2.3665 H       1  LIG1        0.0618
      9 H          -1.9755    1.1065   -0.6624 H       1  LIG1        0.0630
     10 C          -1.0546   -0.2995    1.4107 C.1     1  LIG1       -0.0696
     11 C          -1.7111   -0.8728    2.2378 C.1     1  LIG1       -0.1139
     12 H          -2.2901   -1.3804    2.9738 H       1  LIG1        0.1232
     13 H           1.8591    2.2398   -2.2301 H       1  LIG1        0.0624
     14 C           4.1381   -0.1358   -0.2465 C.ar    1  LIG1        0.0329
     15 C           5.5331   -0.0761   -0.1705 C.ar    1  LIG1       -0.0380
     16 C           3.3882    1.0459   -0.3651 C.ar    1  LIG1       -0.0024
     17 C           6.2014    1.1448   -0.2106 C.ar    1  LIG1       -0.0155
     18 H           6.0916   -0.9976   -0.0684 H       1  LIG1        0.0636
     19 C           4.0703    2.2643   -0.4073 C.ar    1  LIG1       -0.0523
     20 C           5.4555    2.3204   -0.3303 C.ar    1  LIG1       -0.0533
     21 H           3.4969    3.1793   -0.4859 H       1  LIG1        0.0624
     22 C           3.5050   -1.4359   -0.2260 C.1     1  LIG1       -0.0690
     23 C           3.0116   -2.5316   -0.2086 C.1     1  LIG1       -0.1139
     24 H           2.5648   -3.4987   -0.1943 H       1  LIG1        0.1232
     25 H           5.9634    3.2756   -0.3621 H       1  LIG1        0.0624
     26 C           8.3902    1.9843    0.7574 C.ar    1  LIG1        0.0329
     27 C           9.7869    1.9783    0.7799 C.ar    1  LIG1       -0.0380
     28 C           7.6923    1.1742   -0.1562 C.ar    1  LIG1       -0.0024
     29 C          10.5110    1.1721   -0.0962 C.ar    1  LIG1       -0.0155
     30 H          10.3023    2.5990    1.5004 H       1  LIG1        0.0636
     31 C           8.4278    0.3708   -1.0281 C.ar    1  LIG1       -0.0523
     32 C           9.8174    0.3660   -1.0018 C.ar    1  LIG1       -0.0533
     33 H           7.8979   -0.2381   -1.7498 H       1  LIG1        0.0624
     34 C           7.6940    2.8108    1.7189 C.1     1  LIG1       -0.0690
     35 C           7.1458    3.5042    2.5337 C.1     1  LIG1       -0.1139
     36 H           6.6510    4.1102    3.2573 H       1  LIG1        0.1232
     37 H          10.3707   -0.2470   -1.7025 H       1  LIG1        0.0624
     38 C          12.7833    2.3013   -0.0859 C.ar    1  LIG1        0.0324
     39 C          14.1791    2.2126   -0.0477 C.ar    1  LIG1       -0.0457
     40 C          12.0027    1.1327   -0.0527 C.ar    1  LIG1       -0.0025
     41 C          14.8053    0.9749    0.0213 C.ar    1  LIG1       -0.0606
     42 H          14.7580    3.1255   -0.0800 H       1  LIG1        0.0630
     43 C          12.6502   -0.1030    0.0157 C.ar    1  LIG1       -0.0529
     44 C          14.0377   -0.1867    0.0521 C.ar    1  LIG1       -0.0611
     45 H          12.0499   -1.0030    0.0615 H       1  LIG1        0.0624
     46 H          15.8851    0.9171    0.0519 H       1  LIG1        0.0618
     47 C          12.1793    3.6114   -0.1864 C.1     1  LIG1       -0.0691
     48 C          11.7091    4.7142   -0.2701 C.1     1  LIG1       -0.1139
     49 H          11.2799    5.6861   -0.3471 H       1  LIG1        0.1232
     50 H          14.5172   -1.1547    0.1125 H       1  LIG1        0.0618
@<TRIPOS>BOND
     1     8     6    1
     2    13     7    1
     3    33    31    1
     4    37    32    1
     5     6     7   ar
     6     6     3   ar
     7     7     4   ar
     8    31    32   ar
     9    31    28   ar
    10    32    29   ar
    11     9     3    1
    12     3     1   ar
    13    21    19    1
    14     4    16    1
    15     4     2   ar
    16    19    16   ar
    17    19    20   ar
    18    16    14   ar
    19    25    20    1
    20    49    48    1
    21    20    17   ar
    22    48    47    3
    23    14    22    1
    24    14    15   ar
    25    22    23    3
    26    17    15   ar
    27    17    28    1
    28    23    24    1
    29    47    38    1
    30    15    18    1
    31    28    26   ar
    32    29    40    1
    33    29    27   ar
    34    38    40   ar
    35    38    39   ar
    36    42    39    1
    37    40    43   ar
    38    39    41   ar
    39    43    44   ar
    40    43    45    1
    41    41    46    1
    42    41    44   ar
    43    44    50    1
    44     1     2   ar
    45     1    10    1
    46     2     5    1
    47    26    27   ar
    48    26    34    1
    49    27    30    1
    50    10    11    3
    51    34    35    3
    52    11    12    1
    53    35    36    1
