@<TRIPOS>MOLECULE
mol_data/opt/m06hf/geoms/mol2/4ea4ea4ea4ea.out
 50 53 0 0 0
SMALL
GASTEIGER

@<TRIPOS>ATOM
      1 C          -0.3226    0.7812    0.4452 C.ar    1  LIG1        0.0253
      2 C           1.0634    0.7100    0.5984 C.ar    1  LIG1       -0.0386
      3 C          -0.8809    0.9708   -0.8232 C.ar    1  LIG1       -0.0463
      4 C           1.8972    0.8290   -0.5136 C.ar    1  LIG1       -0.0156
      5 H           1.4847    0.5700    1.5845 H       1  LIG1        0.0636
      6 C          -0.0500    1.0877   -1.9301 C.ar    1  LIG1       -0.0600
      7 C           1.3321    1.0179   -1.7772 C.ar    1  LIG1       -0.0539
      8 H          -0.4778    1.2267   -2.9138 H       1  LIG1        0.0618
      9 H          -1.9564    1.0234   -0.9262 H       1  LIG1        0.0630
     10 C          -1.1808    0.6638    1.6029 C.1     1  LIG1       -0.0696
     11 C          -1.8927    0.5659    2.5660 C.1     1  LIG1       -0.1139
     12 H          -2.5213    0.4804    3.4216 H       1  LIG1        0.1232
     13 H           1.9806    1.0908   -2.6413 H       1  LIG1        0.0624
     14 C           4.0401   -0.2460    0.3199 C.ar    1  LIG1        0.0329
     15 C           5.4326   -0.2442    0.4317 C.ar    1  LIG1       -0.0380
     16 C           3.3820    0.7919   -0.3636 C.ar    1  LIG1       -0.0024
     17 C           6.1913    0.7814   -0.1286 C.ar    1  LIG1       -0.0155
     18 H           5.9176   -1.0535    0.9605 H       1  LIG1        0.0636
     19 C           4.1531    1.8110   -0.9234 C.ar    1  LIG1       -0.0523
     20 C           5.5383    1.8107   -0.8094 C.ar    1  LIG1       -0.0533
     21 H           3.6532    2.6200   -1.4407 H       1  LIG1        0.0624
     22 C           3.3087   -1.3488    0.9035 C.1     1  LIG1       -0.0690
     23 C           2.7305   -2.2788    1.3982 C.1     1  LIG1       -0.1139
     24 H           2.2094   -3.0997    1.8332 H       1  LIG1        0.1232
     25 H           6.1197    2.6063   -1.2589 H       1  LIG1        0.0624
     26 C           8.4812   -0.2947   -0.3120 C.ar    1  LIG1        0.0329
     27 C           9.8673   -0.2283   -0.1518 C.ar    1  LIG1       -0.0380
     28 C           7.6756    0.8077    0.0236 C.ar    1  LIG1       -0.0024
     29 C          10.4741    0.9255    0.3404 C.ar    1  LIG1       -0.0155
     30 H          10.4680   -1.0881   -0.4167 H       1  LIG1        0.0636
     31 C           8.2949    1.9595    0.5097 C.ar    1  LIG1       -0.0523
     32 C           9.6745    2.0218    0.6690 C.ar    1  LIG1       -0.0533
     33 H           7.6803    2.8084    0.7816 H       1  LIG1        0.0624
     34 C           7.9104   -1.5107   -0.8478 C.1     1  LIG1       -0.0690
     35 C           7.4640   -2.5329   -1.2966 C.1     1  LIG1       -0.1139
     36 H           7.0559   -3.4337   -1.6939 H       1  LIG1        0.1232
     37 H          10.1374    2.9276    1.0405 H       1  LIG1        0.0624
     38 C          12.8644    0.6528   -0.4618 C.ar    1  LIG1        0.0324
     39 C          14.2400    0.7228   -0.2163 C.ar    1  LIG1       -0.0457
     40 C          11.9507    0.9850    0.5531 C.ar    1  LIG1       -0.0025
     41 C          14.7147    1.1217    1.0265 C.ar    1  LIG1       -0.0606
     42 H          14.9234    0.4675   -1.0146 H       1  LIG1        0.0630
     43 C          12.4462    1.3867    1.7954 C.ar    1  LIG1       -0.0529
     44 C          13.8143    1.4564    2.0348 C.ar    1  LIG1       -0.0611
     45 H          11.7429    1.6246    2.5836 H       1  LIG1        0.0624
     46 H          15.7801    1.1708    1.2069 H       1  LIG1        0.0618
     47 C          12.4159    0.2638   -1.7804 C.1     1  LIG1       -0.0691
     48 C          12.0714   -0.0561   -2.8864 C.1     1  LIG1       -0.1139
     49 H          11.7513   -0.3341   -3.8637 H       1  LIG1        0.1232
     50 H          14.1758    1.7626    3.0075 H       1  LIG1        0.0618
@<TRIPOS>BOND
     1    49    48    1
     2     8     6    1
     3    48    47    3
     4    13     7    1
     5     6     7   ar
     6     6     3   ar
     7    47    38    1
     8     7     4   ar
     9    36    35    1
    10    21    19    1
    11    35    34    3
    12    25    20    1
    13    42    39    1
    14     9     3    1
    15    19    20   ar
    16    19    16   ar
    17    34    26    1
    18     3     1   ar
    19    20    17   ar
    20     4    16    1
    21     4     2   ar
    22    38    39   ar
    23    38    40   ar
    24    30    27    1
    25    16    14   ar
    26    26    27   ar
    27    26    28   ar
    28    39    41   ar
    29    27    29   ar
    30    17    28    1
    31    17    15   ar
    32    28    31   ar
    33    14    15   ar
    34    14    22    1
    35    29    40    1
    36    29    32   ar
    37    15    18    1
    38     1     2   ar
    39     1    10    1
    40    31    32   ar
    41    31    33    1
    42    40    43   ar
    43     2     5    1
    44    32    37    1
    45    22    23    3
    46    41    46    1
    47    41    44   ar
    48    23    24    1
    49    10    11    3
    50    43    44   ar
    51    43    45    1
    52    44    50    1
    53    11    12    1
