@<TRIPOS>MOLECULE
mol_data/opt/m06hf/geoms/mol2/4ea4ea-.out
 26 27 0 0 0
SMALL
GASTEIGER

@<TRIPOS>ATOM
      1 C           0.0043    0.1239    0.1570 C.ar    1  LIG1        0.0253
      2 C           1.3990    0.1470    0.2421 C.ar    1  LIG1       -0.0386
      3 C          -0.6753    1.1825   -0.4517 C.ar    1  LIG1       -0.0463
      4 C           2.1184    1.2223   -0.2763 C.ar    1  LIG1       -0.0156
      5 H           1.9159   -0.6702    0.7282 H       1  LIG1        0.0636
      6 C           0.0433    2.2549   -0.9682 C.ar    1  LIG1       -0.0600
      7 C           1.4316    2.2785   -0.8818 C.ar    1  LIG1       -0.0539
      8 H          -0.4799    3.0734   -1.4440 H       1  LIG1        0.0618
      9 H          -1.7544    1.1540   -0.5139 H       1  LIG1        0.0630
     10 C          -0.7320   -0.9943    0.7024 C.1     1  LIG1       -0.0696
     11 C          -1.3436   -1.9248    1.1539 C.1     1  LIG1       -0.1139
     12 H          -1.8868   -2.7486    1.5550 H       1  LIG1        0.1232
     13 H           1.9906    3.1103   -1.2901 H       1  LIG1        0.0624
     14 C           4.3467    2.2945    0.2939 C.ar    1  LIG1        0.0324
     15 C           5.7443    2.2359    0.3340 C.ar    1  LIG1       -0.0457
     16 C           3.6108    1.2096   -0.2122 C.ar    1  LIG1       -0.0025
     17 C           6.4161    1.1095   -0.1218 C.ar    1  LIG1       -0.0606
     18 H           6.2877    3.0813    0.7333 H       1  LIG1        0.0630
     19 C           4.3037    0.0849   -0.6652 C.ar    1  LIG1       -0.0529
     20 C           5.6927    0.0298   -0.6222 C.ar    1  LIG1       -0.0611
     21 H           3.7384   -0.7443   -1.0716 H       1  LIG1        0.0624
     22 H           7.4966    1.0740   -0.0854 H       1  LIG1        0.0618
     23 C           3.6944    3.4786    0.8083 C.1     1  LIG1       -0.0691
     24 C           3.1898    4.4769    1.2480 C.1     1  LIG1       -0.1139
     25 H           2.7316    5.3543    1.6414 H       1  LIG1        0.1232
     26 H           6.2078   -0.8504   -0.9839 H       1  LIG1        0.0618
@<TRIPOS>BOND
     1     8     6    1
     2    13     7    1
     3    21    19    1
     4    26    20    1
     5     6     7   ar
     6     6     3   ar
     7     7     4   ar
     8    19    20   ar
     9    19    16   ar
    10    20    17   ar
    11     9     3    1
    12     3     1   ar
    13     4    16    1
    14     4     2   ar
    15    16    14   ar
    16    17    22    1
    17    17    15   ar
    18     1     2   ar
    19     1    10    1
    20     2     5    1
    21    14    15   ar
    22    14    23    1
    23    15    18    1
    24    10    11    3
    25    23    24    3
    26    11    12    1
    27    24    25    1
