@<TRIPOS>MOLECULE
mol_data/opt/m06hf/geoms/mol2/4ea4ea4ea-4ea.out
 50 53 0 0 0
SMALL
GASTEIGER

@<TRIPOS>ATOM
      1 C          -0.2886    0.4449    0.3851 C.ar    1  LIG1        0.0253
      2 C           1.1035    0.4069    0.4886 C.ar    1  LIG1       -0.0386
      3 C          -0.8974    1.1584   -0.6528 C.ar    1  LIG1       -0.0463
      4 C           1.8928    1.0811   -0.4430 C.ar    1  LIG1       -0.0156
      5 H           1.5639   -0.1432    1.2981 H       1  LIG1        0.0636
      6 C          -0.1105    1.8304   -1.5794 C.ar    1  LIG1       -0.0600
      7 C           1.2773    1.7934   -1.4755 C.ar    1  LIG1       -0.0539
      8 H          -0.5767    2.3774   -2.3879 H       1  LIG1        0.0618
      9 H          -1.9767    1.1769   -0.7212 H       1  LIG1        0.0630
     10 C          -1.1017   -0.2522    1.3565 C.1     1  LIG1       -0.0696
     11 C          -1.7778   -0.8322    2.1629 C.1     1  LIG1       -0.1139
     12 H          -2.3750   -1.3454    2.8802 H       1  LIG1        0.1232
     13 H           1.8924    2.3010   -2.2083 H       1  LIG1        0.0624
     14 C           4.1168   -0.1181   -0.2212 C.ar    1  LIG1        0.0329
     15 C           5.5124   -0.0762   -0.1445 C.ar    1  LIG1       -0.0380
     16 C           3.3821    1.0732   -0.3374 C.ar    1  LIG1       -0.0024
     17 C           6.1966    1.1362   -0.1819 C.ar    1  LIG1       -0.0155
     18 H           6.0584   -1.0052   -0.0458 H       1  LIG1        0.0636
     19 C           4.0794    2.2832   -0.3716 C.ar    1  LIG1       -0.0523
     20 C           5.4655    2.3217   -0.2949 C.ar    1  LIG1       -0.0533
     21 H           3.5179    3.2057   -0.4469 H       1  LIG1        0.0624
     22 C           3.4680   -1.4104   -0.2062 C.1     1  LIG1       -0.0690
     23 C           2.9579   -2.4986   -0.1963 C.1     1  LIG1       -0.1139
     24 H           2.4941   -3.4576   -0.1900 H       1  LIG1        0.1232
     25 H           5.9847    3.2705   -0.3244 H       1  LIG1        0.0624
     26 C           8.4084    1.9559    0.7523 C.ar    1  LIG1        0.0329
     27 C           9.8064    1.9253    0.7550 C.ar    1  LIG1       -0.0380
     28 C           7.6885    1.1434   -0.1393 C.ar    1  LIG1       -0.0024
     29 C          10.5069    1.0924   -0.1136 C.ar    1  LIG1       -0.0155
     30 H          10.3419    2.5420    1.4654 H       1  LIG1        0.0636
     31 C           8.4024    0.3116   -1.0054 C.ar    1  LIG1       -0.0523
     32 C           9.7905    0.2802   -0.9968 C.ar    1  LIG1       -0.0533
     33 H           7.8531   -0.2997   -1.7105 H       1  LIG1        0.0624
     34 C           7.7403    2.8104    1.7089 C.1     1  LIG1       -0.0690
     35 C           7.2158    3.5269    2.5191 C.1     1  LIG1       -0.1139
     36 H           6.7410    4.1528    3.2390 H       1  LIG1        0.1232
     37 H          10.3242   -0.3643   -1.6830 H       1  LIG1        0.0624
     38 C          12.7551   -0.0767   -0.0292 C.ar    1  LIG1        0.0324
     39 C          14.1529   -0.0172   -0.0327 C.ar    1  LIG1       -0.0457
     40 C          11.9999    1.1057   -0.1120 C.ar    1  LIG1       -0.0025
     41 C          14.8063    1.2055   -0.1143 C.ar    1  LIG1       -0.0606
     42 H          14.7112   -0.9405    0.0379 H       1  LIG1        0.0630
     43 C          12.6740    2.3260   -0.1916 C.ar    1  LIG1       -0.0529
     44 C          14.0638    2.3810   -0.1922 C.ar    1  LIG1       -0.0611
     45 H          12.0943    3.2367   -0.2734 H       1  LIG1        0.0624
     46 H          15.8876    1.2402   -0.1162 H       1  LIG1        0.0618
     47 C          12.1236   -1.3722    0.0926 C.1     1  LIG1       -0.0691
     48 C          11.6325   -2.4642    0.2007 C.1     1  LIG1       -0.1139
     49 H          11.1883   -3.4272    0.3043 H       1  LIG1        0.1232
     50 H          14.5637    3.3379   -0.2609 H       1  LIG1        0.0618
@<TRIPOS>BOND
     1     8     6    1
     2    13     7    1
     3    33    31    1
     4    37    32    1
     5     6     7   ar
     6     6     3   ar
     7     7     4   ar
     8    31    32   ar
     9    31    28   ar
    10    32    29   ar
    11     9     3    1
    12     3     1   ar
    13    21    19    1
    14     4    16    1
    15     4     2   ar
    16    19    16   ar
    17    19    20   ar
    18    16    14   ar
    19    25    20    1
    20    20    17   ar
    21    45    43    1
    22    50    44    1
    23    14    22    1
    24    14    15   ar
    25    22    23    3
    26    23    24    1
    27    44    43   ar
    28    44    41   ar
    29    43    40   ar
    30    17    15   ar
    31    17    28    1
    32    15    18    1
    33    28    26   ar
    34    46    41    1
    35    41    39   ar
    36    29    40    1
    37    29    27   ar
    38    40    38   ar
    39    39    38   ar
    40    39    42    1
    41    38    47    1
    42    47    48    3
    43    48    49    1
    44     1     2   ar
    45     1    10    1
    46     2     5    1
    47    26    27   ar
    48    26    34    1
    49    27    30    1
    50    10    11    3
    51    34    35    3
    52    11    12    1
    53    35    36    1
