@<TRIPOS>MOLECULE
mol_data/opt/m06hf/geoms/mol2/4ea4ea-4ea4ea-.out
 50 53 0 0 0
SMALL
GASTEIGER

@<TRIPOS>ATOM
      1 C          -0.2414    0.1425    0.1142 C.ar    1  LIG1        0.0253
      2 C           1.1550    0.1382    0.1696 C.ar    1  LIG1       -0.0386
      3 C          -0.9135    1.2256   -0.4584 C.ar    1  LIG1       -0.0463
      4 C           1.8835    1.2106   -0.3424 C.ar    1  LIG1       -0.0156
      5 H           1.6663   -0.6971    0.6302 H       1  LIG1        0.0636
      6 C          -0.1861    2.2940   -0.9705 C.ar    1  LIG1       -0.0600
      7 C           1.2039    2.2903   -0.9139 C.ar    1  LIG1       -0.0539
      8 H          -0.7032    3.1315   -1.4191 H       1  LIG1        0.0618
      9 H          -1.9944    1.2185   -0.4965 H       1  LIG1        0.0630
     10 C          -0.9885   -0.9712    0.6540 C.1     1  LIG1       -0.0696
     11 C          -1.6124   -1.8956    1.1013 C.1     1  LIG1       -0.1139
     12 H          -2.1637   -2.7157    1.4985 H       1  LIG1        0.1232
     13 H           1.7683    3.1202   -1.3183 H       1  LIG1        0.0624
     14 C           4.1351    2.2395    0.2106 C.ar    1  LIG1        0.0329
     15 C           5.5306    2.1565    0.2355 C.ar    1  LIG1       -0.0380
     16 C           3.3754    1.1738   -0.2993 C.ar    1  LIG1       -0.0024
     17 C           6.1910    1.0247   -0.2360 C.ar    1  LIG1       -0.0155
     18 H           6.0954    2.9793    0.6547 H       1  LIG1        0.0636
     19 C           4.0491    0.0439   -0.7693 C.ar    1  LIG1       -0.0523
     20 C           5.4351   -0.0372   -0.7396 C.ar    1  LIG1       -0.0533
     21 H           3.4705   -0.7717   -1.1845 H       1  LIG1        0.0624
     22 C           3.5123    3.4265    0.7538 C.1     1  LIG1       -0.0690
     23 C           3.0290    4.4246    1.2178 C.1     1  LIG1       -0.1139
     24 H           2.5907    5.3014    1.6350 H       1  LIG1        0.1232
     25 H           5.9359   -0.9181   -1.1190 H       1  LIG1        0.0624
     26 C           8.3959   -0.1066    0.3031 C.ar    1  LIG1        0.0329
     27 C           9.7942   -0.0970    0.2975 C.ar    1  LIG1       -0.0380
     28 C           7.6825    0.9820   -0.2245 C.ar    1  LIG1       -0.0024
     29 C          10.5024    0.9835   -0.2220 C.ar    1  LIG1       -0.0155
     30 H          10.3235   -0.9355    0.7310 H       1  LIG1        0.0636
     31 C           8.4040    2.0593   -0.7445 C.ar    1  LIG1       -0.0523
     32 C           9.7925    2.0677   -0.7445 C.ar    1  LIG1       -0.0533
     33 H           7.8608    2.8911   -1.1749 H       1  LIG1        0.0624
     34 C           7.7248   -1.2415    0.8978 C.1     1  LIG1       -0.0690
     35 C           7.2056   -2.2006    1.4032 C.1     1  LIG1       -0.1139
     36 H           6.7390   -3.0455    1.8545 H       1  LIG1        0.1232
     37 H          10.3301    2.9090   -1.1619 H       1  LIG1        0.0624
     38 C          12.7673    2.0136    0.2637 C.ar    1  LIG1        0.0324
     39 C          14.1641    1.9379    0.2358 C.ar    1  LIG1       -0.0457
     40 C          11.9948    0.9517   -0.2375 C.ar    1  LIG1       -0.0025
     41 C          14.7996    0.8172   -0.2825 C.ar    1  LIG1       -0.0606
     42 H          14.7361    2.7651    0.6334 H       1  LIG1        0.0630
     43 C          12.6512   -0.1672   -0.7543 C.ar    1  LIG1       -0.0529
     44 C          14.0399   -0.2394   -0.7782 C.ar    1  LIG1       -0.0611
     45 H          12.0578   -0.9788   -1.1562 H       1  LIG1        0.0624
     46 H          15.8802    0.7683   -0.2987 H       1  LIG1        0.0618
     47 C          12.1552    3.1869    0.8472 C.1     1  LIG1       -0.0691
     48 C          11.6832    4.1735    1.3458 C.1     1  LIG1       -0.1139
     49 H          11.2559    5.0410    1.7927 H       1  LIG1        0.1232
     50 H          14.5257   -1.1148   -1.1881 H       1  LIG1        0.0618
@<TRIPOS>BOND
     1     8     6    1
     2    13     7    1
     3    50    44    1
     4    21    19    1
     5    33    31    1
     6    37    32    1
     7    45    43    1
     8    25    20    1
     9     6     7   ar
    10     6     3   ar
    11     7     4   ar
    12    44    43   ar
    13    44    41   ar
    14    19    20   ar
    15    19    16   ar
    16    43    40   ar
    17    31    32   ar
    18    31    28   ar
    19    32    29   ar
    20    20    17   ar
    21     9     3    1
    22     3     1   ar
    23     4    16    1
    24     4     2   ar
    25    16    14   ar
    26    46    41    1
    27    41    39   ar
    28    40    29    1
    29    40    38   ar
    30    17    28    1
    31    17    15   ar
    32    28    26   ar
    33    29    27   ar
    34     1     2   ar
    35     1    10    1
    36     2     5    1
    37    14    15   ar
    38    14    22    1
    39    15    18    1
    40    39    38   ar
    41    39    42    1
    42    38    47    1
    43    27    26   ar
    44    27    30    1
    45    26    34    1
    46    10    11    3
    47    22    23    3
    48    47    48    3
    49    34    35    3
    50    11    12    1
    51    23    24    1
    52    48    49    1
    53    35    36    1
