@<TRIPOS>MOLECULE
mol_data/opt/m06hf/geoms/mol2/4ea4ih-12ee-12al.out
 51 54 0 0 0
SMALL
GASTEIGER

@<TRIPOS>ATOM
      1 C          -0.1723    0.3779   -0.7920 C.ar    1  LIG1        0.0253
      2 C           1.2238    0.4247   -0.8113 C.ar    1  LIG1       -0.0386
      3 C          -0.8726    0.8174    0.3366 C.ar    1  LIG1       -0.0463
      4 C           1.9263    0.9093    0.2912 C.ar    1  LIG1       -0.0164
      5 H           1.7570    0.0965   -1.6941 H       1  LIG1        0.0636
      6 C          -0.1725    1.3025    1.4342 C.ar    1  LIG1       -0.0600
      7 C           1.2194    1.3505    1.4125 C.ar    1  LIG1       -0.0539
      8 H          -0.7110    1.6419    2.3092 H       1  LIG1        0.0618
      9 H          -1.9531    0.7751    0.3393 H       1  LIG1        0.0630
     10 C          -0.8911   -0.1211   -1.9431 C.1     1  LIG1       -0.0696
     11 C          -1.4865   -0.5348   -2.9011 C.1     1  LIG1       -0.1139
     12 H          -2.0112   -0.9003   -3.7529 H       1  LIG1        0.1232
     13 H           1.7696    1.7202    2.2691 H       1  LIG1        0.0624
     14 C           4.1989   -0.1925    0.1720 C.ar    1  LIG1       -0.0420
     15 C           5.5779   -0.0402    0.1716 C.ar    1  LIG1       -0.0458
     16 C           3.4221    0.9745    0.2724 C.ar    1  LIG1       -0.0132
     17 C           6.2025    1.2085    0.2703 C.ar    1  LIG1        0.0394
     18 H           6.2064   -0.9192    0.0982 H       1  LIG1        0.0628
     19 C           4.0259    2.2215    0.3650 C.ar    1  LIG1       -0.0324
     20 C           5.4200    2.3786    0.3620 C.ar    1  LIG1        0.0360
     21 H           3.3993    3.1036    0.4324 H       1  LIG1        0.0642
     22 C           3.5788   -1.5773    0.0948 C.3     1  LIG1       -0.0391
     23 H           4.3143   -2.3245    0.3924 H       1  LIG1        0.0278
     24 H           3.2461   -1.8096   -0.9186 H       1  LIG1        0.0278
     25 H           2.7157   -1.6480    0.7576 H       1  LIG1        0.0278
     26 N           5.9638    3.6402    0.5069 N.pl3   1  LIG1       -0.3574
     27 H           6.8931    3.7976    0.1490 H       1  LIG1        0.1423
     28 H           5.3255    4.4085    0.3740 H       1  LIG1        0.1423
     29 C           7.6683    1.2525    0.3109 C.ar    1  LIG1        0.1541
     30 C           8.6198    0.3732    0.7537 C.ar    1  LIG1        0.0865
     31 C           9.9015    1.0027    0.5096 C.ar    1  LIG1        0.0894
     32 C           9.6191    2.2118   -0.0516 C.ar    1  LIG1        0.1872
     33 O           8.2862    2.3547   -0.1779 O.2     1  LIG1       -0.4491
     34 C           8.4290   -0.9004    1.3743 C.1     1  LIG1       -0.0646
     35 C           8.2899   -1.9718    1.8999 C.1     1  LIG1       -0.1138
     36 H           8.1691   -2.9177    2.3750 H       1  LIG1        0.1232
     37 C          11.1939    0.4763    0.8127 C.1     1  LIG1       -0.0645
     38 C          12.2790    0.0287    1.0698 C.1     1  LIG1       -0.1138
     39 H          13.2328   -0.3831    1.3062 H       1  LIG1        0.1232
     40 C          10.4474    3.3139   -0.5024 C.ar    1  LIG1        0.1746
     41 C          11.7986    3.4740   -0.5681 C.ar    1  LIG1        0.0291
     42 C          11.9865    4.7972   -1.1007 C.ar    1  LIG1        0.1583
     43 C          10.7473    5.3160   -1.3083 C.ar    1  LIG1        0.1342
     44 O           9.8090    4.4117   -0.9424 O.2     1  LIG1       -0.4560
     45 H          10.4093    6.2611   -1.6898 H       1  LIG1        0.1068
     46 H          12.5344    2.7452   -0.2758 H       1  LIG1        0.0693
     47 O          13.1408    5.4503   -1.3666 O.3     1  LIG1       -0.4919
     48 C          14.3282    4.7720   -0.9969 C.3     1  LIG1        0.0789
     49 H          15.1475    5.4393   -1.2492 H       1  LIG1        0.0660
     50 H          14.3334    4.5665    0.0763 H       1  LIG1        0.0660
     51 H          14.4267    3.8381   -1.5562 H       1  LIG1        0.0660
@<TRIPOS>BOND
     1    12    11    1
     2    11    10    3
     3    10     1    1
     4     5     2    1
     5    45    43    1
     6    51    48    1
     7    47    42    1
     8    47    48    1
     9    43    42   ar
    10    43    44   ar
    11    49    48    1
    12    42    41   ar
    13    48    50    1
    14    44    40   ar
    15    24    22    1
    16     2     1   ar
    17     2     4   ar
    18     1     3   ar
    19    41    40   ar
    20    41    46    1
    21    40    32    1
    22    33    32   ar
    23    33    29   ar
    24    32    31   ar
    25    22    14    1
    26    22    23    1
    27    22    25    1
    28    18    15    1
    29    27    26    1
    30    15    14   ar
    31    15    17   ar
    32    14    16   ar
    33    17    29    1
    34    17    20   ar
    35    16     4    1
    36    16    19   ar
    37     4     7   ar
    38    29    30   ar
    39     3     9    1
    40     3     6   ar
    41    20    19   ar
    42    20    26    1
    43    19    21    1
    44    28    26    1
    45    31    30   ar
    46    31    37    1
    47    30    34    1
    48    37    38    3
    49    38    39    1
    50    34    35    3
    51     7     6   ar
    52     7    13    1
    53     6     8    1
    54    35    36    1
