@<TRIPOS>MOLECULE
mol_data/opt/m06hf/geoms/mol2/4ea6di-13he-6ef.out
 51 54 0 0 0
SMALL
GASTEIGER

@<TRIPOS>ATOM
      1 C          -0.1746    0.2463   -0.2787 C.ar    1  LIG1        0.0253
      2 C           1.2201    0.1814   -0.3141 C.ar    1  LIG1       -0.0385
      3 C          -0.8066    1.3657    0.2707 C.ar    1  LIG1       -0.0463
      4 C           1.9838    1.2293    0.1987 C.ar    1  LIG1       -0.0140
      5 H           1.7015   -0.6798   -0.7592 H       1  LIG1        0.0636
      6 C          -0.0431    2.4089    0.7809 C.ar    1  LIG1       -0.0600
      7 C           1.3463    2.3444    0.7494 C.ar    1  LIG1       -0.0539
      8 H          -0.5301    3.2741    1.2095 H       1  LIG1        0.0618
      9 H          -1.8872    1.4064    0.2909 H       1  LIG1        0.0630
     10 C          -0.9605   -0.8414   -0.8151 C.1     1  LIG1       -0.0696
     11 C          -1.6189   -1.7431   -1.2586 C.1     1  LIG1       -0.1139
     12 H          -2.2046   -2.5406   -1.6535 H       1  LIG1        0.1232
     13 H           1.9349    3.1535    1.1624 H       1  LIG1        0.0624
     14 C           4.3007    2.1499   -0.2847 C.ar    1  LIG1        0.1484
     15 C           3.4697    1.1265    0.1758 C.ar    1  LIG1        0.0183
     16 C           4.1248   -0.0140    0.6490 C.ar    1  LIG1       -0.0463
     17 C           5.5108   -0.1249    0.6431 C.ar    1  LIG1       -0.0223
     18 C           6.2288    0.9549    0.0866 C.ar    1  LIG1        0.0933
     19 N           5.6228    2.0664   -0.3337 N.ar    1  LIG1       -0.2339
     20 H           3.5294   -0.8121    1.0778 H       1  LIG1        0.0628
     21 N           3.3770    4.4291   -1.1525 N.1     1  LIG1       -0.1893
     22 C           3.7598    3.4161   -0.7744 C.1     1  LIG1        0.1197
     23 C           6.2001   -1.2975    1.3030 C.3     1  LIG1       -0.0376
     24 H           6.9866   -0.9256    1.9627 H       1  LIG1        0.0278
     25 H           6.6875   -1.9403    0.5712 H       1  LIG1        0.0278
     26 H           5.4764   -1.8683    1.8832 H       1  LIG1        0.0278
     27 C           7.6972    1.0240   -0.0102 C.ar    1  LIG1        0.0878
     28 C           8.7202    0.1263   -0.2771 C.ar    1  LIG1        0.0679
     29 C           9.9292    0.8805   -0.3139 C.ar    1  LIG1        0.0713
     30 C           9.5951    2.2203   -0.0980 C.ar    1  LIG1        0.0672
     31 N           8.2609    2.2664    0.0661 N.ar    1  LIG1       -0.3504
     32 H           7.7081    3.1126    0.1454 H       1  LIG1        0.1660
     33 N           8.6201   -1.2537   -0.5409 N.pl3   1  LIG1       -0.3553
     34 H           8.0696   -1.4320   -1.3758 H       1  LIG1        0.1424
     35 H           9.5461   -1.6518   -0.6644 H       1  LIG1        0.1424
     36 C          11.2061    0.3057   -0.6031 C.1     1  LIG1       -0.0657
     37 C          12.2552   -0.2295   -0.8534 C.1     1  LIG1       -0.1138
     38 H          13.1894   -0.6879   -1.0814 H       1  LIG1        0.1232
     39 C           9.9800    4.7198   -0.3288 C.ar    1  LIG1        0.1225
     40 C          10.4531    3.4181   -0.0547 C.ar    1  LIG1        0.0368
     41 C          11.8002    3.2744    0.2724 C.ar    1  LIG1       -0.0069
     42 C          12.6143    4.3971    0.2998 C.ar    1  LIG1        0.1356
     43 C          12.0500    5.6424    0.0150 C.ar    1  LIG1        0.0704
     44 N          10.7711    5.7911   -0.2867 N.ar    1  LIG1       -0.2424
     45 H          12.2217    2.3057    0.5042 H       1  LIG1        0.0662
     46 H          12.6567    6.5426    0.0343 H       1  LIG1        0.0867
     47 C           8.5963    4.9821   -0.6842 C.1     1  LIG1       -0.0491
     48 C           7.4465    5.1890   -0.9711 C.1     1  LIG1       -0.1124
     49 H           6.4255    5.3592   -1.2335 H       1  LIG1        0.1232
     50 O          13.9224    4.2393    0.6147 O.3     1  LIG1       -0.5052
     51 H          14.3847    5.0844    0.6012 H       1  LIG1        0.2922
@<TRIPOS>BOND
     1    12    11    1
     2    34    33    1
     3    11    10    3
     4    49    48    1
     5    21    22    3
     6    38    37    1
     7    48    47    3
     8    37    36    3
     9    10     1    1
    10    22    14    1
    11     5     2    1
    12    47    39    1
    13    35    33    1
    14    36    29    1
    15    33    28    1
    16    19    14   ar
    17    19    18   ar
    18    39    44   ar
    19    39    40   ar
    20     2     1   ar
    21     2     4   ar
    22    29    28   ar
    23    29    30   ar
    24    44    43   ar
    25    14    15   ar
    26     1     3   ar
    27    28    27   ar
    28    30    40    1
    29    30    31   ar
    30    40    41   ar
    31    27    31   ar
    32    27    18    1
    33    43    46    1
    34    43    42   ar
    35    31    32    1
    36    18    17   ar
    37    15     4    1
    38    15    16   ar
    39     4     7   ar
    40     3     9    1
    41     3     6   ar
    42    41    42   ar
    43    41    45    1
    44    42    50    1
    45    25    23    1
    46    51    50    1
    47    17    16   ar
    48    17    23    1
    49    16    20    1
    50     7     6   ar
    51     7    13    1
    52     6     8    1
    53    23    26    1
    54    23    24    1
