@<TRIPOS>MOLECULE
mol_data/opt/m06hf/geoms/mol2/4ed13ie-13ai-13ai.out
 50 53 0 0 0
SMALL
GASTEIGER

@<TRIPOS>ATOM
      1 C          -0.0913    0.0734   -0.6038 C.ar    1  LIG1        0.0254
      2 C           1.3016    0.0433   -0.5316 C.ar    1  LIG1       -0.0360
      3 C          -0.7946    1.2376   -0.2718 C.ar    1  LIG1       -0.0451
      4 C           2.0255    1.1602   -0.1083 C.ar    1  LIG1        0.0171
      5 H           1.8304   -0.8509   -0.8300 H       1  LIG1        0.0637
      6 C          -0.0935    2.3626    0.1298 C.ar    1  LIG1       -0.0426
      7 C           1.2996    2.3226    0.2162 C.ar    1  LIG1        0.0609
      8 H          -0.6127    3.2757    0.3867 H       1  LIG1        0.0631
      9 H          -1.8731    1.2496   -0.3385 H       1  LIG1        0.0630
     10 C          -0.8076   -1.1004   -1.0448 C.1     1  LIG1       -0.0696
     11 C          -1.4010   -2.0766   -1.4157 C.1     1  LIG1       -0.1139
     12 H          -1.9258   -2.9430   -1.7469 H       1  LIG1        0.1232
     13 N           2.5564    4.4733    0.9587 N.1     1  LIG1       -0.1908
     14 C           1.9904    3.5217    0.6517 C.1     1  LIG1        0.0998
     15 C           3.4894    1.0850    0.0002 C.ar    1  LIG1        0.0524
     16 C           4.2987    0.0443    0.4146 C.ar    1  LIG1       -0.0091
     17 C           5.6370    0.5428    0.4018 C.ar    1  LIG1        0.0548
     18 C           5.5950    1.8650   -0.0181 C.ar    1  LIG1        0.0792
     19 N           4.2966    2.1655   -0.2620 N.ar    1  LIG1       -0.3518
     20 H           3.9864    3.0330   -0.6733 H       1  LIG1        0.1660
     21 C           3.9014   -1.3337    0.8792 C.3     1  LIG1       -0.0365
     22 H           4.6136   -1.6727    1.6312 H       1  LIG1        0.0279
     23 H           3.9197   -2.0455    0.0511 H       1  LIG1        0.0279
     24 H           2.9016   -1.3227    1.3145 H       1  LIG1        0.0279
     25 C           6.8064   -0.1744    0.8112 C.1     1  LIG1       -0.0672
     26 C           7.7777   -0.7919    1.1615 C.1     1  LIG1       -0.1138
     27 H           8.6405   -1.3313    1.4761 H       1  LIG1        0.1232
     28 C           6.6374    2.8739   -0.1548 C.ar    1  LIG1        0.0648
     29 C           7.9636    2.7726   -0.5129 C.ar    1  LIG1       -0.0314
     30 C           8.5174    4.0821   -0.4927 C.ar    1  LIG1       -0.0231
     31 C           7.4990    4.9407   -0.1228 C.ar    1  LIG1        0.0663
     32 N           6.3664    4.1965    0.0781 N.ar    1  LIG1       -0.3516
     33 H           5.4805    4.5690    0.3908 H       1  LIG1        0.1660
     34 H           8.4693    1.8537   -0.7608 H       1  LIG1        0.0642
     35 C           9.9430    4.4701   -0.7962 C.3     1  LIG1       -0.0376
     36 H          10.1504    5.4631   -0.3969 H       1  LIG1        0.0278
     37 H          10.1244    4.4845   -1.8728 H       1  LIG1        0.0278
     38 H          10.6298    3.7547   -0.3431 H       1  LIG1        0.0278
     39 C           7.5029    6.3929    0.0696 C.ar    1  LIG1        0.0634
     40 C           8.0054    7.4036   -0.7187 C.ar    1  LIG1       -0.0321
     41 C           7.7334    8.6428   -0.0649 C.ar    1  LIG1       -0.0325
     42 C           7.0692    8.3334    1.0974 C.ar    1  LIG1        0.0051
     43 N           6.9304    6.9762    1.1698 N.ar    1  LIG1       -0.3593
     44 H           6.5656    6.4669    1.9588 H       1  LIG1        0.1654
     45 H           6.6897    8.9778    1.8724 H       1  LIG1        0.0809
     46 H           8.4859    7.2642   -1.6739 H       1  LIG1        0.0642
     47 C           8.0883   10.0241   -0.5585 C.3     1  LIG1       -0.0383
     48 H           7.7364   10.7797    0.1442 H       1  LIG1        0.0278
     49 H           7.6286   10.2159   -1.5290 H       1  LIG1        0.0278
     50 H           9.1690   10.1297   -0.6653 H       1  LIG1        0.0278
@<TRIPOS>BOND
     1    37    35    1
     2    12    11    1
     3    46    40    1
     4    49    47    1
     5    11    10    3
     6    10     1    1
     7     5     2    1
     8    35    30    1
     9    35    36    1
    10    35    38    1
    11    34    29    1
    12    40    41   ar
    13    40    39   ar
    14    20    19    1
    15    50    47    1
    16     1     2   ar
    17     1     3   ar
    18    47    41    1
    19    47    48    1
    20     2     4   ar
    21    29    30   ar
    22    29    28   ar
    23    30    31   ar
    24     9     3    1
    25     3     6   ar
    26    19    18   ar
    27    19    15   ar
    28    28    18    1
    29    28    32   ar
    30    31    39    1
    31    31    32   ar
    32     4    15    1
    33     4     7   ar
    34    41    42   ar
    35    18    17   ar
    36    15    16   ar
    37    23    21    1
    38    39    43   ar
    39    32    33    1
    40     6     7   ar
    41     6     8    1
    42     7    14    1
    43    17    16   ar
    44    17    25    1
    45    16    21    1
    46    14    13    3
    47    25    26    3
    48    21    24    1
    49    21    22    1
    50    42    43   ar
    51    42    45    1
    52    26    27    1
    53    43    44    1
