@<TRIPOS>MOLECULE
mol_data/opt/m06hf/geoms/mol2/4ed12ee-6ih-6il.out
 56 59 0 0 0
SMALL
GASTEIGER

@<TRIPOS>ATOM
      1 C          -0.0505   -0.2177    0.5052 C.ar    1  LIG1        0.0254
      2 C           1.3360   -0.0890    0.4154 C.ar    1  LIG1       -0.0344
      3 C          -0.8853    0.7963    0.0239 C.ar    1  LIG1       -0.0451
      4 C           1.9058    1.0446   -0.1635 C.ar    1  LIG1        0.0370
      5 H           1.9712   -0.8720    0.8054 H       1  LIG1        0.0637
      6 C          -0.3276    1.9283   -0.5494 C.ar    1  LIG1       -0.0425
      7 C           1.0594    2.0550   -0.6483 C.ar    1  LIG1        0.0625
      8 H          -0.9549    2.7212   -0.9324 H       1  LIG1        0.0631
      9 H          -1.9578    0.6876    0.1037 H       1  LIG1        0.0630
     10 C          -0.6218   -1.3973    1.1107 C.1     1  LIG1       -0.0696
     11 C          -1.0991   -2.3764    1.6169 C.1     1  LIG1       -0.1139
     12 H          -1.5215   -3.2448    2.0676 H       1  LIG1        0.1232
     13 N           1.9119    4.2102   -1.8180 N.1     1  LIG1       -0.1908
     14 C           1.5717    3.2487   -1.2918 C.1     1  LIG1        0.0999
     15 C           3.3693    1.1468   -0.2396 C.ar    1  LIG1        0.1535
     16 C           4.3542    0.2033   -0.3180 C.ar    1  LIG1        0.0864
     17 C           5.5997    0.9342   -0.3361 C.ar    1  LIG1        0.0864
     18 C           5.2642    2.2609   -0.2745 C.ar    1  LIG1        0.1540
     19 O           3.9232    2.3732   -0.2154 O.2     1  LIG1       -0.4522
     20 C           4.2136   -1.2180   -0.3877 C.1     1  LIG1       -0.0646
     21 C           4.1080   -2.4133   -0.4448 C.1     1  LIG1       -0.1138
     22 H           4.0192   -3.4740   -0.5014 H       1  LIG1        0.1232
     23 C           6.9038    0.3503   -0.3856 C.1     1  LIG1       -0.0646
     24 C           7.9907   -0.1601   -0.4253 C.1     1  LIG1       -0.1138
     25 H           8.9528   -0.6171   -0.4497 H       1  LIG1        0.1232
     26 C           5.6749    4.6645    0.3753 C.ar    1  LIG1        0.0497
     27 C           6.0810    3.4823   -0.2714 C.ar    1  LIG1        0.0413
     28 C           7.3081    3.4558   -0.9274 C.ar    1  LIG1       -0.0265
     29 C           8.1296    4.5800   -0.9207 C.ar    1  LIG1        0.0516
     30 C           7.6626    5.7064   -0.2184 C.ar    1  LIG1        0.0937
     31 N           6.4762    5.7245    0.3827 N.ar    1  LIG1       -0.2493
     32 H           7.6224    2.5600   -1.4495 H       1  LIG1        0.0644
     33 C           4.3510    4.8251    1.0952 C.3     1  LIG1       -0.0216
     34 H           4.1721    3.9943    1.7791 H       1  LIG1        0.0293
     35 H           3.5311    4.8649    0.3770 H       1  LIG1        0.0293
     36 H           4.3995    5.7584    1.6511 H       1  LIG1        0.0293
     37 N           9.3731    4.5699   -1.5575 N.pl3   1  LIG1       -0.3563
     38 H           9.4542    3.8708   -2.2834 H       1  LIG1        0.1424
     39 H           9.6831    5.4810   -1.8732 H       1  LIG1        0.1424
     40 C           7.9753    8.2083   -0.3871 C.ar    1  LIG1        0.0477
     41 C           8.4979    6.9410   -0.1044 C.ar    1  LIG1        0.0266
     42 C           9.8244    6.8229    0.3257 C.ar    1  LIG1       -0.0075
     43 C          10.5866    7.9745    0.4635 C.ar    1  LIG1        0.1387
     44 C           9.9828    9.1992    0.1597 C.ar    1  LIG1        0.0695
     45 N           8.7300    9.3053   -0.2503 N.ar    1  LIG1       -0.2559
     46 H          10.2217    5.8398    0.5442 H       1  LIG1        0.0662
     47 H          10.5642   10.1078    0.2619 H       1  LIG1        0.0867
     48 C           6.5513    8.4256   -0.8563 C.3     1  LIG1       -0.0217
     49 H           5.8625    8.3066   -0.0200 H       1  LIG1        0.0293
     50 H           6.2760    7.6977   -1.6203 H       1  LIG1        0.0293
     51 H           6.4840    9.4351   -1.2554 H       1  LIG1        0.0293
     52 O          11.8797    8.0141    0.8698 O.3     1  LIG1       -0.4936
     53 C          12.4937    6.7821    1.1978 C.3     1  LIG1        0.0789
     54 H          13.5078    7.0260    1.5014 H       1  LIG1        0.0660
     55 H          11.9666    6.2958    2.0227 H       1  LIG1        0.0660
     56 H          12.5153    6.1178    0.3297 H       1  LIG1        0.0660
@<TRIPOS>BOND
     1    38    37    1
     2    39    37    1
     3    13    14    3
     4    50    48    1
     5    37    29    1
     6    32    28    1
     7    14     7    1
     8    51    48    1
     9     8     6    1
    10    28    29   ar
    11    28    27   ar
    12    29    30   ar
    13    48    40    1
    14    48    49    1
    15     7     6   ar
    16     7     4   ar
    17     6     3   ar
    18    22    21    1
    19    25    24    1
    20    21    20    3
    21    24    23    3
    22    20    16    1
    23    40    45   ar
    24    40    41   ar
    25    23    17    1
    26    17    16   ar
    27    17    18   ar
    28    16    15   ar
    29    18    27    1
    30    18    19   ar
    31    27    26   ar
    32    45    44   ar
    33    15    19   ar
    34    15     4    1
    35    30    41    1
    36    30    31   ar
    37     4     2   ar
    38    41    42   ar
    39     3     9    1
    40     3     1   ar
    41    44    47    1
    42    44    43   ar
    43    42    43   ar
    44    42    46    1
    45    56    53    1
    46    26    31   ar
    47    26    33    1
    48    35    33    1
    49     2     1   ar
    50     2     5    1
    51    43    52    1
    52     1    10    1
    53    52    53    1
    54    33    36    1
    55    33    34    1
    56    10    11    3
    57    53    54    1
    58    53    55    1
    59    11    12    1
