@<TRIPOS>MOLECULE
mol_data/opt/m06hf/geoms/mol2/4ed13dl-13li-4ll.out
 61 64 0 0 0
SMALL
GASTEIGER

@<TRIPOS>ATOM
      1 C          -0.4963    0.0291    0.5277 C.ar    1  LIG1        0.0254
      2 C           0.8930   -0.0615    0.4362 C.ar    1  LIG1       -0.0359
      3 C          -1.1472    1.2474    0.3002 C.ar    1  LIG1       -0.0451
      4 C           1.6628    1.0552    0.1017 C.ar    1  LIG1        0.0182
      5 H           1.3709   -1.0117    0.6302 H       1  LIG1        0.0637
      6 C          -0.3992    2.3667   -0.0221 C.ar    1  LIG1       -0.0426
      7 C           0.9903    2.2713   -0.1257 C.ar    1  LIG1        0.0610
      8 H          -0.8764    3.3198   -0.2025 H       1  LIG1        0.0631
      9 H          -2.2235    1.3027    0.3793 H       1  LIG1        0.0630
     10 C          -1.2659   -1.1419    0.8730 C.1     1  LIG1       -0.0696
     11 C          -1.9100   -2.1144    1.1587 C.1     1  LIG1       -0.1139
     12 H          -2.4745   -2.9829    1.4108 H       1  LIG1        0.1232
     13 N           2.3209    4.4253   -0.7097 N.1     1  LIG1       -0.1908
     14 C           1.7198    3.4749   -0.4728 C.1     1  LIG1        0.0998
     15 C           3.1249    0.9217   -0.0100 C.ar    1  LIG1        0.0695
     16 C           3.9056   -0.1862   -0.3232 C.ar    1  LIG1        0.1192
     17 C           5.2665    0.2260   -0.3253 C.ar    1  LIG1        0.1647
     18 C           5.2866    1.5751   -0.0195 C.ar    1  LIG1        0.1105
     19 N           3.9867    1.9556    0.1726 N.ar    1  LIG1       -0.3489
     20 H           3.7169    2.8758    0.4882 H       1  LIG1        0.1661
     21 N           3.0845   -2.5643   -0.8929 N.1     1  LIG1       -0.1907
     22 C           3.4538   -1.5056   -0.6452 C.1     1  LIG1        0.1050
     23 O           6.3156   -0.5940   -0.5588 O.3     1  LIG1       -0.4916
     24 C           7.0403   -0.3165   -1.7619 C.3     1  LIG1        0.0789
     25 H           7.8707   -1.0171   -1.7741 H       1  LIG1        0.0660
     26 H           6.3897   -0.4768   -2.6231 H       1  LIG1        0.0660
     27 H           7.4189    0.7051   -1.7458 H       1  LIG1        0.0660
     28 C           6.3733    2.5366    0.0700 C.ar    1  LIG1        0.1095
     29 C           7.7208    2.3695    0.3280 C.ar    1  LIG1        0.1503
     30 C           8.3524    3.6420    0.2969 C.ar    1  LIG1        0.0173
     31 C           7.3577    4.5565    0.0097 C.ar    1  LIG1        0.0571
     32 N           6.1700    3.8826   -0.1081 N.ar    1  LIG1       -0.3497
     33 H           5.3333    4.2988   -0.4941 H       1  LIG1        0.1661
     34 O           8.3719    1.1945    0.5589 O.3     1  LIG1       -0.4927
     35 C           8.0229    0.5523    1.7836 C.3     1  LIG1        0.0789
     36 H           8.6434   -0.3380    1.8466 H       1  LIG1        0.0660
     37 H           8.2293    1.2206    2.6228 H       1  LIG1        0.0660
     38 H           6.9714    0.2647    1.7785 H       1  LIG1        0.0660
     39 C           9.8117    3.8794    0.5816 C.3     1  LIG1       -0.0342
     40 H           9.9581    4.8673    1.0184 H       1  LIG1        0.0279
     41 H          10.3922    3.8203   -0.3398 H       1  LIG1        0.0279
     42 H          10.1703    3.1174    1.2740 H       1  LIG1        0.0279
     43 C           8.4005    6.6767   -0.8403 C.ar    1  LIG1        0.1294
     44 C           8.4062    8.0619   -0.9189 C.ar    1  LIG1       -0.0158
     45 C           7.3851    6.0275   -0.1077 C.ar    1  LIG1        0.0437
     46 C           7.4033    8.8200   -0.3031 C.ar    1  LIG1       -0.0165
     47 H           9.1787    8.5781   -1.4704 H       1  LIG1        0.0655
     48 C           6.3928    6.7879    0.4940 C.ar    1  LIG1       -0.0073
     49 C           6.3886    8.1835    0.3978 C.ar    1  LIG1        0.1209
     50 H           5.6135    6.3144    1.0772 H       1  LIG1        0.0662
     51 H           7.4383    9.8965   -0.3884 H       1  LIG1        0.0655
     52 O           9.3147    5.8770   -1.4480 O.3     1  LIG1       -0.4945
     53 C          10.3995    6.4919   -2.1112 C.3     1  LIG1        0.0788
     54 H          11.0211    5.6792   -2.4783 H       1  LIG1        0.0660
     55 H          10.0499    7.0951   -2.9532 H       1  LIG1        0.0660
     56 H          10.9733    7.1144   -1.4192 H       1  LIG1        0.0660
     57 O           5.3680    8.8195    1.0344 O.3     1  LIG1       -0.4951
     58 C           5.3627   10.2320    1.0118 C.3     1  LIG1        0.0788
     59 H           4.4949   10.5377    1.5894 H       1  LIG1        0.0660
     60 H           6.2717   10.6299    1.4713 H       1  LIG1        0.0660
     61 H           5.2723   10.6033   -0.0124 H       1  LIG1        0.0660
@<TRIPOS>BOND
     1    55    53    1
     2    26    24    1
     3    54    53    1
     4    53    52    1
     5    53    56    1
     6    25    24    1
     7    24    27    1
     8    24    23    1
     9    47    44    1
    10    52    43    1
    11    44    43   ar
    12    44    46   ar
    13    21    22    3
    14    43    45   ar
    15    13    14    3
    16    22    16    1
    17    23    17    1
    18    33    32    1
    19    14     7    1
    20    51    46    1
    21    41    39    1
    22    17    16   ar
    23    17    18   ar
    24    16    15   ar
    25    46    49   ar
    26     8     6    1
    27     7     6   ar
    28     7     4   ar
    29    32    31   ar
    30    32    28   ar
    31    45    31    1
    32    45    48   ar
    33     6     3   ar
    34    18    28    1
    35    18    19   ar
    36    61    58    1
    37    15     4    1
    38    15    19   ar
    39    31    30   ar
    40    28    29   ar
    41     4     2   ar
    42    19    20    1
    43    30    29   ar
    44    30    39    1
    45     3     9    1
    46     3     1   ar
    47    29    34    1
    48    49    48   ar
    49    49    57    1
    50     2     1   ar
    51     2     5    1
    52    48    50    1
    53     1    10    1
    54    34    35    1
    55    39    40    1
    56    39    42    1
    57    10    11    3
    58    58    57    1
    59    58    60    1
    60    58    59    1
    61    11    12    1
    62    38    35    1
    63    35    36    1
    64    35    37    1
