@<TRIPOS>MOLECULE
mol_data/opt/m06hf/geoms/mol2/4ed6ld-13ff-13fe6ie6ee4fe6lf-.out
 104 111 0 0 0
SMALL
GASTEIGER

@<TRIPOS>ATOM
      1 C          -0.3144   -0.2011   -0.1725 C.ar    1  LIG1        0.0253
      2 C           1.0271   -0.0046   -0.5143 C.ar    1  LIG1       -0.0372
      3 C          -0.6966   -0.2489    1.1706 C.ar    1  LIG1       -0.0451
      4 C           1.9996    0.1375    0.4705 C.ar    1  LIG1        0.0058
      5 H           1.3069    0.0533   -1.5578 H       1  LIG1        0.0636
      6 C           0.2631   -0.1064    2.1628 C.ar    1  LIG1       -0.0426
      7 C           1.6001    0.0827    1.8154 C.ar    1  LIG1        0.0597
      8 H          -0.0116   -0.1494    3.2075 H       1  LIG1        0.0631
      9 H          -1.7364   -0.3981    1.4248 H       1  LIG1        0.0630
     10 C          -1.3034   -0.3478   -1.2139 C.1     1  LIG1       -0.0696
     11 C          -2.1243   -0.4727   -2.0816 C.1     1  LIG1       -0.1139
     12 H          -2.8517   -0.5851   -2.8524 H       1  LIG1        0.1232
     13 N           3.3476    0.2659    3.7288 N.1     1  LIG1       -0.1909
     14 C           2.5831    0.1899    2.8759 C.1     1  LIG1        0.0998
     15 C           4.2160    1.3623    0.5960 C.ar    1  LIG1        0.2231
     16 C           3.4272    0.3009    0.0887 C.ar    1  LIG1        0.0462
     17 C           4.0530   -0.5562   -0.7911 C.ar    1  LIG1       -0.0294
     18 C           5.4104   -0.3934   -1.1077 C.ar    1  LIG1        0.0800
     19 C           6.1257    0.6240   -0.4666 C.ar    1  LIG1        0.1119
     20 N           5.4977    1.4951    0.3461 N.ar    1  LIG1       -0.2095
     21 H           3.5013   -1.3721   -1.2417 H       1  LIG1        0.0639
     22 O           3.5979    2.2606    1.3612 O.3     1  LIG1       -0.4792
     23 C           4.4103    3.1454    2.1313 C.3     1  LIG1        0.0804
     24 H           3.7143    3.6978    2.7548 H       1  LIG1        0.0660
     25 H           5.1024    2.5668    2.7424 H       1  LIG1        0.0660
     26 H           4.9588    3.8189    1.4733 H       1  LIG1        0.0660
     27 N           6.2981   -1.8998   -3.0147 N.1     1  LIG1       -0.1908
     28 C           5.9609   -1.2313   -2.1451 C.1     1  LIG1        0.1014
     29 C           7.5537    0.8694   -0.6128 C.ar    1  LIG1        0.1126
     30 C           8.6457    0.0781   -0.9324 C.ar    1  LIG1        0.1864
     31 C           9.8045    0.8757   -0.7851 C.ar    1  LIG1        0.1864
     32 C           9.3987    2.1241   -0.3553 C.ar    1  LIG1        0.1128
     33 N           8.0413    2.1059   -0.2538 N.ar    1  LIG1       -0.3458
     34 H           7.4538    2.7676    0.2329 H       1  LIG1        0.1662
     35 O           8.6485   -1.2224   -1.2833 O.3     1  LIG1       -0.5019
     36 H           9.5613   -1.4842   -1.4631 H       1  LIG1        0.2924
     37 O          11.0503    0.4151   -1.0790 O.3     1  LIG1       -0.5019
     38 H          11.6931    0.8055   -0.4644 H       1  LIG1        0.2924
     39 C          10.2315    3.2726   -0.0508 C.ar    1  LIG1        0.1103
     40 C          11.5246    3.2990    0.4076 C.ar    1  LIG1        0.1596
     41 C          11.9280    4.6563    0.5345 C.ar    1  LIG1        0.0920
     42 C          10.8435    5.4337    0.1475 C.ar    1  LIG1        0.0679
     43 N           9.8407    4.5829   -0.1975 N.ar    1  LIG1       -0.3490
     44 H           8.9895    4.8686   -0.6575 H       1  LIG1        0.1661
     45 O          12.2612    2.1926    0.7118 O.3     1  LIG1       -0.5034
     46 H          13.1347    2.4635    1.0229 H       1  LIG1        0.2923
     47 C          13.2069    5.0705    1.0205 C.1     1  LIG1       -0.0638
     48 C          14.3010    5.3574    1.4305 C.1     1  LIG1       -0.1137
     49 H          15.2639    5.6288    1.7974 H       1  LIG1        0.1232
     50 C           9.5873    7.6018    0.4869 C.ar    1  LIG1        0.0481
     51 C          10.7302    6.8999    0.0601 C.ar    1  LIG1        0.0218
     52 C          11.8001    7.6305   -0.4489 C.ar    1  LIG1       -0.0334
     53 C          11.7093    9.0177   -0.5436 C.ar    1  LIG1        0.0513
     54 C          10.5190    9.6270   -0.1146 C.ar    1  LIG1        0.0893
     55 N           9.5091    8.9253    0.3884 N.ar    1  LIG1       -0.2499
     56 H          12.6953    7.1245   -0.7859 H       1  LIG1        0.0637
     57 C           8.3781    6.9258    1.1043 C.3     1  LIG1       -0.0217
     58 H           8.6667    6.0447    1.6768 H       1  LIG1        0.0293
     59 H           7.6677    6.6352    0.3243 H       1  LIG1        0.0293
     60 H           7.8875    7.6534    1.7465 H       1  LIG1        0.0293
     61 C          12.8010    9.7784   -1.0987 C.1     1  LIG1       -0.0675
     62 C          13.7192   10.3973   -1.5650 C.1     1  LIG1       -0.1138
     63 H          14.5237   10.9578   -1.9826 H       1  LIG1        0.1232
     64 C           9.2047   11.6732   -0.7931 C.ar    1  LIG1        0.1231
     65 C          10.3310   11.1053   -0.1814 C.ar    1  LIG1        0.0366
     66 C          11.2532   11.9689    0.3975 C.ar    1  LIG1       -0.0324
     67 C          11.0417   13.3444    0.3499 C.ar    1  LIG1        0.0514
     68 C           9.8959   13.8160   -0.3191 C.ar    1  LIG1        0.0913
     69 N           9.0053   12.9904   -0.8544 N.ar    1  LIG1       -0.2364
     70 H          12.1265   11.5787    0.9030 H       1  LIG1        0.0638
     71 C           8.2012   10.8496   -1.4393 C.1     1  LIG1       -0.0491
     72 C           7.3681   10.1936   -2.0012 C.1     1  LIG1       -0.1124
     73 H           6.6225    9.6207   -2.5018 H       1  LIG1        0.1232
     74 C          11.9486   14.2295    1.0360 C.1     1  LIG1       -0.0675
     75 C          12.7068   14.9280    1.6529 C.1     1  LIG1       -0.1138
     76 H          13.3716   15.5532    2.2025 H       1  LIG1        0.1232
     77 C          10.4980   16.1798   -0.9562 C.ar    1  LIG1        0.1267
     78 C          10.1714   17.5322   -1.0389 C.ar    1  LIG1       -0.0105
     79 C           9.5818   15.2709   -0.4199 C.ar    1  LIG1        0.0442
     80 C           8.9306   17.9915   -0.6113 C.ar    1  LIG1        0.0062
     81 H          10.8746   18.2342   -1.4728 H       1  LIG1        0.0661
     82 C           8.3326   15.7292   -0.0168 C.ar    1  LIG1       -0.0330
     83 C           7.9953   17.0806   -0.0940 C.ar    1  LIG1        0.0334
     84 H           7.6153   15.0184    0.3711 H       1  LIG1        0.0638
     85 O          11.6735   15.6944   -1.4230 O.3     1  LIG1       -0.5061
     86 H          12.2568   16.4105   -1.6938 H       1  LIG1        0.2922
     87 C           6.7100   17.5249    0.3898 C.1     1  LIG1       -0.0690
     88 C           5.6426   17.8780    0.8155 C.1     1  LIG1       -0.1139
     89 H           4.6989   18.1908    1.1977 H       1  LIG1        0.1232
     90 C           7.5213   19.9139   -1.4467 C.ar    1  LIG1        0.2226
     91 C           8.6227   19.4465   -0.6919 C.ar    1  LIG1        0.0484
     92 C           9.3927   20.3874   -0.0400 C.ar    1  LIG1       -0.0058
     93 C           9.0479   21.7415   -0.1279 C.ar    1  LIG1        0.1357
     94 C           7.9323   22.0851   -0.8672 C.ar    1  LIG1        0.0728
     95 N           7.1877   21.1814   -1.5175 N.ar    1  LIG1       -0.2172
     96 H          10.2442   20.0930    0.5607 H       1  LIG1        0.0662
     97 H           7.6188   23.1207   -0.9506 H       1  LIG1        0.0868
     98 O           6.8137   18.9974   -2.1233 O.3     1  LIG1       -0.4792
     99 C           5.5667   19.4182   -2.6616 C.3     1  LIG1        0.0804
    100 H           5.1207   18.5221   -3.0834 H       1  LIG1        0.0660
    101 H           4.9392   19.8265   -1.8685 H       1  LIG1        0.0660
    102 H           5.7202   20.1773   -3.4280 H       1  LIG1        0.0660
    103 O           9.8249   22.6453    0.5358 O.3     1  LIG1       -0.5052
    104 H           9.4897   23.5384    0.4049 H       1  LIG1        0.2922
@<TRIPOS>BOND
     1   102    99    1
     2   100    99    1
     3    27    28    3
     4    12    11    1
     5    99    98    1
     6    99   101    1
     7    73    72    1
     8    28    18    1
     9    98    90    1
    10    11    10    3
    11    72    71    3
    12    63    62    1
    13    86    85    1
    14    62    61    3
    15     5     2    1
    16    95    90   ar
    17    95    94   ar
    18    81    78    1
    19    36    35    1
    20    90    91   ar
    21    71    64    1
    22    85    77    1
    23    35    30    1
    24    21    17    1
    25    10     1    1
    26    18    17   ar
    27    18    19   ar
    28    61    53    1
    29    37    31    1
    30    37    38    1
    31    78    77   ar
    32    78    80   ar
    33    77    79   ar
    34    97    94    1
    35    30    31   ar
    36    30    29   ar
    37    94    93   ar
    38    69    64   ar
    39    69    68   ar
    40    64    65   ar
    41    17    16   ar
    42    56    52    1
    43    31    32   ar
    44    91    80    1
    45    91    92   ar
    46    44    43    1
    47    29    19    1
    48    29    33   ar
    49    80    83   ar
    50    53    52   ar
    51    53    54   ar
    52     2     1   ar
    53     2     4   ar
    54    19    20   ar
    55    52    51   ar
    56    79    68    1
    57    79    82   ar
    58    32    33   ar
    59    32    39    1
    60    68    67   ar
    61    33    34    1
    62    43    39   ar
    63    43    42   ar
    64    65    54    1
    65    65    66   ar
    66     1     3   ar
    67    93    92   ar
    68    93   103    1
    69    54    55   ar
    70    83    82   ar
    71    83    87    1
    72    39    40   ar
    73    92    96    1
    74    82    84    1
    75    51    42    1
    76    51    50   ar
    77    16     4    1
    78    16    15   ar
    79    42    41   ar
    80    59    57    1
    81    20    15   ar
    82    67    66   ar
    83    67    74    1
    84    55    50   ar
    85    87    88    3
    86    66    70    1
    87   104   103    1
    88    40    41   ar
    89    40    45    1
    90     4     7   ar
    91    50    57    1
    92    41    47    1
    93    15    22    1
    94    45    46    1
    95    88    89    1
    96    47    48    3
    97    74    75    3
    98    57    58    1
    99    57    60    1
   100     3     9    1
   101     3     6   ar
   102    22    23    1
   103    48    49    1
   104    26    23    1
   105    75    76    1
   106     7     6   ar
   107     7    14    1
   108    23    25    1
   109    23    24    1
   110     6     8    1
   111    14    13    3
