@<TRIPOS>MOLECULE
mol_data/opt/m06hf/geoms/mol2/4ee.out
 16 16 0 0 0
SMALL
GASTEIGER

@<TRIPOS>ATOM
      1 C           0.0953    0.0346    0.0003 C.ar    1  LIG1        0.0248
      2 C           1.4941    0.0206   -0.0001 C.ar    1  LIG1       -0.0452
      3 C          -0.5910    1.2536    0.0003 C.ar    1  LIG1       -0.0452
      4 C           2.2003    1.2150   -0.0006 C.ar    1  LIG1       -0.0452
      5 H           2.0146   -0.9269   -0.0000 H       1  LIG1        0.0630
      6 C           0.1153    2.4479   -0.0002 C.ar    1  LIG1       -0.0452
      7 C           1.5141    2.4340   -0.0006 C.ar    1  LIG1        0.0248
      8 H          -0.4053    3.3954   -0.0002 H       1  LIG1        0.0630
      9 H           3.2814    1.2154   -0.0009 H       1  LIG1        0.0630
     10 H          -1.6721    1.2531    0.0006 H       1  LIG1        0.0630
     11 C          -0.6399   -1.2088    0.0008 C.1     1  LIG1       -0.0697
     12 C          -1.2519   -2.2429    0.0012 C.1     1  LIG1       -0.1139
     13 H          -1.7945   -3.1598    0.0014 H       1  LIG1        0.1232
     14 C           2.2493    3.6773   -0.0011 C.1     1  LIG1       -0.0697
     15 C           2.8609    4.7116   -0.0015 C.1     1  LIG1       -0.1139
     16 H           3.4033    5.6287   -0.0016 H       1  LIG1        0.1232
@<TRIPOS>BOND
     1    16    15    1
     2    15    14    3
     3    14     7    1
     4     9     4    1
     5     7     4   ar
     6     7     6   ar
     7     4     2   ar
     8     8     6    1
     9     6     3   ar
    10     2     5    1
    11     2     1   ar
    12     3     1   ar
    13     3    10    1
    14     1    11    1
    15    11    12    3
    16    12    13    1
