@<TRIPOS>MOLECULE
mol_data/opt/m06hf/geoms/mol2/4ee13ih13ad12fh-.out
 48 51 0 0 0
SMALL
GASTEIGER

@<TRIPOS>ATOM
      1 C          -0.1311    0.1989   -0.4324 C.ar    1  LIG1        0.0254
      2 C           1.2589    0.2982   -0.4939 C.ar    1  LIG1       -0.0360
      3 C          -0.8479    0.9741    0.4852 C.ar    1  LIG1       -0.0451
      4 C           1.9636    1.1443    0.3651 C.ar    1  LIG1        0.0151
      5 H           1.7979   -0.2746   -1.2360 H       1  LIG1        0.0637
      6 C          -0.1641    1.8349    1.3279 C.ar    1  LIG1       -0.0445
      7 C           1.2317    1.9248    1.2814 C.ar    1  LIG1        0.0339
      8 H          -0.6993    2.4454    2.0421 H       1  LIG1        0.0630
      9 H          -1.9254    0.8973    0.5248 H       1  LIG1        0.0630
     10 C          -0.8289   -0.6919   -1.3303 C.1     1  LIG1       -0.0696
     11 C          -1.4120   -1.4324   -2.0754 C.1     1  LIG1       -0.1139
     12 H          -1.9281   -2.0895   -2.7365 H       1  LIG1        0.1232
     13 C           1.8792    2.8284    2.2064 C.1     1  LIG1       -0.0690
     14 C           2.3836    3.5947    2.9853 C.1     1  LIG1       -0.1139
     15 H           2.8352    4.2541    3.6910 H       1  LIG1        0.1232
     16 C           3.4355    1.1831    0.2661 C.ar    1  LIG1        0.0529
     17 C           4.3234    0.1514    0.0013 C.ar    1  LIG1       -0.0039
     18 C           5.6241    0.7280   -0.0075 C.ar    1  LIG1        0.0552
     19 C           5.4881    2.0757    0.2588 C.ar    1  LIG1        0.0845
     20 N           4.1511    2.3339    0.4195 N.ar    1  LIG1       -0.3513
     21 H           3.7655    3.1975    0.7715 H       1  LIG1        0.1660
     22 C           4.0515   -1.3224   -0.1691 C.3     1  LIG1       -0.0359
     23 H           4.8602   -1.8818    0.3044 H       1  LIG1        0.0279
     24 H           4.0061   -1.6112   -1.2230 H       1  LIG1        0.0279
     25 H           3.1098   -1.5990    0.3054 H       1  LIG1        0.0279
     26 N           6.8206    0.0145   -0.2045 N.pl3   1  LIG1       -0.3561
     27 H           6.7732   -0.5903   -1.0169 H       1  LIG1        0.1424
     28 H           7.6195    0.6349   -0.2863 H       1  LIG1        0.1424
     29 C           6.5171    3.1070    0.3511 C.ar    1  LIG1        0.0665
     30 C           7.7251    3.1059    1.0082 C.ar    1  LIG1       -0.0168
     31 C           8.3611    4.3499    0.7184 C.ar    1  LIG1        0.0807
     32 C           7.5053    5.0777   -0.0928 C.ar    1  LIG1        0.1039
     33 N           6.4045    4.3101   -0.3031 N.ar    1  LIG1       -0.3494
     34 H           5.6495    4.5690   -0.9213 H       1  LIG1        0.1661
     35 H           8.1021    2.3230    1.6443 H       1  LIG1        0.0652
     36 N          10.7346    5.0116    1.4867 N.1     1  LIG1       -0.1908
     37 C           9.6718    4.7439    1.1444 C.1     1  LIG1        0.1014
     38 C           7.6127    6.3938   -0.6934 C.ar    1  LIG1        0.1952
     39 C           8.3279    7.5142   -0.4159 C.ar    1  LIG1        0.1853
     40 C           7.9590    8.4967   -1.4029 C.ar    1  LIG1        0.1057
     41 C           7.0333    7.9000   -2.1938 C.ar    1  LIG1        0.1170
     42 O           6.8141    6.6384   -1.7789 O.2     1  LIG1       -0.4557
     43 H           6.4723    8.2344   -3.0495 H       1  LIG1        0.1050
     44 O           9.1999    7.7469    0.5739 O.3     1  LIG1       -0.5020
     45 H           9.5223    8.6539    0.4515 H       1  LIG1        0.2924
     46 N           8.5528    9.7875   -1.3778 N.pl3   1  LIG1       -0.3527
     47 H           9.1330    9.9625   -2.1910 H       1  LIG1        0.1425
     48 H           7.8703   10.5307   -1.2802 H       1  LIG1        0.1425
@<TRIPOS>BOND
     1    43    41    1
     2    12    11    1
     3    41    42   ar
     4    41    40   ar
     5    47    46    1
     6    11    10    3
     7    42    38   ar
     8    40    46    1
     9    40    39   ar
    10    46    48    1
    11    10     1    1
    12     5     2    1
    13    24    22    1
    14    27    26    1
    15    34    33    1
    16    38    39   ar
    17    38    32    1
    18     2     1   ar
    19     2     4   ar
    20     1     3   ar
    21    39    44    1
    22    33    32   ar
    23    33    29   ar
    24    28    26    1
    25    26    18    1
    26    22    17    1
    27    22    23    1
    28    22    25    1
    29    32    31   ar
    30    18    17   ar
    31    18    19   ar
    32    17    16   ar
    33    19    29    1
    34    19    20   ar
    35    16     4    1
    36    16    20   ar
    37    29    30   ar
    38     4     7   ar
    39    20    21    1
    40    45    44    1
    41     3     9    1
    42     3     6   ar
    43    31    30   ar
    44    31    37    1
    45    30    35    1
    46    37    36    3
    47     7     6   ar
    48     7    13    1
    49     6     8    1
    50    13    14    3
    51    14    15    1
