@<TRIPOS>MOLECULE
mol_data/opt/m06hf/geoms/mol2/4ee4ee4ee.out
 44 46 0 0 0
SMALL
GASTEIGER

@<TRIPOS>ATOM
      1 C          -0.0912    0.5188    1.0341 C.ar    1  LIG1        0.0253
      2 C           1.3041    0.5049    0.9919 C.ar    1  LIG1       -0.0374
      3 C          -0.8128    1.1923    0.0420 C.ar    1  LIG1       -0.0451
      4 C           1.9923    1.1561   -0.0292 C.ar    1  LIG1       -0.0001
      5 H           1.8552   -0.0146    1.7644 H       1  LIG1        0.0636
      6 C          -0.1366    1.8396   -0.9787 C.ar    1  LIG1       -0.0446
      7 C           1.2627    1.8278   -1.0248 C.ar    1  LIG1        0.0325
      8 H          -0.6787    2.3583   -1.7573 H       1  LIG1        0.0630
      9 H          -1.8932    1.2005    0.0823 H       1  LIG1        0.0630
     10 C          -0.7874   -0.1573    2.1039 C.1     1  LIG1       -0.0696
     11 C          -1.3702   -0.7185    2.9920 C.1     1  LIG1       -0.1139
     12 H          -1.8838   -1.2153    3.7820 H       1  LIG1        0.1232
     13 C           1.9263    2.4974   -2.1198 C.1     1  LIG1       -0.0691
     14 C           2.4493    3.0606   -3.0434 C.1     1  LIG1       -0.1139
     15 H           2.9239    3.5537   -3.8597 H       1  LIG1        0.1232
     16 C           4.2127   -0.0542   -0.0295 C.ar    1  LIG1        0.0331
     17 C           5.6092   -0.0253   -0.0218 C.ar    1  LIG1       -0.0368
     18 C           3.4854    1.1477   -0.0386 C.ar    1  LIG1       -0.0001
     19 C           6.3064    1.1786   -0.0237 C.ar    1  LIG1       -0.0001
     20 H           6.1539   -0.9598   -0.0186 H       1  LIG1        0.0636
     21 C           4.1826    2.3515   -0.0412 C.ar    1  LIG1       -0.0368
     22 C           5.5790    2.3805   -0.0332 C.ar    1  LIG1        0.0331
     23 H           3.6382    3.2862   -0.0524 H       1  LIG1        0.0636
     24 C           3.5477   -1.3370   -0.0453 C.1     1  LIG1       -0.0690
     25 C           3.0227   -2.4181   -0.0571 C.1     1  LIG1       -0.1139
     26 H           2.5505   -3.3734   -0.0680 H       1  LIG1        0.1232
     27 C           6.2434    3.6636   -0.0506 C.1     1  LIG1       -0.0690
     28 C           6.7671    4.7452   -0.0663 C.1     1  LIG1       -0.1139
     29 H           7.2375    5.7011   -0.0841 H       1  LIG1        0.1232
     30 C           8.5411    0.4851   -0.9730 C.ar    1  LIG1        0.0325
     31 C           9.9398    0.4758   -0.9109 C.ar    1  LIG1       -0.0446
     32 C           7.7993    1.1707    0.0030 C.ar    1  LIG1       -0.0001
     33 C          10.6039    1.1408    0.1066 C.ar    1  LIG1       -0.0451
     34 H          10.4912   -0.0549   -1.6746 H       1  LIG1        0.0630
     35 C           8.4755    1.8392    1.0214 C.ar    1  LIG1       -0.0374
     36 C           9.8700    1.8282    1.0794 C.ar    1  LIG1        0.0253
     37 H           7.9151    2.3709    1.7787 H       1  LIG1        0.0636
     38 H          11.6838    1.1346    0.1591 H       1  LIG1        0.0630
     39 C           7.8913   -0.2036   -2.0646 C.1     1  LIG1       -0.0691
     40 C           7.3756   -0.7833   -2.9829 C.1     1  LIG1       -0.1139
     41 H           6.9056   -1.2902   -3.7943 H       1  LIG1        0.1232
     42 C          10.5522    2.5240    2.1457 C.1     1  LIG1       -0.0696
     43 C          11.1244    3.1021    3.0302 C.1     1  LIG1       -0.1139
     44 H          11.6306    3.6132    3.8162 H       1  LIG1        0.1232
@<TRIPOS>BOND
     1    15    14    1
     2    41    40    1
     3    14    13    3
     4    40    39    3
     5    13     7    1
     6    39    30    1
     7     8     6    1
     8    34    31    1
     9     7     6   ar
    10     7     4   ar
    11     6     3   ar
    12    30    31   ar
    13    30    32   ar
    14    31    33   ar
    15    29    28    1
    16    26    25    1
    17    28    27    3
    18    25    24    3
    19    23    21    1
    20    27    22    1
    21    24    16    1
    22    21    18   ar
    23    21    22   ar
    24    18    16   ar
    25    18     4    1
    26    22    19   ar
    27    16    17   ar
    28     4     2   ar
    29    19    17   ar
    30    19    32    1
    31    17    20    1
    32    32    35   ar
    33     3     9    1
    34     3     1   ar
    35    33    38    1
    36    33    36   ar
    37     2     1   ar
    38     2     5    1
    39    35    36   ar
    40    35    37    1
    41     1    10    1
    42    36    42    1
    43    10    11    3
    44    42    43    3
    45    11    12    1
    46    43    44    1
