@<TRIPOS>MOLECULE
mol_data/opt/m06hf/geoms/mol2/4ee4af6li-12le-.out
 56 59 0 0 0
SMALL
GASTEIGER

@<TRIPOS>ATOM
      1 C          -0.3518    0.2311   -0.1740 C.ar    1  LIG1        0.0253
      2 C           1.0432    0.2134   -0.2345 C.ar    1  LIG1       -0.0374
      3 C          -1.0217    1.4293    0.0917 C.ar    1  LIG1       -0.0451
      4 C           1.7880    1.3754   -0.0379 C.ar    1  LIG1       -0.0012
      5 H           1.5542   -0.7218   -0.4206 H       1  LIG1        0.0636
      6 C          -0.2924    2.5907    0.2892 C.ar    1  LIG1       -0.0446
      7 C           1.1063    2.5766    0.2253 C.ar    1  LIG1        0.0324
      8 H          -0.7936    3.5280    0.4868 H       1  LIG1        0.0630
      9 H          -2.1018    1.4380    0.1401 H       1  LIG1        0.0630
     10 C          -1.0979   -0.9883   -0.3805 C.1     1  LIG1       -0.0696
     11 C          -1.7216   -2.0004   -0.5548 C.1     1  LIG1       -0.1139
     12 H          -2.2728   -2.8989   -0.7097 H       1  LIG1        0.1232
     13 C           1.8085    3.8276    0.4022 C.1     1  LIG1       -0.0691
     14 C           2.3505    4.8910    0.5457 C.1     1  LIG1       -0.1139
     15 H           2.8415    5.8296    0.6591 H       1  LIG1        0.1232
     16 C           3.8803    0.6796   -1.2158 C.ar    1  LIG1       -0.0532
     17 C           5.2684    0.5983   -1.2814 C.ar    1  LIG1       -0.0498
     18 C           3.2772    1.3047   -0.1249 C.ar    1  LIG1       -0.0132
     19 C           6.0724    1.1283   -0.2764 C.ar    1  LIG1        0.0287
     20 H           5.7463    0.1393   -2.1379 H       1  LIG1        0.0625
     21 C           4.0708    1.8301    0.8958 C.ar    1  LIG1       -0.0118
     22 C           5.4563    1.7412    0.8234 C.ar    1  LIG1        0.1253
     23 H           3.6031    2.2977    1.7549 H       1  LIG1        0.0660
     24 H           3.2699    0.2894   -2.0196 H       1  LIG1        0.0624
     25 O           6.2612    2.2013    1.8147 O.3     1  LIG1       -0.5061
     26 H           5.7450    2.6789    2.4720 H       1  LIG1        0.2922
     27 C           8.3721    2.1804   -0.3757 C.ar    1  LIG1        0.2232
     28 C           7.5543    1.0268   -0.3477 C.ar    1  LIG1        0.0474
     29 C           8.2017   -0.1882   -0.4388 C.ar    1  LIG1       -0.0438
     30 C           9.6015   -0.2782   -0.5310 C.ar    1  LIG1       -0.0205
     31 C          10.2868    0.9310   -0.5018 C.ar    1  LIG1        0.1164
     32 N           9.6808    2.1293   -0.4388 N.ar    1  LIG1       -0.2089
     33 H           7.6088   -1.0963   -0.4383 H       1  LIG1        0.0629
     34 O           7.7633    3.3740   -0.3557 O.3     1  LIG1       -0.4792
     35 C           8.6058    4.5199   -0.4044 C.3     1  LIG1        0.0804
     36 H           7.9300    5.3708   -0.3973 H       1  LIG1        0.0660
     37 H           9.2669    4.5398    0.4619 H       1  LIG1        0.0660
     38 H           9.2079    4.5080   -1.3123 H       1  LIG1        0.0660
     39 C          10.2793   -1.6255   -0.6807 C.3     1  LIG1       -0.0376
     40 H          10.6659   -1.9751    0.2759 H       1  LIG1        0.0278
     41 H          11.1223   -1.5512   -1.3688 H       1  LIG1        0.0278
     42 H           9.5645   -2.3498   -1.0713 H       1  LIG1        0.0278
     43 C          11.7616    0.9953   -0.5567 C.ar    1  LIG1        0.1959
     44 C          12.7459    0.2945    0.0681 C.ar    1  LIG1        0.1826
     45 C          14.0024    0.8762   -0.3506 C.ar    1  LIG1        0.1047
     46 C          13.6572    1.8833   -1.1974 C.ar    1  LIG1        0.1117
     47 O          12.3280    1.9607   -1.3232 O.2     1  LIG1       -0.4563
     48 H          14.2469    2.5867   -1.7582 H       1  LIG1        0.1043
     49 O          12.5950   -0.7299    0.9423 O.3     1  LIG1       -0.4901
     50 C          12.8508   -0.3540    2.2984 C.3     1  LIG1        0.0790
     51 H          12.1425    0.4181    2.6045 H       1  LIG1        0.0660
     52 H          12.7115   -1.2540    2.8921 H       1  LIG1        0.0660
     53 H          13.8742    0.0097    2.3997 H       1  LIG1        0.0660
     54 C          15.3142    0.4655    0.0480 C.1     1  LIG1       -0.0628
     55 C          16.4066    0.1122    0.4021 C.1     1  LIG1       -0.1137
     56 H          17.3758   -0.2060    0.7087 H       1  LIG1        0.1232
@<TRIPOS>BOND
     1    20    17    1
     2    24    16    1
     3    48    46    1
     4    41    39    1
     5    47    46   ar
     6    47    43   ar
     7    38    35    1
     8    17    16   ar
     9    17    19   ar
    10    16    18   ar
    11    46    45   ar
    12    42    39    1
    13    12    11    1
    14    39    30    1
    15    39    40    1
    16    43    31    1
    17    43    44   ar
    18    11    10    3
    19    30    31   ar
    20    30    29   ar
    21    31    32   ar
    22    32    27   ar
    23    29    33    1
    24    29    28   ar
    25     5     2    1
    26    35    36    1
    27    35    34    1
    28    35    37    1
    29    10     1    1
    30    27    34    1
    31    27    28   ar
    32    45    54    1
    33    45    44   ar
    34    28    19    1
    35    19    22   ar
    36     2     1   ar
    37     2     4   ar
    38     1     3   ar
    39    18     4    1
    40    18    21   ar
    41     4     7   ar
    42    54    55    3
    43    44    49    1
    44     3     9    1
    45     3     6   ar
    46     7     6   ar
    47     7    13    1
    48     6     8    1
    49    55    56    1
    50    13    14    3
    51    14    15    1
    52    22    21   ar
    53    22    25    1
    54    21    23    1
    55    49    50    1
    56    25    26    1
    57    50    53    1
    58    50    51    1
    59    50    52    1
