@<TRIPOS>MOLECULE
mol_data/opt/m06hf/geoms/mol2/4ee4ee4ee4ee.out
 58 61 0 0 0
SMALL
GASTEIGER

@<TRIPOS>ATOM
      1 C          -0.1857    0.9493    1.2702 C.ar    1  LIG1        0.0253
      2 C           1.2091    0.9366    1.2212 C.ar    1  LIG1       -0.0374
      3 C          -0.9241    1.0972    0.0911 C.ar    1  LIG1       -0.0451
      4 C           1.8802    1.0710    0.0076 C.ar    1  LIG1       -0.0001
      5 H           1.7731    0.8231    2.1373 H       1  LIG1        0.0636
      6 C          -0.2651    1.2285   -1.1200 C.ar    1  LIG1       -0.0446
      7 C           1.1341    1.2169   -1.1733 C.ar    1  LIG1        0.0325
      8 H          -0.8200    1.3378   -2.0412 H       1  LIG1        0.0630
      9 H          -2.0045    1.1077    0.1374 H       1  LIG1        0.0630
     10 C          -0.8639    0.8136    2.5382 C.1     1  LIG1       -0.0696
     11 C          -1.4317    0.7018    3.5913 C.1     1  LIG1       -0.1139
     12 H          -1.9324    0.6036    4.5265 H       1  LIG1        0.1232
     13 C           1.7804    1.3379   -2.4600 C.1     1  LIG1       -0.0691
     14 C           2.2930    1.4386   -3.5423 C.1     1  LIG1       -0.1139
     15 H           2.7598    1.5236   -4.4962 H       1  LIG1        0.1232
     16 C           4.1187    0.0147    0.5227 C.ar    1  LIG1        0.0331
     17 C           5.5146    0.0591    0.4995 C.ar    1  LIG1       -0.0368
     18 C           3.3733    1.0768   -0.0149 C.ar    1  LIG1       -0.0001
     19 C           6.1943    1.1408   -0.0514 C.ar    1  LIG1       -0.0001
     20 H           6.0720   -0.7701    0.9139 H       1  LIG1        0.0636
     21 C           4.0523    2.1593   -0.5641 C.ar    1  LIG1       -0.0368
     22 C           5.4481    2.2031   -0.5896 C.ar    1  LIG1        0.0331
     23 H           3.4946    2.9848   -0.9854 H       1  LIG1        0.0636
     24 C           3.4736   -1.1465    1.0911 C.1     1  LIG1       -0.0690
     25 C           2.9639   -2.1249    1.5673 C.1     1  LIG1       -0.1139
     26 H           2.5041   -2.9904    1.9848 H       1  LIG1        0.1232
     27 C           6.0887    3.3477   -1.1960 C.1     1  LIG1       -0.0690
     28 C           6.5935    4.3129   -1.7037 C.1     1  LIG1       -0.1139
     29 H           7.0509    5.1658   -2.1495 H       1  LIG1        0.1232
     30 C           8.4341    0.0967   -0.5856 C.ar    1  LIG1        0.0331
     31 C           9.8298    0.1405   -0.5572 C.ar    1  LIG1       -0.0368
     32 C           7.6868    1.1594   -0.0498 C.ar    1  LIG1       -0.0001
     33 C          10.5077    1.2234   -0.0074 C.ar    1  LIG1       -0.0001
     34 H          10.3884   -0.6854   -0.9766 H       1  LIG1        0.0636
     35 C           8.3653    2.2417    0.5016 C.ar    1  LIG1       -0.0368
     36 C           9.7611    2.2860    0.5277 C.ar    1  LIG1        0.0331
     37 H           7.8070    3.0712    0.9142 H       1  LIG1        0.0636
     38 C           7.7948   -1.0484   -1.1923 C.1     1  LIG1       -0.0690
     39 C           7.2910   -2.0140   -1.7004 C.1     1  LIG1       -0.1139
     40 H           6.8345   -2.8671   -2.1468 H       1  LIG1        0.1232
     41 C          10.4051    3.4477    1.0966 C.1     1  LIG1       -0.0690
     42 C          10.9137    4.4265    1.5730 C.1     1  LIG1       -0.1139
     43 H          11.3718    5.2930    1.9905 H       1  LIG1        0.1232
     44 C          12.7494    1.0824   -1.1610 C.ar    1  LIG1        0.0325
     45 C          14.1484    1.0709   -1.1046 C.ar    1  LIG1       -0.0446
     46 C          12.0007    1.2293    0.0183 C.ar    1  LIG1       -0.0001
     47 C          14.8049    1.2031    0.1077 C.ar    1  LIG1       -0.0451
     48 H          14.7053    0.9608   -2.0245 H       1  LIG1        0.0630
     49 C          12.6692    1.3647    1.2332 C.ar    1  LIG1       -0.0374
     50 C          14.0640    1.3521    1.2851 C.ar    1  LIG1        0.0253
     51 H          12.1034    1.4789    2.1480 H       1  LIG1        0.0636
     52 H          15.8851    1.1927    0.1563 H       1  LIG1        0.0630
     53 C          12.1058    0.9604   -2.4489 C.1     1  LIG1       -0.0691
     54 C          11.5955    0.8588   -3.5322 C.1     1  LIG1       -0.1139
     55 H          11.1301    0.7730   -4.4867 H       1  LIG1        0.1232
     56 C          14.7394    1.4887    2.5545 C.1     1  LIG1       -0.0696
     57 C          15.3050    1.6014    3.6087 C.1     1  LIG1       -0.1139
     58 H          15.8032    1.6997    4.5452 H       1  LIG1        0.1232
@<TRIPOS>BOND
     1    15    14    1
     2    55    54    1
     3    14    13    3
     4    54    53    3
     5    13     7    1
     6    53    44    1
     7    29    28    1
     8    40    39    1
     9     8     6    1
    10    48    45    1
    11    28    27    3
    12    39    38    3
    13    27    22    1
    14    38    30    1
    15     7     6   ar
    16     7     4   ar
    17    44    45   ar
    18    44    46   ar
    19     6     3   ar
    20    45    47   ar
    21    23    21    1
    22    34    31    1
    23    22    21   ar
    24    22    19   ar
    25    30    31   ar
    26    30    32   ar
    27    21    18   ar
    28    31    33   ar
    29    19    32    1
    30    19    17   ar
    31    32    35   ar
    32    18     4    1
    33    18    16   ar
    34    33    46    1
    35    33    36   ar
    36     4     2   ar
    37    46    49   ar
    38     3     9    1
    39     3     1   ar
    40    47    52    1
    41    47    50   ar
    42    17    16   ar
    43    17    20    1
    44    35    36   ar
    45    35    37    1
    46    16    24    1
    47    36    41    1
    48    24    25    3
    49    41    42    3
    50     2     1   ar
    51     2     5    1
    52    49    50   ar
    53    49    51    1
    54     1    10    1
    55    50    56    1
    56    25    26    1
    57    42    43    1
    58    10    11    3
    59    56    57    3
    60    11    12    1
    61    57    58    1
