@<TRIPOS>MOLECULE
mol_data/opt/m06hf/geoms/mol2/4ee4ee.out
 30 31 0 0 0
SMALL
GASTEIGER

@<TRIPOS>ATOM
      1 C           0.0097    0.1381    0.5884 C.ar    1  LIG1        0.0253
      2 C           1.4047    0.1415    0.5608 C.ar    1  LIG1       -0.0374
      3 C          -0.7025    1.2053    0.0294 C.ar    1  LIG1       -0.0451
      4 C           2.1035    1.1980   -0.0195 C.ar    1  LIG1       -0.0001
      5 H           1.9486   -0.6850    0.9982 H       1  LIG1        0.0636
      6 C          -0.0161    2.2594   -0.5504 C.ar    1  LIG1       -0.0446
      7 C           1.3834    2.2658   -0.5812 C.ar    1  LIG1        0.0325
      8 H          -0.5510    3.0886   -0.9923 H       1  LIG1        0.0630
      9 H          -1.7832    1.1962    0.0557 H       1  LIG1        0.0630
     10 C          -0.6986   -0.9631    1.1988 C.1     1  LIG1       -0.0696
     11 C          -1.2940   -1.8764    1.7042 C.1     1  LIG1       -0.1139
     12 H          -1.8224   -2.6865    2.1512 H       1  LIG1        0.1232
     13 C           2.0587    3.3744   -1.2162 C.1     1  LIG1       -0.0691
     14 C           2.5932    4.3094   -1.7500 C.1     1  LIG1       -0.1139
     15 H           3.0793    5.1321   -2.2218 H       1  LIG1        0.1232
     16 C           4.3186    0.1183   -0.5755 C.ar    1  LIG1        0.0325
     17 C           5.7180    0.1248   -0.5408 C.ar    1  LIG1       -0.0446
     18 C           3.5970    1.1870   -0.0174 C.ar    1  LIG1       -0.0001
     19 C           6.4028    1.1798    0.0392 C.ar    1  LIG1       -0.0451
     20 H           6.2541   -0.7051   -0.9800 H       1  LIG1        0.0630
     21 C           4.2942    2.2444    0.5632 C.ar    1  LIG1       -0.0374
     22 C           5.6891    2.2478    0.5946 C.ar    1  LIG1        0.0253
     23 H           3.7490    3.0716    0.9978 H       1  LIG1        0.0636
     24 H           7.4834    1.1890    0.0685 H       1  LIG1        0.0630
     25 C           3.6451   -0.9912   -1.2107 C.1     1  LIG1       -0.0691
     26 C           3.1120   -1.9270   -1.7445 C.1     1  LIG1       -0.1139
     27 H           2.6265   -2.7504   -2.2156 H       1  LIG1        0.1232
     28 C           6.3956    3.3500    1.2052 C.1     1  LIG1       -0.0696
     29 C           6.9897    4.2641    1.7109 C.1     1  LIG1       -0.1139
     30 H           7.5174    5.0746    2.1579 H       1  LIG1        0.1232
@<TRIPOS>BOND
     1    15    14    1
     2    27    26    1
     3    14    13    3
     4    26    25    3
     5    13     7    1
     6    25    16    1
     7     8     6    1
     8    20    17    1
     9     7     6   ar
    10     7     4   ar
    11    16    17   ar
    12    16    18   ar
    13     6     3   ar
    14    17    19   ar
    15     4    18    1
    16     4     2   ar
    17    18    21   ar
    18     3     9    1
    19     3     1   ar
    20    19    24    1
    21    19    22   ar
    22     2     1   ar
    23     2     5    1
    24    21    22   ar
    25    21    23    1
    26     1    10    1
    27    22    28    1
    28    10    11    3
    29    28    29    3
    30    11    12    1
    31    29    30    1
