@<TRIPOS>MOLECULE
mol_data/opt/m06hf/geoms/mol2/4ef.out
 15 15 0 0 0
SMALL
GASTEIGER

@<TRIPOS>ATOM
      1 C           0.0968    0.0478    0.0003 C.ar    1  LIG1        0.0249
      2 C           1.4974    0.0523   -0.0001 C.ar    1  LIG1       -0.0429
      3 C          -0.5905    1.2633    0.0002 C.ar    1  LIG1       -0.0429
      4 C           2.1969    1.2481   -0.0005 C.ar    1  LIG1       -0.0190
      5 H           2.0285   -0.8896    0.0000 H       1  LIG1        0.0631
      6 C           0.1057    2.4658   -0.0002 C.ar    1  LIG1       -0.0190
      7 C           1.4996    2.4569   -0.0005 C.ar    1  LIG1        0.1169
      8 H          -0.4325    3.4064   -0.0003 H       1  LIG1        0.0654
      9 H           3.2777    1.2742   -0.0007 H       1  LIG1        0.0654
     10 H          -1.6718    1.2612    0.0005 H       1  LIG1        0.0631
     11 C          -0.6295   -1.2002    0.0007 C.1     1  LIG1       -0.0697
     12 C          -1.2334   -2.2392    0.0011 C.1     1  LIG1       -0.1139
     13 H          -1.7684   -3.1604    0.0015 H       1  LIG1        0.1232
     14 O           2.2374    3.5979   -0.0009 O.3     1  LIG1       -0.5068
     15 H           1.6677    4.3739   -0.0010 H       1  LIG1        0.2921
@<TRIPOS>BOND
     1    15    14    1
     2    14     7    1
     3     9     4    1
     4     7     4   ar
     5     7     6   ar
     6     4     2   ar
     7     8     6    1
     8     6     3   ar
     9     2     5    1
    10     2     1   ar
    11     3     1   ar
    12     3    10    1
    13     1    11    1
    14    11    12    3
    15    12    13    1
