@<TRIPOS>MOLECULE
mol_data/opt/m06hf/geoms/mol2/4ef13li4la-12ih.out
 56 59 0 0 0
SMALL
GASTEIGER

@<TRIPOS>ATOM
      1 C           0.1270   -0.2450   -1.3696 C.ar    1  LIG1        0.0255
      2 C           1.3438   -0.1689   -0.6911 C.ar    1  LIG1       -0.0336
      3 C          -0.3087    0.8360   -2.1392 C.ar    1  LIG1       -0.0429
      4 C           2.1421    0.9775   -0.7500 C.ar    1  LIG1        0.0444
      5 H           1.6923   -1.0162   -0.1168 H       1  LIG1        0.0637
      6 C           0.4813    1.9722   -2.2289 C.ar    1  LIG1       -0.0184
      7 C           1.6936    2.0427   -1.5491 C.ar    1  LIG1        0.1261
      8 H           0.1602    2.8137   -2.8321 H       1  LIG1        0.0655
      9 H          -1.2525    0.7776   -2.6631 H       1  LIG1        0.0631
     10 C          -0.6772   -1.4423   -1.2816 C.1     1  LIG1       -0.0696
     11 C          -1.3509   -2.4349   -1.2119 C.1     1  LIG1       -0.1139
     12 H          -1.9441   -3.3170   -1.1492 H       1  LIG1        0.1232
     13 O           2.4872    3.1520   -1.6490 O.3     1  LIG1       -0.5061
     14 H           2.0673    3.8315   -2.1861 H       1  LIG1        0.2922
     15 C           3.4076    1.0272    0.0005 C.ar    1  LIG1        0.0930
     16 C           3.9500    0.1154    0.8991 C.ar    1  LIG1        0.1488
     17 C           5.2153    0.5783    1.3259 C.ar    1  LIG1        0.0172
     18 C           5.4159    1.7877    0.6680 C.ar    1  LIG1        0.0570
     19 N           4.3254    2.0276   -0.1116 N.ar    1  LIG1       -0.3508
     20 H           4.2178    2.8457   -0.6974 H       1  LIG1        0.1660
     21 O           3.3771   -1.0604    1.3108 O.3     1  LIG1       -0.4927
     22 C           2.6210   -0.9146    2.5117 C.3     1  LIG1        0.0789
     23 H           2.2269   -1.8999    2.7511 H       1  LIG1        0.0660
     24 H           3.2645   -0.5585    3.3188 H       1  LIG1        0.0660
     25 H           1.8033   -0.2070    2.3569 H       1  LIG1        0.0660
     26 C           6.1261   -0.1956    2.2464 C.3     1  LIG1       -0.0342
     27 H           7.1641   -0.1187    1.9198 H       1  LIG1        0.0279
     28 H           5.8240   -1.2433    2.2223 H       1  LIG1        0.0279
     29 H           6.0589    0.1561    3.2792 H       1  LIG1        0.0279
     30 C           6.8291    3.6006   -0.3496 C.ar    1  LIG1        0.1298
     31 C           7.9020    4.4783   -0.3061 C.ar    1  LIG1       -0.0086
     32 C           6.5531    2.7229    0.7107 C.ar    1  LIG1        0.0403
     33 C           8.7539    4.4947    0.7995 C.ar    1  LIG1        0.0211
     34 H           8.0349    5.1622   -1.1339 H       1  LIG1        0.0661
     35 C           7.3960    2.7815    1.8282 C.ar    1  LIG1       -0.0484
     36 C           8.4848    3.6402    1.8732 C.ar    1  LIG1       -0.0502
     37 H           7.1774    2.1526    2.6802 H       1  LIG1        0.0625
     38 O           6.0117    3.6347   -1.4612 O.3     1  LIG1       -0.4944
     39 C           6.3375    2.6298   -2.4268 C.3     1  LIG1        0.0788
     40 H           5.5975    2.7164   -3.2191 H       1  LIG1        0.0660
     41 H           7.3398    2.8124   -2.8197 H       1  LIG1        0.0660
     42 H           6.2860    1.6387   -1.9721 H       1  LIG1        0.0660
     43 H           9.1257    3.6670    2.7441 H       1  LIG1        0.0625
     44 C           9.9037    5.4085    0.8476 C.ar    1  LIG1        0.1396
     45 C          10.6708    5.9823   -0.1214 C.ar    1  LIG1        0.0159
     46 C          11.6566    6.7654    0.5858 C.ar    1  LIG1        0.0664
     47 C          11.4103    6.5893    1.9074 C.ar    1  LIG1        0.1134
     48 O          10.3552    5.7570    2.0742 O.2     1  LIG1       -0.4608
     49 H          11.8828    6.9623    2.7986 H       1  LIG1        0.1049
     50 C          10.6300    5.8136   -1.6178 C.3     1  LIG1       -0.0344
     51 H          11.6460    5.9112   -2.0034 H       1  LIG1        0.0279
     52 H          10.0042    6.5729   -2.0930 H       1  LIG1        0.0279
     53 H          10.2440    4.8284   -1.8806 H       1  LIG1        0.0279
     54 N          12.6925    7.4776   -0.0523 N.pl3   1  LIG1       -0.3553
     55 H          12.3317    8.1899   -0.6784 H       1  LIG1        0.1424
     56 H          13.3347    7.9012    0.6063 H       1  LIG1        0.1424
@<TRIPOS>BOND
     1    40    39    1
     2     8     6    1
     3    41    39    1
     4     9     3    1
     5    39    42    1
     6    39    38    1
     7     6     3   ar
     8     6     7   ar
     9    14    13    1
    10     3     1   ar
    11    52    50    1
    12    51    50    1
    13    53    50    1
    14    13     7    1
    15    50    45    1
    16     7     4   ar
    17    38    30    1
    18     1    10    1
    19     1     2   ar
    20    10    11    3
    21    11    12    1
    22    34    31    1
    23     4     2   ar
    24     4    15    1
    25    20    19    1
    26     2     5    1
    27    55    54    1
    28    30    31   ar
    29    30    32   ar
    30    31    33   ar
    31    45    46   ar
    32    45    44   ar
    33    19    15   ar
    34    19    18   ar
    35    54    46    1
    36    54    56    1
    37    15    16   ar
    38    46    47   ar
    39    18    32    1
    40    18    17   ar
    41    32    35   ar
    42    33    44    1
    43    33    36   ar
    44    44    48   ar
    45    16    21    1
    46    16    17   ar
    47    21    22    1
    48    17    26    1
    49    35    36   ar
    50    35    37    1
    51    36    43    1
    52    47    48   ar
    53    47    49    1
    54    27    26    1
    55    28    26    1
    56    26    29    1
    57    25    22    1
    58    22    23    1
    59    22    24    1
