@<TRIPOS>MOLECULE
mol_data/opt/m06hf/geoms/mol2/4ef4ef-4ef-4ef.out
 54 57 0 0 0
SMALL
GASTEIGER

@<TRIPOS>ATOM
      1 C          -0.2508    0.1707   -0.0650 C.ar    1  LIG1        0.0255
      2 C           1.1480    0.1410   -0.0765 C.ar    1  LIG1       -0.0351
      3 C          -0.9065    1.4018   -0.1222 C.ar    1  LIG1       -0.0429
      4 C           1.8896    1.3142   -0.1397 C.ar    1  LIG1        0.0260
      5 H           1.6629   -0.8089   -0.0162 H       1  LIG1        0.0637
      6 C          -0.1771    2.5806   -0.1997 C.ar    1  LIG1       -0.0184
      7 C           1.2161    2.5415   -0.2130 C.ar    1  LIG1        0.1246
      8 H          -0.6877    3.5344   -0.2616 H       1  LIG1        0.0654
      9 H          -1.9876    1.4289   -0.1114 H       1  LIG1        0.0631
     10 C          -1.0055   -1.0576    0.0128 C.1     1  LIG1       -0.0696
     11 C          -1.6329   -2.0804    0.0787 C.1     1  LIG1       -0.1139
     12 H          -2.1849   -2.9892    0.1378 H       1  LIG1        0.1232
     13 O           1.9699    3.6613   -0.3227 O.3     1  LIG1       -0.5062
     14 H           1.4287    4.4502   -0.2175 H       1  LIG1        0.2922
     15 C           4.1182    1.8571    0.9105 C.ar    1  LIG1        0.0333
     16 C           5.5086    1.7784    0.8956 C.ar    1  LIG1       -0.0345
     17 C           3.3818    1.2697   -0.1351 C.ar    1  LIG1        0.0045
     18 C           6.1856    1.1202   -0.1293 C.ar    1  LIG1        0.0260
     19 H           6.0729    2.2270    1.7024 H       1  LIG1        0.0637
     20 C           4.0508    0.6161   -1.1598 C.ar    1  LIG1       -0.0106
     21 C           5.4439    0.5386   -1.1640 C.ar    1  LIG1        0.1252
     22 H           3.5064    0.1737   -1.9832 H       1  LIG1        0.0661
     23 C           3.4580    2.5079    2.0173 C.1     1  LIG1       -0.0690
     24 C           2.9317    3.0370    2.9594 C.1     1  LIG1       -0.1139
     25 H           2.4644    3.4981    3.7976 H       1  LIG1        0.1232
     26 O           6.0260   -0.1045   -2.2054 O.3     1  LIG1       -0.5061
     27 H           6.9864   -0.0109   -2.1590 H       1  LIG1        0.2922
     28 C           8.4871    2.1721   -0.0943 C.ar    1  LIG1        0.0333
     29 C           9.8747    2.0272   -0.0958 C.ar    1  LIG1       -0.0345
     30 C           7.6756    1.0230   -0.1317 C.ar    1  LIG1        0.0045
     31 C          10.4853    0.7758   -0.1399 C.ar    1  LIG1        0.0260
     32 H          10.4936    2.9147   -0.0598 H       1  LIG1        0.0637
     33 C           8.2818   -0.2308   -0.1725 C.ar    1  LIG1       -0.0106
     34 C           9.6714   -0.3659   -0.1777 C.ar    1  LIG1        0.1252
     35 H           7.6844   -1.1345   -0.1753 H       1  LIG1        0.0661
     36 C           7.9179    3.4985   -0.0719 C.1     1  LIG1       -0.0690
     37 C           7.4638    4.6109   -0.0577 C.1     1  LIG1       -0.1139
     38 H           7.0452    5.5903   -0.0464 H       1  LIG1        0.1232
     39 O          10.1579   -1.6225   -0.2525 O.3     1  LIG1       -0.5061
     40 H          11.0904   -1.6499   -0.0041 H       1  LIG1        0.2922
     41 C          12.7321    0.0056    0.7552 C.ar    1  LIG1        0.0327
     42 C          14.1299   -0.0298    0.6425 C.ar    1  LIG1       -0.0423
     43 C          11.9756    0.6870   -0.2114 C.ar    1  LIG1        0.0045
     44 C          14.7744    0.6075   -0.4013 C.ar    1  LIG1       -0.0190
     45 H          14.6990   -0.5578    1.3954 H       1  LIG1        0.0631
     46 C          12.6320    1.3259   -1.2643 C.ar    1  LIG1       -0.0112
     47 C          14.0200    1.2903   -1.3585 C.ar    1  LIG1        0.1175
     48 H          12.0439    1.8386   -2.0174 H       1  LIG1        0.0660
     49 H          15.8508    0.5931   -0.5016 H       1  LIG1        0.0654
     50 C          12.0879   -0.6524    1.8680 C.1     1  LIG1       -0.0690
     51 C          11.5435   -1.2268    2.7733 C.1     1  LIG1       -0.1139
     52 H          11.0540   -1.7277    3.5768 H       1  LIG1        0.1232
     53 O          14.6971    1.8940   -2.3652 O.3     1  LIG1       -0.5067
     54 H          14.0937    2.3353   -2.9724 H       1  LIG1        0.2921
@<TRIPOS>BOND
     1    54    53    1
     2    53    47    1
     3    26    27    1
     4    26    21    1
     5    48    46    1
     6    22    20    1
     7    47    46   ar
     8    47    44   ar
     9    46    43   ar
    10    21    20   ar
    11    21    18   ar
    12    20    17   ar
    13    49    44    1
    14    44    42   ar
    15    13    14    1
    16    13     7    1
    17     8     6    1
    18    39    34    1
    19    39    40    1
    20     7     6   ar
    21     7     4   ar
    22    43    31    1
    23    43    41   ar
    24     6     3   ar
    25    34    33   ar
    26    34    31   ar
    27    35    33    1
    28    33    30   ar
    29    31    29   ar
    30     4    17    1
    31     4     2   ar
    32    17    15   ar
    33    30    18    1
    34    30    28   ar
    35    18    16   ar
    36     3     9    1
    37     3     1   ar
    38    29    28   ar
    39    29    32    1
    40    28    36    1
    41     2     1   ar
    42     2     5    1
    43    36    37    3
    44     1    10    1
    45    37    38    1
    46    10    11    3
    47    11    12    1
    48    42    41   ar
    49    42    45    1
    50    41    50    1
    51    16    15   ar
    52    16    19    1
    53    15    23    1
    54    50    51    3
    55    23    24    3
    56    51    52    1
    57    24    25    1
