@<TRIPOS>MOLECULE
mol_data/opt/m06hf/geoms/mol2/4ef4ef4ef4ef-.out
 54 57 0 0 0
SMALL
GASTEIGER

@<TRIPOS>ATOM
      1 C          -0.2363    0.2877    0.7706 C.ar    1  LIG1        0.0255
      2 C           1.1602    0.2920    0.7496 C.ar    1  LIG1       -0.0351
      3 C          -0.9367    1.1060   -0.1186 C.ar    1  LIG1       -0.0429
      4 C           1.8682    1.0964   -0.1400 C.ar    1  LIG1        0.0260
      5 H           1.7037   -0.3434    1.4360 H       1  LIG1        0.0637
      6 C          -0.2465    1.9170   -1.0065 C.ar    1  LIG1       -0.0184
      7 C           1.1484    1.9183   -1.0177 C.ar    1  LIG1        0.1246
      8 H          -0.7882    2.5565   -1.6940 H       1  LIG1        0.0654
      9 H          -2.0181    1.1051   -0.1057 H       1  LIG1        0.0631
     10 C          -0.9493   -0.5507    1.7055 C.1     1  LIG1       -0.0696
     11 C          -1.5439   -1.2455    2.4852 C.1     1  LIG1       -0.1139
     12 H          -2.0674   -1.8617    3.1786 H       1  LIG1        0.1232
     13 O           1.8486    2.7133   -1.8714 O.3     1  LIG1       -0.5062
     14 H           1.2555    3.1238   -2.5093 H       1  LIG1        0.2922
     15 C           4.0876   -0.1125   -0.1949 C.ar    1  LIG1        0.0333
     16 C           5.4839   -0.0755   -0.1482 C.ar    1  LIG1       -0.0345
     17 C           3.3608    1.0881   -0.1410 C.ar    1  LIG1        0.0045
     18 C           6.1850    1.1217   -0.0562 C.ar    1  LIG1        0.0260
     19 H           6.0315   -1.0071   -0.1926 H       1  LIG1        0.0637
     20 C           4.0580    2.2894   -0.0494 C.ar    1  LIG1       -0.0106
     21 C           5.4485    2.3132   -0.0074 C.ar    1  LIG1        0.1252
     22 H           3.5029    3.2194   -0.0157 H       1  LIG1        0.0661
     23 C           3.4369   -1.3961   -0.3218 C.1     1  LIG1       -0.0690
     24 C           2.9235   -2.4777   -0.4284 C.1     1  LIG1       -0.1139
     25 H           2.4609   -3.4323   -0.5246 H       1  LIG1        0.1232
     26 O           6.1302    3.4873    0.0918 O.3     1  LIG1       -0.5061
     27 H           5.5312    4.2294   -0.0424 H       1  LIG1        0.2922
     28 C           8.4448    0.3934   -0.9201 C.ar    1  LIG1        0.0333
     29 C           9.8396    0.3947   -0.8039 C.ar    1  LIG1       -0.0345
     30 C           7.6761    1.1274   -0.0027 C.ar    1  LIG1        0.0045
     31 C          10.4877    1.1117    0.1918 C.ar    1  LIG1        0.0260
     32 H          10.4269   -0.1591   -1.5247 H       1  LIG1        0.0637
     33 C           8.3259    1.8438    1.0015 C.ar    1  LIG1       -0.0106
     34 C           9.7123    1.8392    1.1045 C.ar    1  LIG1        0.1252
     35 H           7.7345    2.4068    1.7136 H       1  LIG1        0.0661
     36 C           7.8470   -0.3435   -2.0094 C.1     1  LIG1       -0.0690
     37 C           7.3833   -0.9645   -2.9286 C.1     1  LIG1       -0.1139
     38 H           6.9626   -1.5064   -3.7434 H       1  LIG1        0.1232
     39 O          10.3637    2.4938    2.0959 O.3     1  LIG1       -0.5061
     40 H           9.7720    3.1070    2.5439 H       1  LIG1        0.2922
     41 C          12.7223    2.2856    0.1407 C.ar    1  LIG1        0.0327
     42 C          14.1147    2.2281    0.2055 C.ar    1  LIG1       -0.0423
     43 C          11.9766    1.1012    0.2873 C.ar    1  LIG1        0.0045
     44 C          14.7723    1.0210    0.4075 C.ar    1  LIG1       -0.0190
     45 H          14.6810    3.1419    0.0868 H       1  LIG1        0.0631
     46 C          12.6355   -0.1052    0.4846 C.ar    1  LIG1       -0.0112
     47 C          14.0282   -0.1479    0.5454 C.ar    1  LIG1        0.1175
     48 H          12.0795   -1.0251    0.6087 H       1  LIG1        0.0660
     49 H          15.8546    0.9894    0.4560 H       1  LIG1        0.0654
     50 C          12.0748    3.5502   -0.1148 C.1     1  LIG1       -0.0690
     51 C          11.5615    4.6122   -0.3473 C.1     1  LIG1       -0.1139
     52 H          11.0993    5.5478   -0.5606 H       1  LIG1        0.1232
     53 O          14.6025   -1.3635    0.7448 O.3     1  LIG1       -0.5067
     54 H          15.5618   -1.2856    0.7760 H       1  LIG1        0.2921
@<TRIPOS>BOND
     1    38    37    1
     2    37    36    3
     3    14    13    1
     4    36    28    1
     5    13     7    1
     6     8     6    1
     7    32    29    1
     8     7     6   ar
     9     7     4   ar
    10     6     3   ar
    11    28    29   ar
    12    28    30   ar
    13    29    31   ar
    14    52    51    1
    15    25    24    1
    16    24    23    3
    17    51    50    3
    18    23    15    1
    19    15    16   ar
    20    15    17   ar
    21    19    16    1
    22    16    18   ar
    23    17     4    1
    24    17    20   ar
    25     4     2   ar
    26     3     9    1
    27     3     1   ar
    28    50    41    1
    29    18    21   ar
    30    18    30    1
    31    20    22    1
    32    20    21   ar
    33    27    26    1
    34    21    26    1
    35    30    33   ar
    36    45    42    1
    37    41    42   ar
    38    41    43   ar
    39    31    43    1
    40    31    34   ar
    41    42    44   ar
    42    43    46   ar
    43    44    49    1
    44    44    47   ar
    45    46    47   ar
    46    46    48    1
    47    47    53    1
    48    53    54    1
    49     2     1   ar
    50     2     5    1
    51     1    10    1
    52    33    34   ar
    53    33    35    1
    54    34    39    1
    55    10    11    3
    56    39    40    1
    57    11    12    1
