@<TRIPOS>MOLECULE
mol_data/opt/m06hf/geoms/mol2/4ef4ef-4ef4ef-.out
 54 57 0 0 0
SMALL
GASTEIGER

@<TRIPOS>ATOM
      1 C          -0.1867    1.0808   -1.1495 C.ar    1  LIG1        0.0255
      2 C           1.2115    1.0673   -1.1021 C.ar    1  LIG1       -0.0351
      3 C          -0.9088    1.0583    0.0450 C.ar    1  LIG1       -0.0429
      4 C           1.8879    1.0339    0.1111 C.ar    1  LIG1        0.0260
      5 H           1.7776    1.0989   -2.0239 H       1  LIG1        0.0637
      6 C          -0.2453    1.0114    1.2635 C.ar    1  LIG1       -0.0184
      7 C           1.1480    0.9932    1.3013 C.ar    1  LIG1        0.1246
      8 H          -0.8074    0.9757    2.1893 H       1  LIG1        0.0654
      9 H          -1.9897    1.0714    0.0127 H       1  LIG1        0.0631
     10 C          -0.8726    1.1217   -2.4192 C.1     1  LIG1       -0.0696
     11 C          -1.4424    1.1539   -3.4769 C.1     1  LIG1       -0.1139
     12 H          -1.9434    1.1823   -4.4162 H       1  LIG1        0.1232
     13 O           1.8392    0.9056    2.4623 O.3     1  LIG1       -0.5062
     14 H           1.2562    1.0216    3.2192 H       1  LIG1        0.2922
     15 C           4.1013    2.0608    0.7625 C.ar    1  LIG1        0.0333
     16 C           5.4938    2.0156    0.7601 C.ar    1  LIG1       -0.0345
     17 C           3.3802    1.0215    0.1473 C.ar    1  LIG1        0.0045
     18 C           6.1919    0.9680    0.1612 C.ar    1  LIG1        0.0260
     19 H           6.0475    2.8117    1.2416 H       1  LIG1        0.0637
     20 C           4.0687   -0.0181   -0.4610 C.ar    1  LIG1       -0.0106
     21 C           5.4639   -0.0544   -0.4626 C.ar    1  LIG1        0.1252
     22 H           3.5356   -0.8299   -0.9380 H       1  LIG1        0.0661
     23 C           3.4294    3.1877    1.3641 C.1     1  LIG1       -0.0690
     24 C           2.8914    4.1464    1.8501 C.1     1  LIG1       -0.1139
     25 H           2.4120    4.9969    2.2751 H       1  LIG1        0.1232
     26 O           6.0440   -1.0877   -1.1116 O.3     1  LIG1       -0.5061
     27 H           6.9911   -1.1233   -0.9288 H       1  LIG1        0.2922
     28 C           8.4518   -0.0434    0.7133 C.ar    1  LIG1        0.0333
     29 C           9.8501    0.0378    0.6804 C.ar    1  LIG1       -0.0345
     30 C           7.6856    0.9882    0.1471 C.ar    1  LIG1        0.0045
     31 C          10.5006    1.1209    0.1091 C.ar    1  LIG1        0.0260
     32 H          10.4347   -0.7674    1.1066 H       1  LIG1        0.0637
     33 C           8.3398    2.0823   -0.4196 C.ar    1  LIG1       -0.0106
     34 C           9.7291    2.1592   -0.4341 C.ar    1  LIG1        0.1252
     35 H           7.7477    2.8795   -0.8554 H       1  LIG1        0.0661
     36 C           7.8212   -1.1832    1.3369 C.1     1  LIG1       -0.0690
     37 C           7.2970   -2.1446    1.8328 C.1     1  LIG1       -0.1139
     38 H           6.8234   -2.9929    2.2702 H       1  LIG1        0.1232
     39 O          10.3887    3.2215   -0.9464 O.3     1  LIG1       -0.5061
     40 H           9.7836    3.8191   -1.3979 H       1  LIG1        0.2922
     41 C          12.6953    1.1992   -1.1314 C.ar    1  LIG1        0.0327
     42 C          14.0900    1.2312   -1.1118 C.ar    1  LIG1       -0.0423
     43 C          11.9916    1.1846    0.0864 C.ar    1  LIG1        0.0045
     44 C          14.7869    1.2441    0.0902 C.ar    1  LIG1       -0.0190
     45 H          14.6262    1.2382   -2.0507 H       1  LIG1        0.0631
     46 C          12.6884    1.1919    1.2874 C.ar    1  LIG1       -0.0112
     47 C          14.0832    1.2206    1.2917 C.ar    1  LIG1        0.1175
     48 H          12.1629    1.1892    2.2329 H       1  LIG1        0.0660
     49 H          15.8705    1.2690    0.0921 H       1  LIG1        0.0654
     50 C          11.9987    1.1413   -2.3942 C.1     1  LIG1       -0.0690
     51 C          11.4356    1.0731   -3.4540 C.1     1  LIG1       -0.1139
     52 H          10.9353    1.0080   -4.3920 H       1  LIG1        0.1232
     53 O          14.6972    1.2278    2.5031 O.3     1  LIG1       -0.5067
     54 H          15.6544    1.2526    2.4008 H       1  LIG1        0.2921
@<TRIPOS>BOND
     1    12    11    1
     2    52    51    1
     3    11    10    3
     4    51    50    3
     5    10     1    1
     6    50    41    1
     7    45    42    1
     8     5     2    1
     9    40    39    1
    10     1     2   ar
    11     1     3   ar
    12    41    42   ar
    13    41    43   ar
    14    42    44   ar
    15    26    27    1
    16    26    21    1
    17     2     4   ar
    18    39    34    1
    19    22    20    1
    20    35    33    1
    21    21    20   ar
    22    21    18   ar
    23    20    17   ar
    24    34    33   ar
    25    34    31   ar
    26    33    30   ar
    27     9     3    1
    28     3     6   ar
    29    43    31    1
    30    43    46   ar
    31    44    49    1
    32    44    47   ar
    33    31    29   ar
    34     4    17    1
    35     4     7   ar
    36    30    18    1
    37    30    28   ar
    38    17    15   ar
    39    18    16   ar
    40    29    28   ar
    41    29    32    1
    42    28    36    1
    43    16    15   ar
    44    16    19    1
    45    15    23    1
    46     6     7   ar
    47     6     8    1
    48    46    47   ar
    49    46    48    1
    50    47    53    1
    51     7    13    1
    52    36    37    3
    53    23    24    3
    54    37    38    1
    55    24    25    1
    56    54    53    1
    57    13    14    1
