@<TRIPOS>MOLECULE
mol_data/opt/m06hf/geoms/mol2/4ef4ef-.out
 28 29 0 0 0
SMALL
GASTEIGER

@<TRIPOS>ATOM
      1 C           0.0026    0.1914   -0.4091 C.ar    1  LIG1        0.0255
      2 C           1.4014    0.1995   -0.4041 C.ar    1  LIG1       -0.0351
      3 C          -0.6869    1.2286    0.2212 C.ar    1  LIG1       -0.0429
      4 C           2.1113    1.2207    0.2157 C.ar    1  LIG1        0.0260
      5 H           1.9424   -0.5942   -0.9028 H       1  LIG1        0.0637
      6 C           0.0106    2.2481    0.8550 C.ar    1  LIG1       -0.0184
      7 C           1.4045    2.2456    0.8590 C.ar    1  LIG1        0.1246
      8 H          -0.5258    3.0436    1.3588 H       1  LIG1        0.0654
      9 H          -1.7683    1.2283    0.2184 H       1  LIG1        0.0631
     10 C          -0.7179   -0.8771   -1.0603 C.1     1  LIG1       -0.0696
     11 C          -1.3174   -1.7679   -1.6012 C.1     1  LIG1       -0.1139
     12 H          -1.8464   -2.5580   -2.0818 H       1  LIG1        0.1232
     13 O           2.1281    3.1971    1.4956 O.3     1  LIG1       -0.5062
     14 H           1.5652    3.9247    1.7787 H       1  LIG1        0.2922
     15 C           4.3313    2.2479   -0.4098 C.ar    1  LIG1        0.0327
     16 C           5.7253    2.1914   -0.4177 C.ar    1  LIG1       -0.0423
     17 C           3.6038    1.2150    0.2095 C.ar    1  LIG1        0.0045
     18 C           6.4015    1.1302    0.1712 C.ar    1  LIG1       -0.0190
     19 H           6.2779    2.9866   -0.8993 H       1  LIG1        0.0631
     20 C           4.2808    0.1524    0.7934 C.ar    1  LIG1       -0.0112
     21 C           5.6748    0.1071    0.7746 C.ar    1  LIG1        0.1175
     22 H           3.7392   -0.6472    1.2809 H       1  LIG1        0.0660
     23 H           7.4845    1.0965    0.1562 H       1  LIG1        0.0654
     24 C           3.6609    3.3424   -1.0703 C.1     1  LIG1       -0.0690
     25 C           3.1236    4.2522   -1.6436 C.1     1  LIG1       -0.1139
     26 H           2.6429    5.0525   -2.1557 H       1  LIG1        0.1232
     27 O           6.2674   -0.9639    1.3650 O.3     1  LIG1       -0.5067
     28 H           7.2264   -0.8963    1.3111 H       1  LIG1        0.2921
@<TRIPOS>BOND
     1    26    25    1
     2    12    11    1
     3    25    24    3
     4    11    10    3
     5    24    15    1
     6    10     1    1
     7     5     2    1
     8    19    16    1
     9    16    15   ar
    10    16    18   ar
    11    15    17   ar
    12     1     2   ar
    13     1     3   ar
    14     2     4   ar
    15    23    18    1
    16    18    21   ar
    17    17     4    1
    18    17    20   ar
    19     4     7   ar
    20     9     3    1
    21     3     6   ar
    22    21    20   ar
    23    21    27    1
    24    20    22    1
    25     6     7   ar
    26     6     8    1
    27     7    13    1
    28    28    27    1
    29    13    14    1
