@<TRIPOS>MOLECULE
mol_data/opt/m06hf/geoms/mol2/4ef4ef4ef.out
 41 43 0 0 0
SMALL
GASTEIGER

@<TRIPOS>ATOM
      1 C          -0.1709    0.3990    0.7171 C.ar    1  LIG1        0.0255
      2 C           1.2255    0.3901    0.7547 C.ar    1  LIG1       -0.0351
      3 C          -0.8238    1.1280   -0.2797 C.ar    1  LIG1       -0.0429
      4 C           1.9793    1.0953   -0.1799 C.ar    1  LIG1        0.0260
      5 H           1.7326   -0.1760    1.5244 H       1  LIG1        0.0637
      6 C          -0.0877    1.8398   -1.2147 C.ar    1  LIG1       -0.0184
      7 C           1.3061    1.8295   -1.1667 C.ar    1  LIG1        0.1246
      8 H          -0.5928    2.4079   -1.9874 H       1  LIG1        0.0654
      9 H          -1.9048    1.1363   -0.3137 H       1  LIG1        0.0631
     10 C          -0.9310   -0.3361    1.7003 C.1     1  LIG1       -0.0696
     11 C          -1.5651   -0.9449    2.5196 C.1     1  LIG1       -0.1139
     12 H          -2.1238   -1.4847    3.2482 H       1  LIG1        0.1232
     13 O           2.0515    2.5275   -2.0654 O.3     1  LIG1       -0.5062
     14 H           1.4883    2.8994   -2.7521 H       1  LIG1        0.2922
     15 C           4.1855   -0.1289   -0.0252 C.ar    1  LIG1        0.0333
     16 C           5.5800   -0.0974    0.0656 C.ar    1  LIG1       -0.0345
     17 C           3.4703    1.0762   -0.1191 C.ar    1  LIG1        0.0045
     18 C           6.2888    1.0983    0.0612 C.ar    1  LIG1        0.0260
     19 H           6.1206   -1.0320    0.1326 H       1  LIG1        0.0637
     20 C           4.1762    2.2761   -0.1253 C.ar    1  LIG1       -0.0106
     21 C           5.5642    2.2940   -0.0356 C.ar    1  LIG1        0.1252
     22 H           3.6293    3.2079   -0.2095 H       1  LIG1        0.0661
     23 C           3.5251   -1.4138   -0.0443 C.1     1  LIG1       -0.0690
     24 C           3.0068   -2.4983   -0.0571 C.1     1  LIG1       -0.1139
     25 H           2.5410   -3.4561   -0.0698 H       1  LIG1        0.1232
     26 O           6.2569    3.4653   -0.0311 O.3     1  LIG1       -0.5061
     27 H           5.6721    4.1980   -0.2518 H       1  LIG1        0.2922
     28 C           8.5721    0.3103   -0.6758 C.ar    1  LIG1        0.0327
     29 C           9.9642    0.3148   -0.5133 C.ar    1  LIG1       -0.0423
     30 C           7.7773    1.1028    0.1669 C.ar    1  LIG1        0.0045
     31 C          10.5681    1.0908    0.4596 C.ar    1  LIG1       -0.0190
     32 H          10.5646   -0.2997   -1.1701 H       1  LIG1        0.0631
     33 C           8.3913    1.8899    1.1406 C.ar    1  LIG1       -0.0112
     34 C           9.7739    1.8861    1.2865 C.ar    1  LIG1        0.1175
     35 H           7.7755    2.5138    1.7780 H       1  LIG1        0.0660
     36 H          11.6404    1.1033    0.5962 H       1  LIG1        0.0654
     37 C           7.9983   -0.4957   -1.7283 C.1     1  LIG1       -0.0690
     38 C           7.5474   -1.1732   -2.6132 C.1     1  LIG1       -0.1139
     39 H           7.1343   -1.7664   -3.3955 H       1  LIG1        0.1232
     40 O          10.4065    2.6380    2.2256 O.3     1  LIG1       -0.5067
     41 H           9.7691    3.1557    2.7286 H       1  LIG1        0.2921
@<TRIPOS>BOND
     1    39    38    1
     2    14    13    1
     3    38    37    3
     4    13     7    1
     5     8     6    1
     6    37    28    1
     7     6     7   ar
     8     6     3   ar
     9    32    29    1
    10     7     4   ar
    11    28    29   ar
    12    28    30   ar
    13    29    31   ar
    14     9     3    1
    15     3     1   ar
    16    27    26    1
    17    22    20    1
    18     4    17    1
    19     4     2   ar
    20    20    17   ar
    21    20    21   ar
    22    17    15   ar
    23    25    24    1
    24    24    23    3
    25    23    15    1
    26    21    26    1
    27    21    18   ar
    28    15    16   ar
    29    18    16   ar
    30    18    30    1
    31    16    19    1
    32    30    33   ar
    33    31    36    1
    34    31    34   ar
    35     1     2   ar
    36     1    10    1
    37     2     5    1
    38    33    34   ar
    39    33    35    1
    40    34    40    1
    41    10    11    3
    42    40    41    1
    43    11    12    1
