@<TRIPOS>MOLECULE
mol_data/opt/m06hf/geoms/mol2/4ef4ef.out
 28 29 0 0 0
SMALL
GASTEIGER

@<TRIPOS>ATOM
      1 C          -0.0456    0.1287    0.4168 C.ar    1  LIG1        0.0255
      2 C           1.3500    0.1335    0.4775 C.ar    1  LIG1       -0.0351
      3 C          -0.7084    1.2023   -0.1824 C.ar    1  LIG1       -0.0429
      4 C           2.0937    1.1875   -0.0460 C.ar    1  LIG1        0.0260
      5 H           1.8638   -0.6988    0.9389 H       1  LIG1        0.0637
      6 C           0.0178    2.2623   -0.7038 C.ar    1  LIG1       -0.0184
      7 C           1.4111    2.2602   -0.6357 C.ar    1  LIG1        0.1246
      8 H          -0.4945    3.0970   -1.1678 H       1  LIG1        0.0654
      9 H          -1.7885    1.2018   -0.2340 H       1  LIG1        0.0631
     10 C          -0.7947   -0.9757    0.9683 C.1     1  LIG1       -0.0696
     11 C          -1.4205   -1.8944    1.4249 C.1     1  LIG1       -0.1139
     12 H          -1.9737   -2.7092    1.8304 H       1  LIG1        0.1232
     13 O           2.1468    3.2898   -1.1350 O.3     1  LIG1       -0.5062
     14 H           1.5762    3.9203   -1.5863 H       1  LIG1        0.2922
     15 C           4.3264    0.0653   -0.4091 C.ar    1  LIG1        0.0327
     16 C           5.7226    0.0781   -0.2861 C.ar    1  LIG1       -0.0423
     17 C           3.5852    1.1735    0.0296 C.ar    1  LIG1        0.0045
     18 C           6.3828    1.1663    0.2551 C.ar    1  LIG1       -0.0190
     19 H           6.2808   -0.7817   -0.6298 H       1  LIG1        0.0631
     20 C           4.2560    2.2707    0.5694 C.ar    1  LIG1       -0.0112
     21 C           5.6420    2.2695    0.6810 C.ar    1  LIG1        0.1175
     22 H           3.6823    3.1298    0.8963 H       1  LIG1        0.0660
     23 H           7.4588    1.1893    0.3554 H       1  LIG1        0.0654
     24 C           3.6953   -1.0885   -1.0071 C.1     1  LIG1       -0.0690
     25 C           3.2014   -2.0633   -1.5093 C.1     1  LIG1       -0.1139
     26 H           2.7521   -2.9204   -1.9551 H       1  LIG1        0.1232
     27 O           6.3297    3.3179    1.2053 O.3     1  LIG1       -0.5067
     28 H           5.7273    4.0286    1.4475 H       1  LIG1        0.2921
@<TRIPOS>BOND
     1    26    25    1
     2    14    13    1
     3    25    24    3
     4     8     6    1
     5    13     7    1
     6    24    15    1
     7     6     7   ar
     8     6     3   ar
     9     7     4   ar
    10    19    16    1
    11    15    16   ar
    12    15    17   ar
    13    16    18   ar
    14     9     3    1
    15     3     1   ar
    16     4    17    1
    17     4     2   ar
    18    17    20   ar
    19    18    23    1
    20    18    21   ar
    21     1     2   ar
    22     1    10    1
    23     2     5    1
    24    20    21   ar
    25    20    22    1
    26    21    27    1
    27    10    11    3
    28    27    28    1
    29    11    12    1
