@<TRIPOS>MOLECULE
mol_data/opt/m06hf/geoms/mol2/4ef4ef4ef-4ef.out
 54 57 0 0 0
SMALL
GASTEIGER

@<TRIPOS>ATOM
      1 C          -0.2523    0.1183   -0.4413 C.ar    1  LIG1        0.0255
      2 C           1.1446    0.1121   -0.4505 C.ar    1  LIG1       -0.0351
      3 C          -0.9287    1.2415    0.0399 C.ar    1  LIG1       -0.0429
      4 C           1.8761    1.2030    0.0111 C.ar    1  LIG1        0.0260
      5 H           1.6682   -0.7587   -0.8212 H       1  LIG1        0.0637
      6 C          -0.2148    2.3391    0.4962 C.ar    1  LIG1       -0.0184
      7 C           1.1798    2.3254    0.4804 C.ar    1  LIG1        0.1246
      8 H          -0.7376    3.2131    0.8670 H       1  LIG1        0.0654
      9 H          -2.0101    1.2490    0.0507 H       1  LIG1        0.0631
     10 C          -0.9887   -1.0266   -0.9233 C.1     1  LIG1       -0.0696
     11 C          -1.6031   -1.9786   -1.3237 C.1     1  LIG1       -0.1139
     12 H          -2.1429   -2.8247   -1.6798 H       1  LIG1        0.1232
     13 O           1.9045    3.3912    0.9152 O.3     1  LIG1       -0.5062
     14 H           1.3269    4.0528    1.3101 H       1  LIG1        0.2922
     15 C           4.0827    0.1021    0.5551 C.ar    1  LIG1        0.0333
     16 C           5.4812    0.1058    0.5000 C.ar    1  LIG1       -0.0345
     17 C           3.3689    1.1756    0.0004 C.ar    1  LIG1        0.0045
     18 C           6.1857    1.1489   -0.0838 C.ar    1  LIG1        0.0260
     19 H           6.0262   -0.7165    0.9449 H       1  LIG1        0.0637
     20 C           4.0745    2.2204   -0.5938 C.ar    1  LIG1       -0.0106
     21 C           5.4641    2.2122   -0.6428 C.ar    1  LIG1        0.1252
     22 H           3.5256    3.0489   -1.0253 H       1  LIG1        0.0661
     23 C           3.4226   -1.0000    1.2159 C.1     1  LIG1       -0.0690
     24 C           2.9055   -1.9324    1.7718 C.1     1  LIG1       -0.1139
     25 H           2.4387   -2.7553    2.2619 H       1  LIG1        0.1232
     26 O           6.1693    3.1956   -1.2508 O.3     1  LIG1       -0.5061
     27 H           5.5895    3.9187   -1.5116 H       1  LIG1        0.2922
     28 C           8.4418    2.1237    0.5038 C.ar    1  LIG1        0.0333
     29 C           9.8321    2.0407    0.4625 C.ar    1  LIG1       -0.0345
     30 C           7.6767    1.1251   -0.1258 C.ar    1  LIG1        0.0045
     31 C          10.4852    0.9892   -0.1795 C.ar    1  LIG1        0.0260
     32 H          10.4203    2.8018    0.9590 H       1  LIG1        0.0637
     33 C           8.3207    0.0737   -0.7631 C.ar    1  LIG1       -0.0106
     34 C           9.7137   -0.0043   -0.7967 C.ar    1  LIG1        0.1252
     35 H           7.7529   -0.6983   -1.2652 H       1  LIG1        0.0661
     36 C           7.8175    3.2075    1.2241 C.1     1  LIG1       -0.0690
     37 C           7.3228    4.1094    1.8457 C.1     1  LIG1       -0.1139
     38 H           6.8785    4.9035    2.3988 H       1  LIG1        0.1232
     39 O          10.2480   -1.0425   -1.4770 O.3     1  LIG1       -0.5061
     40 H          11.1980   -1.1046   -1.3206 H       1  LIG1        0.2922
     41 C          12.7405   -0.0764    0.2861 C.ar    1  LIG1        0.0327
     42 C          14.1404   -0.0244    0.2108 C.ar    1  LIG1       -0.0423
     43 C          11.9780    0.9778   -0.2428 C.ar    1  LIG1        0.0045
     44 C          14.7812    1.0562   -0.3658 C.ar    1  LIG1       -0.0190
     45 H          14.7133   -0.8437    0.6234 H       1  LIG1        0.0631
     46 C          12.6316    2.0646   -0.8260 C.ar    1  LIG1       -0.0112
     47 C          14.0211    2.1073   -0.8840 C.ar    1  LIG1        0.1175
     48 H          12.0384    2.8698   -1.2455 H       1  LIG1        0.0660
     49 H          15.8589    1.1138   -0.4291 H       1  LIG1        0.0654
     50 C          12.1058   -1.2083    0.9203 C.1     1  LIG1       -0.0690
     51 C          11.5813   -2.1654    1.4241 C.1     1  LIG1       -0.1139
     52 H          11.1082   -3.0091    1.8706 H       1  LIG1        0.1232
     53 O          14.6975    3.1414   -1.4421 O.3     1  LIG1       -0.5067
     54 H          14.0921    3.8157   -1.7684 H       1  LIG1        0.2921
@<TRIPOS>BOND
     1    54    53    1
     2    12    11    1
     3    27    26    1
     4    39    40    1
     5    39    34    1
     6    53    47    1
     7    11    10    3
     8    35    33    1
     9    26    21    1
    10    48    46    1
    11    22    20    1
    12    10     1    1
    13    47    46   ar
    14    47    44   ar
    15    46    43   ar
    16     5     2    1
    17    34    33   ar
    18    34    31   ar
    19    33    30   ar
    20    21    20   ar
    21    21    18   ar
    22    20    17   ar
    23     2     1   ar
    24     2     4   ar
    25     1     3   ar
    26    49    44    1
    27    44    42   ar
    28    43    31    1
    29    43    41   ar
    30    31    29   ar
    31    30    18    1
    32    30    28   ar
    33    18    16   ar
    34    17     4    1
    35    17    15   ar
    36     4     7   ar
    37     3     9    1
    38     3     6   ar
    39    42    41   ar
    40    42    45    1
    41    41    50    1
    42    29    28   ar
    43    29    32    1
    44     7     6   ar
    45     7    13    1
    46     6     8    1
    47    16    15   ar
    48    16    19    1
    49    28    36    1
    50    15    23    1
    51    13    14    1
    52    50    51    3
    53    23    24    3
    54    36    37    3
    55    51    52    1
    56    24    25    1
    57    37    38    1
