@<TRIPOS>MOLECULE
mol_data/opt/m06hf/geoms/mol2/4ef4ef4ef4ef.out
 54 57 0 0 0
SMALL
GASTEIGER

@<TRIPOS>ATOM
      1 C          -0.2920    0.7821    0.8400 C.ar    1  LIG1        0.0255
      2 C           1.1041    0.7643    0.8748 C.ar    1  LIG1       -0.0351
      3 C          -0.9427    1.0743   -0.3608 C.ar    1  LIG1       -0.0429
      4 C           1.8611    1.0326   -0.2628 C.ar    1  LIG1        0.0260
      5 H           1.6077    0.5361    1.8043 H       1  LIG1        0.0637
      6 C          -0.2038    1.3524   -1.5005 C.ar    1  LIG1       -0.0184
      7 C           1.1902    1.3362   -1.4558 C.ar    1  LIG1        0.1246
      8 H          -0.7065    1.5825   -2.4327 H       1  LIG1        0.0654
      9 H          -2.0236    1.0869   -0.3931 H       1  LIG1        0.0631
     10 C          -1.0536    0.5024    2.0346 C.1     1  LIG1       -0.0696
     11 C          -1.6880    0.2681    3.0281 C.1     1  LIG1       -0.1139
     12 H          -2.2456    0.0594    3.9113 H       1  LIG1        0.1232
     13 O           1.9371    1.6126   -2.5587 O.3     1  LIG1       -0.5062
     14 H           1.3702    1.7197   -3.3298 H       1  LIG1        0.2922
     15 C           4.0423   -0.0816    0.3644 C.ar    1  LIG1        0.0333
     16 C           5.4387   -0.0570    0.4210 C.ar    1  LIG1       -0.0345
     17 C           3.3524    1.0009   -0.2055 C.ar    1  LIG1        0.0045
     18 C           6.1765    1.0105   -0.0790 C.ar    1  LIG1        0.0260
     19 H           5.9566   -0.8994    0.8586 H       1  LIG1        0.0637
     20 C           4.0866    2.0747   -0.7027 C.ar    1  LIG1       -0.0106
     21 C           5.4763    2.0858   -0.6442 C.ar    1  LIG1        0.1252
     22 H           3.5610    2.9080   -1.1537 H       1  LIG1        0.0661
     23 C           3.3573   -1.2453    0.8785 C.1     1  LIG1       -0.0690
     24 C           2.8223   -2.2285    1.3167 C.1     1  LIG1       -0.1139
     25 H           2.3411   -3.0971    1.7020 H       1  LIG1        0.1232
     26 O           6.1935    3.1371   -1.1252 O.3     1  LIG1       -0.5061
     27 H           5.6180    3.7444   -1.6020 H       1  LIG1        0.2922
     28 C           8.4206   -0.1086   -0.4116 C.ar    1  LIG1        0.0333
     29 C           9.8134   -0.0766   -0.2991 C.ar    1  LIG1       -0.0345
     30 C           7.6667    1.0068   -0.0098 C.ar    1  LIG1        0.0045
     31 C          10.4870    1.0348    0.1953 C.ar    1  LIG1        0.0260
     32 H          10.3804   -0.9424   -0.6135 H       1  LIG1        0.0637
     33 C           8.3370    2.1211    0.4890 C.ar    1  LIG1       -0.0106
     34 C           9.7239    2.1417    0.5925 C.ar    1  LIG1        0.1252
     35 H           7.7629    2.9898    0.7892 H       1  LIG1        0.0661
     36 C           7.8064   -1.2925   -0.9675 C.1     1  LIG1       -0.0690
     37 C           7.3299   -2.2920   -1.4359 C.1     1  LIG1       -0.1139
     38 H           6.8973   -3.1727   -1.8506 H       1  LIG1        0.1232
     39 O          10.3775    3.2284    1.0860 O.3     1  LIG1       -0.5061
     40 H           9.7588    3.9532    1.2251 H       1  LIG1        0.2922
     41 C          12.7903    0.6551   -0.7718 C.ar    1  LIG1        0.0327
     42 C          14.1827    0.6411   -0.6110 C.ar    1  LIG1       -0.0423
     43 C          11.9754    1.0399    0.3045 C.ar    1  LIG1        0.0045
     44 C          14.7684    1.0045    0.5880 C.ar    1  LIG1       -0.0190
     45 H          14.7966    0.3441   -1.4504 H       1  LIG1        0.0631
     46 C          12.5718    1.4117    1.5096 C.ar    1  LIG1       -0.0112
     47 C          13.9546    1.3971    1.6510 C.ar    1  LIG1        0.1175
     48 H          11.9414    1.7249    2.3339 H       1  LIG1        0.0660
     49 H          15.8407    0.9998    0.7256 H       1  LIG1        0.0654
     50 C          12.2417    0.2933   -2.0584 C.1     1  LIG1       -0.0690
     51 C          11.8196   -0.0130   -3.1417 C.1     1  LIG1       -0.1139
     52 H          11.4301   -0.2800   -4.0966 H       1  LIG1        0.1232
     53 O          14.5704    1.7512    2.8098 O.3     1  LIG1       -0.5067
     54 H          13.9235    2.0422    3.4610 H       1  LIG1        0.2921
@<TRIPOS>BOND
     1    52    51    1
     2    14    13    1
     3    51    50    3
     4    13     7    1
     5     8     6    1
     6    50    41    1
     7    38    37    1
     8    27    26    1
     9     6     7   ar
    10     6     3   ar
    11     7     4   ar
    12    45    42    1
    13    37    36    3
    14    22    20    1
    15    26    21    1
    16    36    28    1
    17    41    42   ar
    18    41    43   ar
    19    20    21   ar
    20    20    17   ar
    21    21    18   ar
    22    32    29    1
    23    42    44   ar
    24    28    29   ar
    25    28    30   ar
    26     9     3    1
    27     3     1   ar
    28    29    31   ar
    29     4    17    1
    30     4     2   ar
    31    17    15   ar
    32    18    30    1
    33    18    16   ar
    34    30    33   ar
    35    31    43    1
    36    31    34   ar
    37    43    46   ar
    38    15    16   ar
    39    15    23    1
    40    16    19    1
    41    33    34   ar
    42    33    35    1
    43    44    49    1
    44    44    47   ar
    45    34    39    1
    46     1     2   ar
    47     1    10    1
    48     2     5    1
    49    23    24    3
    50    39    40    1
    51    24    25    1
    52    46    47   ar
    53    46    48    1
    54    47    53    1
    55    10    11    3
    56    53    54    1
    57    11    12    1
