@<TRIPOS>MOLECULE
mol_data/opt/m06hf/geoms/mol2/4ef4ef-4ef.out
 41 43 0 0 0
SMALL
GASTEIGER

@<TRIPOS>ATOM
      1 C          -4.8600   -0.2714    0.9572 C.ar    1  LIG1        0.0255
      2 C          -3.4614   -0.2841    0.9678 C.ar    1  LIG1       -0.0351
      3 C          -5.5280    0.2284   -0.1622 C.ar    1  LIG1       -0.0429
      4 C          -2.7312    0.1880   -0.1159 C.ar    1  LIG1        0.0260
      5 H          -2.9372   -0.6842    1.8260 H       1  LIG1        0.0637
      6 C          -4.8097    0.7163   -1.2452 C.ar    1  LIG1       -0.0184
      7 C          -3.4161    0.7015   -1.2252 C.ar    1  LIG1        0.1246
      8 H          -5.3288    1.1211   -2.1061 H       1  LIG1        0.0654
      9 H          -6.6094    0.2382   -0.1755 H       1  LIG1        0.0631
     10 C          -5.6014   -0.7755    2.0890 C.1     1  LIG1       -0.0696
     11 C          -6.2158   -1.1967    3.0322 C.1     1  LIG1       -0.1139
     12 H          -6.7563   -1.5711    3.8699 H       1  LIG1        0.1232
     13 O          -2.6726    1.1984   -2.2428 O.3     1  LIG1       -0.5062
     14 H          -3.2166    1.3477   -3.0226 H       1  LIG1        0.2922
     15 C          -0.5214   -0.6179   -1.0312 C.ar    1  LIG1        0.0333
     16 C           0.8688   -0.6582   -0.9520 C.ar    1  LIG1       -0.0345
     17 C          -1.2392    0.1491   -0.0957 C.ar    1  LIG1        0.0045
     18 C           1.5694    0.0432    0.0290 C.ar    1  LIG1        0.0260
     19 H           1.4204   -1.2488   -1.6722 H       1  LIG1        0.0637
     20 C          -0.5491    0.8490    0.8832 C.ar    1  LIG1       -0.0106
     21 C           0.8444    0.8068    0.9540 C.ar    1  LIG1        0.1252
     22 H          -1.0796    1.4506    1.6092 H       1  LIG1        0.0661
     23 C          -1.1986   -1.3924   -2.0436 C.1     1  LIG1       -0.0690
     24 C          -1.7442   -2.0607   -2.8805 C.1     1  LIG1       -0.1139
     25 H          -2.2315   -2.6548   -3.6177 H       1  LIG1        0.1232
     26 O           1.4202    1.4951    1.9649 O.3     1  LIG1       -0.5061
     27 H           2.3668    1.6048    1.8137 H       1  LIG1        0.2922
     28 C           3.9295    0.9882    0.0244 C.ar    1  LIG1        0.0327
     29 C           5.3141    0.7763    0.0997 C.ar    1  LIG1       -0.0423
     30 C           3.0537   -0.1058    0.1150 C.ar    1  LIG1        0.0045
     31 C           5.8313   -0.4969    0.2512 C.ar    1  LIG1       -0.0190
     32 H           5.9751    1.6293    0.0273 H       1  LIG1        0.0631
     33 C           3.5832   -1.3882    0.2702 C.ar    1  LIG1       -0.0112
     34 C           4.9591   -1.5851    0.3333 C.ar    1  LIG1        0.1175
     35 H           2.9038   -2.2289    0.3568 H       1  LIG1        0.0660
     36 H           6.8954   -0.6781    0.3090 H       1  LIG1        0.0654
     37 C           3.4220    2.3290   -0.1508 C.1     1  LIG1       -0.0690
     38 C           2.9941    3.4470   -0.2638 C.1     1  LIG1       -0.1139
     39 H           2.6036    4.4327   -0.3718 H       1  LIG1        0.1232
     40 O           5.5124   -2.8133    0.4857 O.3     1  LIG1       -0.5067
     41 H           4.8332   -3.4958    0.5048 H       1  LIG1        0.2921
@<TRIPOS>BOND
     1    25    24    1
     2    14    13    1
     3    24    23    3
     4    13     7    1
     5     8     6    1
     6    23    15    1
     7    19    16    1
     8     6     7   ar
     9     6     3   ar
    10     7     4   ar
    11    15    16   ar
    12    15    17   ar
    13    16    18   ar
    14    39    38    1
    15    38    37    3
    16     9     3    1
    17     3     1   ar
    18    37    28    1
    19     4    17    1
    20     4     2   ar
    21    17    20   ar
    22    28    29   ar
    23    28    30   ar
    24    32    29    1
    25    18    30    1
    26    18    21   ar
    27    29    31   ar
    28    30    33   ar
    29    31    36    1
    30    31    34   ar
    31    33    34   ar
    32    33    35    1
    33    34    40    1
    34    40    41    1
    35    20    21   ar
    36    20    22    1
    37    21    26    1
    38     1     2   ar
    39     1    10    1
    40     2     5    1
    41    27    26    1
    42    10    11    3
    43    11    12    1
