@<TRIPOS>MOLECULE
mol_data/opt/m06hf/geoms/mol2/4ef4ef4ef-4ef-.out
 54 57 0 0 0
SMALL
GASTEIGER

@<TRIPOS>ATOM
      1 C          -0.2258    0.0609   -0.4423 C.ar    1  LIG1        0.0255
      2 C           1.1711    0.0754   -0.4354 C.ar    1  LIG1       -0.0351
      3 C          -0.9242    1.1770    0.0235 C.ar    1  LIG1       -0.0429
      4 C           1.8812    1.1801    0.0270 C.ar    1  LIG1        0.0260
      5 H           1.7118   -0.7897   -0.7948 H       1  LIG1        0.0637
      6 C          -0.2318    2.2881    0.4805 C.ar    1  LIG1       -0.0184
      7 C           1.1628    2.2950    0.4809 C.ar    1  LIG1        0.1246
      8 H          -0.7717    3.1568    0.8392 H       1  LIG1        0.0654
      9 H          -2.0056    1.1688    0.0215 H       1  LIG1        0.0631
     10 C          -0.9397   -1.0974   -0.9260 C.1     1  LIG1       -0.0696
     11 C          -1.5358   -2.0603   -1.3279 C.1     1  LIG1       -0.1139
     12 H          -2.0592   -2.9163   -1.6849 H       1  LIG1        0.1232
     13 O           1.8663    3.3747    0.9167 O.3     1  LIG1       -0.5062
     14 H           1.2736    4.0287    1.3019 H       1  LIG1        0.2922
     15 C           4.1010    0.1165    0.5949 C.ar    1  LIG1        0.0333
     16 C           5.4996    0.1425    0.5516 C.ar    1  LIG1       -0.0345
     17 C           3.3742    1.1763    0.0305 C.ar    1  LIG1        0.0045
     18 C           6.1923    1.1954   -0.0298 C.ar    1  LIG1        0.0260
     19 H           6.0534   -0.6683    1.0067 H       1  LIG1        0.0637
     20 C           4.0679    2.2289   -0.5631 C.ar    1  LIG1       -0.0106
     21 C           5.4578    2.2434   -0.6003 C.ar    1  LIG1        0.1252
     22 H           3.5103    3.0447   -1.0074 H       1  LIG1        0.0661
     23 C           3.4533   -0.9934    1.2551 C.1     1  LIG1       -0.0690
     24 C           2.9469   -1.9318    1.8106 C.1     1  LIG1       -0.1139
     25 H           2.4902   -2.7605    2.3002 H       1  LIG1        0.1232
     26 O           6.1491    3.2346   -1.2130 O.3     1  LIG1       -0.5061
     27 H           5.5796    3.9938   -1.3739 H       1  LIG1        0.2922
     28 C           8.4212    2.2316    0.5612 C.ar    1  LIG1        0.0333
     29 C           9.8132    2.1815    0.5419 C.ar    1  LIG1       -0.0345
     30 C           7.6840    1.2001   -0.0511 C.ar    1  LIG1        0.0045
     31 C          10.4921    1.1230   -0.0590 C.ar    1  LIG1        0.0260
     32 H          10.3778    2.9734    1.0162 H       1  LIG1        0.0637
     33 C           8.3562    0.1466   -0.6553 C.ar    1  LIG1       -0.0106
     34 C           9.7504    0.1020   -0.6638 C.ar    1  LIG1        0.1252
     35 H           7.8116   -0.6471   -1.1491 H       1  LIG1        0.0661
     36 C           7.7645    3.3171    1.2503 C.1     1  LIG1       -0.0690
     37 C           7.2444    4.2197    1.8500 C.1     1  LIG1       -0.1139
     38 H           6.7803    5.0142    2.3860 H       1  LIG1        0.1232
     39 O          10.3326   -0.9520   -1.2861 O.3     1  LIG1       -0.5061
     40 H          11.2893   -0.8255   -1.3298 H       1  LIG1        0.2922
     41 C          12.7638    2.0879   -0.6193 C.ar    1  LIG1        0.0327
     42 C          14.1567    1.9857   -0.5902 C.ar    1  LIG1       -0.0423
     43 C          11.9842    1.0597   -0.0559 C.ar    1  LIG1        0.0045
     44 C          14.7840    0.8831   -0.0257 C.ar    1  LIG1       -0.0190
     45 H          14.7462    2.7812   -1.0248 H       1  LIG1        0.0631
     46 C          12.6180   -0.0449    0.5111 C.ar    1  LIG1       -0.0112
     47 C          14.0102   -0.1362    0.5257 C.ar    1  LIG1        0.1175
     48 H          12.0409   -0.8369    0.9729 H       1  LIG1        0.0660
     49 H          15.8655    0.8159   -0.0142 H       1  LIG1        0.0654
     50 C          12.1514    3.2374   -1.2413 C.1     1  LIG1       -0.0690
     51 C          11.6612    4.1998   -1.7680 C.1     1  LIG1       -0.1139
     52 H          11.2107    5.0456   -2.2329 H       1  LIG1        0.1232
     53 O          14.5495   -1.2416    1.0971 O.3     1  LIG1       -0.5067
     54 H          15.5117   -1.2037    1.0826 H       1  LIG1        0.2921
@<TRIPOS>BOND
     1    52    51    1
     2    51    50    3
     3    12    11    1
     4    27    26    1
     5    40    39    1
     6    11    10    3
     7    39    34    1
     8    50    41    1
     9    26    21    1
    10    35    33    1
    11    45    42    1
    12    22    20    1
    13    10     1    1
    14     5     2    1
    15    34    33   ar
    16    34    31   ar
    17    33    30   ar
    18    41    42   ar
    19    41    43   ar
    20    21    20   ar
    21    21    18   ar
    22    42    44   ar
    23    20    17   ar
    24     1     2   ar
    25     1     3   ar
    26     2     4   ar
    27    31    43    1
    28    31    29   ar
    29    43    46   ar
    30    30    18    1
    31    30    28   ar
    32    18    16   ar
    33    44    49    1
    34    44    47   ar
    35     9     3    1
    36     3     6   ar
    37     4    17    1
    38     4     7   ar
    39    17    15   ar
    40     6     7   ar
    41     6     8    1
    42     7    13    1
    43    46    47   ar
    44    46    48    1
    45    47    53    1
    46    29    28   ar
    47    29    32    1
    48    16    15   ar
    49    16    19    1
    50    28    36    1
    51    15    23    1
    52    13    14    1
    53    54    53    1
    54    36    37    3
    55    23    24    3
    56    24    25    1
    57    37    38    1
