@<TRIPOS>MOLECULE
mol_data/opt/m06hf/geoms/mol2/4ef4ef-4ef-4ef-.out
 54 57 0 0 0
SMALL
GASTEIGER

@<TRIPOS>ATOM
      1 C          -0.2105    0.0997   -0.0847 C.ar    1  LIG1        0.0255
      2 C           1.1885    0.1096   -0.0624 C.ar    1  LIG1       -0.0351
      3 C          -0.8987    1.3102   -0.1836 C.ar    1  LIG1       -0.0429
      4 C           1.8986    1.3016   -0.1334 C.ar    1  LIG1        0.0260
      5 H           1.7280   -0.8240    0.0300 H       1  LIG1        0.0637
      6 C          -0.2008    2.5073   -0.2691 C.ar    1  LIG1       -0.0184
      7 C           1.1929    2.5075   -0.2488 C.ar    1  LIG1        0.1246
      8 H          -0.7360    3.4448   -0.3630 H       1  LIG1        0.0654
      9 H          -1.9801    1.3068   -0.1988 H       1  LIG1        0.0631
     10 C          -0.9322   -1.1477    0.0010 C.1     1  LIG1       -0.0696
     11 C          -1.5326   -2.1863    0.0738 C.1     1  LIG1       -0.1139
     12 H          -2.0606   -3.1088    0.1391 H       1  LIG1        0.1232
     13 O           1.9173    3.6459   -0.3642 O.3     1  LIG1       -0.5062
     14 H           1.3517    4.4211   -0.2914 H       1  LIG1        0.2922
     15 C           4.0866    1.9317    0.9532 C.ar    1  LIG1        0.0333
     16 C           5.4788    1.8928    0.9704 C.ar    1  LIG1       -0.0345
     17 C           3.3910    1.2997   -0.0942 C.ar    1  LIG1        0.0045
     18 C           6.1965    1.2304   -0.0232 C.ar    1  LIG1        0.0260
     19 H           6.0123    2.3764    1.7780 H       1  LIG1        0.0637
     20 C           4.1009    0.6425   -1.0887 C.ar    1  LIG1       -0.0106
     21 C           5.4954    0.6049   -1.0605 C.ar    1  LIG1        0.1252
     22 H           3.5878    0.1666   -1.9134 H       1  LIG1        0.0661
     23 C           3.3834    2.5876    2.0300 C.1     1  LIG1       -0.0690
     24 C           2.8216    3.1222    2.9482 C.1     1  LIG1       -0.1139
     25 H           2.3230    3.5884    3.7653 H       1  LIG1        0.1232
     26 O           6.1197   -0.0443   -2.0731 O.3     1  LIG1       -0.5061
     27 H           7.0754    0.0831   -2.0105 H       1  LIG1        0.2922
     28 C           8.4693    2.3446    0.0125 C.ar    1  LIG1        0.0333
     29 C           9.8599    2.2424    0.0453 C.ar    1  LIG1       -0.0345
     30 C           7.6885    1.1724    0.0089 C.ar    1  LIG1        0.0045
     31 C          10.4969    1.0046    0.0724 C.ar    1  LIG1        0.0260
     32 H          10.4552    3.1461    0.0471 H       1  LIG1        0.0637
     33 C           8.3236   -0.0671    0.0245 C.ar    1  LIG1       -0.0106
     34 C           9.7159   -0.1576    0.0526 C.ar    1  LIG1        0.1252
     35 H           7.7487   -0.9850    0.0382 H       1  LIG1        0.0661
     36 C           7.8591    3.6522   -0.0296 C.1     1  LIG1       -0.0690
     37 C           7.3678    4.7481   -0.0668 C.1     1  LIG1       -0.1139
     38 H           6.9181    5.7130   -0.1016 H       1  LIG1        0.1232
     39 O          10.2553   -1.3980    0.0621 O.3     1  LIG1       -0.5061
     40 H          11.2185   -1.3447    0.0055 H       1  LIG1        0.2922
     41 C          12.7980    1.4612   -0.8747 C.ar    1  LIG1        0.0327
     42 C          14.1861    1.3344   -0.7807 C.ar    1  LIG1       -0.0423
     43 C          11.9857    0.8984    0.1272 C.ar    1  LIG1        0.0045
     44 C          14.7742    0.6536    0.2768 C.ar    1  LIG1       -0.0190
     45 H          14.8026    1.7706   -1.5546 H       1  LIG1        0.0631
     46 C          12.5792    0.2179    1.1891 C.ar    1  LIG1       -0.0112
     47 C          13.9670    0.0940    1.2652 C.ar    1  LIG1        0.1175
     48 H          11.9768   -0.1990    1.9873 H       1  LIG1        0.0660
     49 H          15.8525    0.5604    0.3339 H       1  LIG1        0.0654
     50 C          12.2238    2.1555   -2.0026 C.1     1  LIG1       -0.0690
     51 C          11.7684    2.7388   -2.9493 C.1     1  LIG1       -0.1139
     52 H          11.3545    3.2527   -3.7859 H       1  LIG1        0.1232
     53 O          14.4671   -0.5769    2.3313 O.3     1  LIG1       -0.5067
     54 H          15.4298   -0.5950    2.3101 H       1  LIG1        0.2921
@<TRIPOS>BOND
     1    52    51    1
     2    51    50    3
     3    26    27    1
     4    26    21    1
     5    50    41    1
     6    22    20    1
     7    45    42    1
     8    20    21   ar
     9    20    17   ar
    10    21    18   ar
    11    41    42   ar
    12    41    43   ar
    13    42    44   ar
    14    13    14    1
    15    13     7    1
    16     8     6    1
    17     6     7   ar
    18     6     3   ar
    19     7     4   ar
    20     9     3    1
    21     3     1   ar
    22     4    17    1
    23     4     2   ar
    24    38    37    1
    25    17    15   ar
    26     1     2   ar
    27     1    10    1
    28    37    36    3
    29     2     5    1
    30    36    28    1
    31    18    30    1
    32    18    16   ar
    33    10    11    3
    34    40    39    1
    35    30    28   ar
    36    30    33   ar
    37    28    29   ar
    38    33    35    1
    39    33    34   ar
    40    29    32    1
    41    29    31   ar
    42    34    39    1
    43    34    31   ar
    44    31    43    1
    45    11    12    1
    46    43    46   ar
    47    44    49    1
    48    44    47   ar
    49    15    16   ar
    50    15    23    1
    51    16    19    1
    52    46    47   ar
    53    46    48    1
    54    47    53    1
    55    23    24    3
    56    54    53    1
    57    24    25    1
