@<TRIPOS>MOLECULE
mol_data/opt/m06hf/geoms/mol2/4eg.out
 15 15 0 0 0
SMALL
GASTEIGER

@<TRIPOS>ATOM
      1 C           0.0825    0.0158    0.0032 C.ar    1  LIG1        0.0247
      2 C           1.4809    0.0176    0.0025 C.ar    1  LIG1       -0.0453
      3 C          -0.6052    1.2319    0.0126 C.ar    1  LIG1       -0.0453
      4 C           2.1785    1.2170    0.0081 C.ar    1  LIG1       -0.0474
      5 H           2.0128   -0.9237   -0.0064 H       1  LIG1        0.0630
      6 C           0.0925    2.4330    0.0243 C.ar    1  LIG1       -0.0474
      7 C           1.4878    2.4309    0.0201 C.ar    1  LIG1        0.0048
      8 H          -0.4540    3.3670    0.0395 H       1  LIG1        0.0629
      9 H           3.2611    1.2119   -0.0009 H       1  LIG1        0.0629
     10 H          -1.6865    1.2300    0.0136 H       1  LIG1        0.0630
     11 C          -0.6444   -1.2319   -0.0061 C.1     1  LIG1       -0.0697
     12 C          -1.2491   -2.2703   -0.0136 C.1     1  LIG1       -0.1139
     13 H          -1.7849   -3.1911   -0.0201 H       1  LIG1        0.1232
     14 S           2.4545    3.9237    0.0476 S.3     1  LIG1       -0.1426
     15 H           1.4328    4.7668   -0.1243 H       1  LIG1        0.1071
@<TRIPOS>BOND
     1    15    14    1
     2    13    12    1
     3    12    11    3
     4     5     2    1
     5    11     1    1
     6     9     4    1
     7     2     1   ar
     8     2     4   ar
     9     1     3   ar
    10     4     7   ar
    11     3    10    1
    12     3     6   ar
    13     7     6   ar
    14     7    14    1
    15     6     8    1
