@<TRIPOS>MOLECULE
mol_data/opt/m06hf/geoms/mol2/4eg4eg4eg-4eg.out
 54 57 0 0 0
SMALL
GASTEIGER

@<TRIPOS>ATOM
      1 C          -0.2431    0.1720    0.6370 C.ar    1  LIG1        0.0253
      2 C           1.1519    0.1672    0.6534 C.ar    1  LIG1       -0.0375
      3 C          -0.9156    1.1314   -0.1265 C.ar    1  LIG1       -0.0453
      4 C           1.8748    1.1059   -0.0783 C.ar    1  LIG1       -0.0024
      5 H           1.6815   -0.5750    1.2363 H       1  LIG1        0.0636
      6 C          -0.2018    2.0648   -0.8621 C.ar    1  LIG1       -0.0468
      7 C           1.1957    2.0571   -0.8497 C.ar    1  LIG1        0.0126
      8 H          -0.7357    2.7994   -1.4510 H       1  LIG1        0.0629
      9 H          -1.9971    1.1382   -0.1385 H       1  LIG1        0.0630
     10 C          -0.9847   -0.8037    1.4005 C.1     1  LIG1       -0.0696
     11 C          -1.6043   -1.6154    2.0340 C.1     1  LIG1       -0.1139
     12 H          -2.1513   -2.3364    2.5959 H       1  LIG1        0.1232
     13 S           2.1564    3.2110   -1.8061 S.3     1  LIG1       -0.1420
     14 H           1.1041    3.7564   -2.4252 H       1  LIG1        0.1071
     15 C           4.0898    0.0302   -0.6227 C.ar    1  LIG1        0.0330
     16 C           5.4835    0.0409   -0.5665 C.ar    1  LIG1       -0.0369
     17 C           3.3694    1.0833   -0.0378 C.ar    1  LIG1       -0.0004
     18 C           6.1724    1.0783    0.0558 C.ar    1  LIG1       -0.0023
     19 H           6.0393   -0.7708   -1.0167 H       1  LIG1        0.0636
     20 C           4.0570    2.1145    0.5943 C.ar    1  LIG1       -0.0390
     21 C           5.4517    2.1236    0.6490 C.ar    1  LIG1        0.0131
     22 H           3.4851    2.9131    1.0511 H       1  LIG1        0.0635
     23 C           3.4070   -1.0539   -1.2879 C.1     1  LIG1       -0.0690
     24 C           2.8466   -1.9612   -1.8415 C.1     1  LIG1       -0.1139
     25 H           2.3422   -2.7612   -2.3321 H       1  LIG1        0.1232
     26 S           6.3462    3.4146    1.4869 S.3     1  LIG1       -0.1420
     27 H           5.2602    4.0693    1.9084 H       1  LIG1        0.1071
     28 C           8.3738    0.0355    0.7199 C.ar    1  LIG1        0.0330
     29 C           9.7695    0.0492    0.7021 C.ar    1  LIG1       -0.0369
     30 C           7.6669    1.0622    0.0733 C.ar    1  LIG1       -0.0004
     31 C          10.4702    1.0675    0.0650 C.ar    1  LIG1       -0.0023
     32 H          10.3154   -0.7447    1.1944 H       1  LIG1        0.0636
     33 C           8.3701    2.0717   -0.5787 C.ar    1  LIG1       -0.0390
     34 C           9.7649    2.0880   -0.5850 C.ar    1  LIG1        0.0131
     35 H           7.8109    2.8462   -1.0896 H       1  LIG1        0.0635
     36 C           7.6832   -1.0288    1.4089 C.1     1  LIG1       -0.0690
     37 C           7.1241   -1.9232    1.9852 C.1     1  LIG1       -0.1139
     38 H           6.6217   -2.7118    2.4962 H       1  LIG1        0.1232
     39 S          10.6958    3.3520   -1.4192 S.3     1  LIG1       -0.1420
     40 H           9.6316    4.0089   -1.8917 H       1  LIG1        0.1071
     41 C          12.6840    0.1342   -0.6902 C.ar    1  LIG1        0.0325
     42 C          14.0821    0.1552   -0.6603 C.ar    1  LIG1       -0.0447
     43 C          11.9657    1.0634    0.0752 C.ar    1  LIG1       -0.0004
     44 C          14.7571    1.0896    0.1097 C.ar    1  LIG1       -0.0474
     45 H          14.6302   -0.5621   -1.2556 H       1  LIG1        0.0630
     46 C          12.6495    1.9938    0.8560 C.ar    1  LIG1       -0.0396
     47 C          14.0428    2.0147    0.8744 C.ar    1  LIG1        0.0054
     48 H          12.0760    2.6958    1.4492 H       1  LIG1        0.0635
     49 H          15.8398    1.1057    0.1146 H       1  LIG1        0.0629
     50 C          11.9952   -0.8331   -1.5110 C.1     1  LIG1       -0.0691
     51 C          11.4361   -1.6463   -2.1965 C.1     1  LIG1       -0.1139
     52 H          10.9342   -2.3636   -2.8038 H       1  LIG1        0.1232
     53 S          14.9751    3.1591    1.8635 S.3     1  LIG1       -0.1426
     54 H          13.9549    3.9627    2.1734 H       1  LIG1        0.1071
@<TRIPOS>BOND
     1    52    51    1
     2    14    13    1
     3    25    24    1
     4    51    50    3
     5    40    39    1
     6    24    23    3
     7    13     7    1
     8    50    41    1
     9     8     6    1
    10    39    34    1
    11    23    15    1
    12    45    42    1
    13    35    33    1
    14    19    16    1
    15     6     7   ar
    16     6     3   ar
    17     7     4   ar
    18    41    42   ar
    19    41    43   ar
    20    42    44   ar
    21    15    16   ar
    22    15    17   ar
    23    34    33   ar
    24    34    31   ar
    25    33    30   ar
    26    16    18   ar
    27     9     3    1
    28     3     1   ar
    29     4    17    1
    30     4     2   ar
    31    17    20   ar
    32    18    30    1
    33    18    21   ar
    34    31    43    1
    35    31    29   ar
    36    30    28   ar
    37    43    46   ar
    38    44    49    1
    39    44    47   ar
    40    20    21   ar
    41    20    22    1
    42     1     2   ar
    43     1    10    1
    44    21    26    1
    45     2     5    1
    46    29    28   ar
    47    29    32    1
    48    28    36    1
    49    46    47   ar
    50    46    48    1
    51    47    53    1
    52    10    11    3
    53    36    37    3
    54    26    27    1
    55    53    54    1
    56    37    38    1
    57    11    12    1
