@<TRIPOS>MOLECULE
mol_data/opt/m06hf/geoms/mol2/4eg4eg4eg-4eg-.out
 54 57 0 0 0
SMALL
GASTEIGER

@<TRIPOS>ATOM
      1 C          -0.2461    0.1814    0.6136 C.ar    1  LIG1        0.0253
      2 C           1.1488    0.1766    0.6367 C.ar    1  LIG1       -0.0375
      3 C          -0.9148    1.1312   -0.1650 C.ar    1  LIG1       -0.0453
      4 C           1.8753    1.1060   -0.1032 C.ar    1  LIG1       -0.0024
      5 H           1.6755   -0.5583    1.2313 H       1  LIG1        0.0636
      6 C          -0.1973    2.0553   -0.9088 C.ar    1  LIG1       -0.0468
      7 C           1.2000    2.0476   -0.8896 C.ar    1  LIG1        0.0126
      8 H          -0.7283    2.7826   -1.5093 H       1  LIG1        0.0629
      9 H          -1.9963    1.1381   -0.1823 H       1  LIG1        0.0630
     10 C          -0.9915   -0.7846    1.3857 C.1     1  LIG1       -0.0696
     11 C          -1.6143   -1.5883    2.0263 C.1     1  LIG1       -0.1139
     12 H          -2.1641   -2.3021    2.5945 H       1  LIG1        0.1232
     13 S           2.1656    3.1894   -1.8556 S.3     1  LIG1       -0.1420
     14 H           1.1163    3.7274   -2.4864 H       1  LIG1        0.1071
     15 C           4.0926    0.0232   -0.6236 C.ar    1  LIG1        0.0330
     16 C           5.4860    0.0343   -0.5608 C.ar    1  LIG1       -0.0369
     17 C           3.3697    1.0836   -0.0553 C.ar    1  LIG1       -0.0004
     18 C           6.1722    1.0792    0.0518 C.ar    1  LIG1       -0.0023
     19 H           6.0438   -0.7831   -0.9982 H       1  LIG1        0.0636
     20 C           4.0545    2.1225    0.5671 C.ar    1  LIG1       -0.0390
     21 C           5.4490    2.1319    0.6284 C.ar    1  LIG1        0.0131
     22 H           3.4807    2.9269    1.0112 H       1  LIG1        0.0635
     23 C           3.4128   -1.0690   -1.2785 C.1     1  LIG1       -0.0690
     24 C           2.8548   -1.9830   -1.8235 C.1     1  LIG1       -0.1139
     25 H           2.3525   -2.7890   -2.3065 H       1  LIG1        0.1232
     26 S           6.3398    3.4331    1.4545 S.3     1  LIG1       -0.1420
     27 H           5.2520    4.0933    1.8626 H       1  LIG1        0.1071
     28 C           8.3700    0.0441    0.7394 C.ar    1  LIG1        0.0330
     29 C           9.7658    0.0573    0.7282 C.ar    1  LIG1       -0.0369
     30 C           7.6667    1.0629    0.0767 C.ar    1  LIG1       -0.0004
     31 C          10.4699    1.0673    0.0819 C.ar    1  LIG1       -0.0023
     32 H          10.3091   -0.7307    1.2329 H       1  LIG1        0.0636
     33 C           8.3733    2.0641   -0.5843 C.ar    1  LIG1       -0.0390
     34 C           9.7682    2.0800   -0.5840 C.ar    1  LIG1        0.0131
     35 H           7.8168    2.8324   -1.1074 H       1  LIG1        0.0635
     36 C           7.6758   -1.0114    1.4382 C.1     1  LIG1       -0.0690
     37 C           7.1136   -1.8983    2.0229 C.1     1  LIG1       -0.1139
     38 H           6.6085   -2.6804    2.5414 H       1  LIG1        0.1232
     39 S          10.7034    3.3333   -1.4292 S.3     1  LIG1       -0.1420
     40 H           9.6418    3.9845   -1.9150 H       1  LIG1        0.1071
     41 C          12.6871    0.1242   -0.6507 C.ar    1  LIG1        0.0325
     42 C          14.0850    0.1451   -0.6143 C.ar    1  LIG1       -0.0447
     43 C          11.9654    1.0630    0.0995 C.ar    1  LIG1       -0.0004
     44 C          14.7566    1.0889    0.1473 C.ar    1  LIG1       -0.0474
     45 H          14.6358   -0.5798   -1.1979 H       1  LIG1        0.0630
     46 C          12.6457    2.0029    0.8720 C.ar    1  LIG1       -0.0396
     47 C          14.0388    2.0236    0.8969 C.ar    1  LIG1        0.0054
     48 H          12.0695    2.7124    1.4536 H       1  LIG1        0.0635
     49 H          15.8393    1.1047    0.1573 H       1  LIG1        0.0629
     50 C          12.0019   -0.8531   -1.4628 C.1     1  LIG1       -0.0691
     51 C          11.4459   -1.6746   -2.1409 C.1     1  LIG1       -0.1139
     52 H          10.9467   -2.3993   -2.7416 H       1  LIG1        0.1232
     53 S          14.9667    3.1799    1.8763 S.3     1  LIG1       -0.1426
     54 H          13.9453    3.9876    2.1711 H       1  LIG1        0.1071
@<TRIPOS>BOND
     1    52    51    1
     2    14    13    1
     3    25    24    1
     4    51    50    3
     5    40    39    1
     6    13     7    1
     7    24    23    3
     8     8     6    1
     9    50    41    1
    10    39    34    1
    11    23    15    1
    12    45    42    1
    13    35    33    1
    14    19    16    1
    15     6     7   ar
    16     6     3   ar
    17     7     4   ar
    18    41    42   ar
    19    41    43   ar
    20    15    16   ar
    21    15    17   ar
    22    42    44   ar
    23    33    34   ar
    24    33    30   ar
    25    34    31   ar
    26    16    18   ar
    27     9     3    1
    28     3     1   ar
    29     4    17    1
    30     4     2   ar
    31    17    20   ar
    32    18    30    1
    33    18    21   ar
    34    30    28   ar
    35    31    43    1
    36    31    29   ar
    37    43    46   ar
    38    44    49    1
    39    44    47   ar
    40    20    21   ar
    41    20    22    1
    42     1     2   ar
    43     1    10    1
    44    21    26    1
    45     2     5    1
    46    29    28   ar
    47    29    32    1
    48    28    36    1
    49    46    47   ar
    50    46    48    1
    51    47    53    1
    52    10    11    3
    53    36    37    3
    54    26    27    1
    55    53    54    1
    56    37    38    1
    57    11    12    1
