@<TRIPOS>MOLECULE
mol_data/opt/m06hf/geoms/mol2/4eg4eg-4eg4eg.out
 54 57 0 0 0
SMALL
GASTEIGER

@<TRIPOS>ATOM
      1 C          -0.2458    0.1769   -0.5993 C.ar    1  LIG1        0.0253
      2 C           1.1492    0.1715   -0.6211 C.ar    1  LIG1       -0.0375
      3 C          -0.9149    1.1348    0.1691 C.ar    1  LIG1       -0.0453
      4 C           1.8753    1.1082    0.1100 C.ar    1  LIG1       -0.0024
      5 H           1.6762   -0.5695   -1.2078 H       1  LIG1        0.0636
      6 C          -0.1978    2.0661    0.9042 C.ar    1  LIG1       -0.0468
      7 C           1.1996    2.0578    0.8863 C.ar    1  LIG1        0.0126
      8 H          -0.7291    2.7995    1.4969 H       1  LIG1        0.0629
      9 H          -1.9964    1.1420    0.1854 H       1  LIG1        0.0630
     10 C          -0.9907   -0.7967   -1.3622 C.1     1  LIG1       -0.0696
     11 C          -1.6131   -1.6066   -1.9952 C.1     1  LIG1       -0.1139
     12 H          -2.1627   -2.3260   -2.5567 H       1  LIG1        0.1232
     13 S           2.1646    3.2091    1.8416 S.3     1  LIG1       -0.1420
     14 H           1.1149    3.7535    2.4662 H       1  LIG1        0.1071
     15 C           4.0919    0.0302    0.6432 C.ar    1  LIG1        0.0330
     16 C           5.4853    0.0403    0.5815 C.ar    1  LIG1       -0.0369
     17 C           3.3697    1.0850    0.0636 C.ar    1  LIG1       -0.0004
     18 C           6.1723    1.0788   -0.0411 C.ar    1  LIG1       -0.0023
     19 H           6.0425   -0.7727    1.0276 H       1  LIG1        0.0636
     20 C           4.0553    2.1174   -0.5687 C.ar    1  LIG1       -0.0390
     21 C           5.4498    2.1258   -0.6289 C.ar    1  LIG1        0.0131
     22 H           3.4820    2.9173   -1.0214 H       1  LIG1        0.0635
     23 C           3.4112   -1.0551    1.3085 C.1     1  LIG1       -0.0690
     24 C           2.8525   -1.9635    1.8623 C.1     1  LIG1       -0.1139
     25 H           2.3496   -2.7644    2.3529 H       1  LIG1        0.1232
     26 S           6.3416    3.4184   -1.4674 S.3     1  LIG1       -0.1420
     27 H           5.2543    4.0746   -1.8830 H       1  LIG1        0.1071
     28 C           8.3705    0.0364   -0.7162 C.ar    1  LIG1        0.0330
     29 C           9.7662    0.0493   -0.7040 C.ar    1  LIG1       -0.0369
     30 C           7.6668    1.0619   -0.0646 C.ar    1  LIG1       -0.0004
     31 C          10.4700    1.0657   -0.0674 C.ar    1  LIG1       -0.0023
     32 H          10.3098   -0.7438   -1.2003 H       1  LIG1        0.0636
     33 C           8.3731    2.0696    0.5869 C.ar    1  LIG1       -0.0390
     34 C           9.7680    2.0852    0.5876 C.ar    1  LIG1        0.0131
     35 H           7.8163    2.8433    1.1017 H       1  LIG1        0.0635
     36 C           7.6766   -1.0261   -1.4049 C.1     1  LIG1       -0.0690
     37 C           7.1148   -1.9188   -1.9811 C.1     1  LIG1       -0.1139
     38 H           6.6100   -2.7059   -2.4921 H       1  LIG1        0.1232
     39 S          10.7028    3.3468    1.4209 S.3     1  LIG1       -0.1420
     40 H           9.6409    4.0031    1.8991 H       1  LIG1        0.1071
     41 C          12.6864    0.1295    0.6766 C.ar    1  LIG1        0.0325
     42 C          14.0843    0.1498    0.6412 C.ar    1  LIG1       -0.0447
     43 C          11.9655    1.0609   -0.0837 C.ar    1  LIG1       -0.0004
     44 C          14.7568    1.0857   -0.1293 C.ar    1  LIG1       -0.0474
     45 H          14.6344   -0.5692    1.2326 H       1  LIG1        0.0630
     46 C          12.6467    1.9928   -0.8650 C.ar    1  LIG1       -0.0396
     47 C          14.0398    2.0130   -0.8890 C.ar    1  LIG1        0.0054
     48 H          12.0712    2.6965   -1.4543 H       1  LIG1        0.0635
     49 H          15.8394    1.1012   -0.1386 H       1  LIG1        0.0629
     50 C          12.0004   -0.8394    1.4979 C.1     1  LIG1       -0.0691
     51 C          11.4436   -1.6538    2.1839 C.1     1  LIG1       -0.1139
     52 H          10.9438   -2.3723    2.7914 H       1  LIG1        0.1232
     53 S          14.9688    3.1591   -1.8793 S.3     1  LIG1       -0.1426
     54 H          13.9478    3.9639   -2.1832 H       1  LIG1        0.1071
@<TRIPOS>BOND
     1    12    11    1
     2    38    37    1
     3    54    53    1
     4    11    10    3
     5    37    36    3
     6    27    26    1
     7    53    47    1
     8    26    21    1
     9    48    46    1
    10    36    28    1
    11    10     1    1
    12     5     2    1
    13    32    29    1
    14    22    20    1
    15    47    46   ar
    16    47    44   ar
    17    46    43   ar
    18    28    29   ar
    19    28    30   ar
    20    29    31   ar
    21    21    20   ar
    22    21    18   ar
    23     2     1   ar
    24     2     4   ar
    25     1     3   ar
    26    20    17   ar
    27    49    44    1
    28    44    42   ar
    29    43    31    1
    30    43    41   ar
    31    31    34   ar
    32    30    18    1
    33    30    33   ar
    34    18    16   ar
    35    17     4    1
    36    17    15   ar
    37     4     7   ar
    38     3     9    1
    39     3     6   ar
    40    16    15   ar
    41    16    19    1
    42    33    34   ar
    43    33    35    1
    44    34    39    1
    45    42    41   ar
    46    42    45    1
    47    15    23    1
    48    41    50    1
    49     7     6   ar
    50     7    13    1
    51     6     8    1
    52    23    24    3
    53    39    40    1
    54    50    51    3
    55    13    14    1
    56    24    25    1
    57    51    52    1
