@<TRIPOS>MOLECULE
mol_data/opt/m06hf/geoms/mol2/4eg4eg4eg4eg-.out
 54 57 0 0 0
SMALL
GASTEIGER

@<TRIPOS>ATOM
      1 C          -0.2141    0.4968    1.0165 C.ar    1  LIG1        0.0253
      2 C           1.1798    0.4793    0.9749 C.ar    1  LIG1       -0.0375
      3 C          -0.9231    1.0762   -0.0400 C.ar    1  LIG1       -0.0453
      4 C           1.8689    1.0316   -0.1029 C.ar    1  LIG1       -0.0024
      5 H           1.7362    0.0323    1.7881 H       1  LIG1        0.0636
      6 C          -0.2448    1.6197   -1.1200 C.ar    1  LIG1       -0.0468
      7 C           1.1520    1.5986   -1.1647 C.ar    1  LIG1        0.0126
      8 H          -0.8073    2.0579   -1.9342 H       1  LIG1        0.0629
      9 H          -2.0042    1.0952   -0.0078 H       1  LIG1        0.0630
     10 C          -0.9161   -0.0734    2.1422 C.1     1  LIG1       -0.0696
     11 C          -1.5025   -0.5467    3.0788 C.1     1  LIG1       -0.1139
     12 H          -2.0203   -0.9655    3.9108 H       1  LIG1        0.1232
     13 S           2.0560    2.2479   -2.5552 S.3     1  LIG1       -0.1420
     14 H           0.9708    2.5711   -3.2648 H       1  LIG1        0.1071
     15 C           4.0820   -0.1880   -0.1136 C.ar    1  LIG1        0.0330
     16 C           5.4766   -0.1556   -0.0873 C.ar    1  LIG1       -0.0369
     17 C           3.3639    1.0186   -0.1014 C.ar    1  LIG1       -0.0004
     18 C           6.1694    1.0512   -0.0614 C.ar    1  LIG1       -0.0023
     19 H           6.0295   -1.0855   -0.0992 H       1  LIG1        0.0636
     20 C           4.0580    2.2244   -0.0721 C.ar    1  LIG1       -0.0390
     21 C           5.4531    2.2544   -0.0694 C.ar    1  LIG1        0.0131
     22 H           3.4920    3.1477   -0.0505 H       1  LIG1        0.0635
     23 C           3.4027   -1.4613   -0.1559 C.1     1  LIG1       -0.0690
     24 C           2.8558   -2.5306   -0.1864 C.1     1  LIG1       -0.1139
     25 H           2.3656   -3.4758   -0.2158 H       1  LIG1        0.1232
     26 S           6.3519    3.7924   -0.0953 S.3     1  LIG1       -0.1420
     27 H           5.2873    4.5432   -0.3964 H       1  LIG1        0.1071
     28 C           8.4127    0.5372   -1.0960 C.ar    1  LIG1        0.0330
     29 C           9.8059    0.5461   -1.0211 C.ar    1  LIG1       -0.0369
     30 C           7.6634    1.0459   -0.0234 C.ar    1  LIG1       -0.0004
     31 C          10.4629    1.0575    0.0939 C.ar    1  LIG1       -0.0023
     32 H          10.3853    0.1516   -1.8454 H       1  LIG1        0.0636
     33 C           8.3210    1.5454    1.0970 C.ar    1  LIG1       -0.0390
     34 C           9.7148    1.5581    1.1665 C.ar    1  LIG1        0.0131
     35 H           7.7279    1.9209    1.9224 H       1  LIG1        0.0635
     36 C           7.7631    0.0171   -2.2753 C.1     1  LIG1       -0.0690
     37 C           7.2347   -0.4202   -3.2619 C.1     1  LIG1       -0.1139
     38 H           6.7594   -0.8022   -4.1354 H       1  LIG1        0.1232
     39 S          10.5820    2.1746    2.5923 S.3     1  LIG1       -0.1420
     40 H           9.4819    2.3848    3.3204 H       1  LIG1        0.1071
     41 C          12.6837   -0.1277    0.2251 C.ar    1  LIG1        0.0325
     42 C          14.0810   -0.0813    0.2614 C.ar    1  LIG1       -0.0447
     43 C          11.9576    1.0687    0.1342 C.ar    1  LIG1       -0.0004
     44 C          14.7488    1.1326    0.2143 C.ar    1  LIG1       -0.0474
     45 H          14.6340   -1.0073    0.3370 H       1  LIG1        0.0630
     46 C          12.6351    2.2853    0.0723 C.ar    1  LIG1       -0.0396
     47 C          14.0275    2.3244    0.1151 C.ar    1  LIG1        0.0054
     48 H          12.0578    3.1977   -0.0174 H       1  LIG1        0.0635
     49 H          15.8304    1.1575    0.2572 H       1  LIG1        0.0629
     50 C          12.0074   -1.4016    0.2875 C.1     1  LIG1       -0.0691
     51 C          11.4622   -2.4714    0.3336 C.1     1  LIG1       -0.1139
     52 H          10.9743   -3.4175    0.3752 H       1  LIG1        0.1232
     53 S          14.9502    3.8395    0.0075 S.3     1  LIG1       -0.1426
     54 H          13.9173    4.6629    0.2023 H       1  LIG1        0.1071
@<TRIPOS>BOND
     1    38    37    1
     2    14    13    1
     3    37    36    3
     4    13     7    1
     5    36    28    1
     6     8     6    1
     7    32    29    1
     8     7     6   ar
     9     7     4   ar
    10     6     3   ar
    11    28    29   ar
    12    28    30   ar
    13    29    31   ar
    14    27    26    1
    15    25    24    1
    16    24    23    3
    17    23    15    1
    18    15    17   ar
    19    15    16   ar
    20     4    17    1
    21     4     2   ar
    22    17    20   ar
    23    19    16    1
    24    26    21    1
    25    16    18   ar
    26    20    21   ar
    27    20    22    1
    28    21    18   ar
    29    18    30    1
    30     3     9    1
    31     3     1   ar
    32    30    33   ar
    33    48    46    1
    34    53    47    1
    35    53    54    1
    36    46    47   ar
    37    46    43   ar
    38    31    43    1
    39    31    34   ar
    40    47    44   ar
    41    43    41   ar
    42    44    49    1
    43    44    42   ar
    44    41    42   ar
    45    41    50    1
    46    42    45    1
    47    50    51    3
    48    51    52    1
    49     2     1   ar
    50     2     5    1
    51     1    10    1
    52    33    34   ar
    53    33    35    1
    54    34    39    1
    55    10    11    3
    56    39    40    1
    57    11    12    1
