@<TRIPOS>MOLECULE
mol_data/opt/m06hf/geoms/mol2/4eg4eg-4eg-.out
 41 43 0 0 0
SMALL
GASTEIGER

@<TRIPOS>ATOM
      1 C          -0.1274    0.0374   -0.4758 C.ar    1  LIG1        0.0253
      2 C           1.2679    0.0379   -0.4775 C.ar    1  LIG1       -0.0375
      3 C          -0.8121    1.1371    0.0506 C.ar    1  LIG1       -0.0453
      4 C           1.9782    1.1197    0.0354 C.ar    1  LIG1       -0.0024
      5 H           1.8074   -0.8115   -0.8758 H       1  LIG1        0.0636
      6 C          -0.1098    2.2153    0.5674 C.ar    1  LIG1       -0.0468
      7 C           1.2874    2.2140    0.5686 C.ar    1  LIG1        0.0126
      8 H          -0.6527    3.0595    0.9724 H       1  LIG1        0.0629
      9 H          -1.8934    1.1396    0.0508 H       1  LIG1        0.0630
     10 C          -0.8564   -1.0871   -1.0136 C.1     1  LIG1       -0.0696
     11 C          -1.4671   -2.0198   -1.4617 C.1     1  LIG1       -0.1139
     12 H          -2.0072   -2.8469   -1.8605 H       1  LIG1        0.1232
     13 S           2.2387    3.5600    1.2408 S.3     1  LIG1       -0.1420
     14 H           1.1909    4.2094    1.7545 H       1  LIG1        0.1071
     15 C           4.1867    0.2606    0.8916 C.ar    1  LIG1        0.0330
     16 C           5.5814    0.2664    0.8575 C.ar    1  LIG1       -0.0369
     17 C           3.4738    1.0998    0.0218 C.ar    1  LIG1       -0.0004
     18 C           6.2744    1.0938   -0.0212 C.ar    1  LIG1       -0.0023
     19 H           6.1337   -0.3804    1.5265 H       1  LIG1        0.0636
     20 C           4.1662    1.9208   -0.8624 C.ar    1  LIG1       -0.0390
     21 C           5.5618    1.9242   -0.8954 C.ar    1  LIG1        0.0131
     22 H           3.5987    2.5574   -1.5306 H       1  LIG1        0.0635
     23 C           3.4917   -0.5938    1.8242 C.1     1  LIG1       -0.0690
     24 C           2.9208   -1.3071    2.6043 C.1     1  LIG1       -0.1139
     25 H           2.4094   -1.9347    3.2965 H       1  LIG1        0.1232
     26 S           6.4736    2.9385   -2.0381 S.3     1  LIG1       -0.1420
     27 H           5.3971    3.3764   -2.6992 H       1  LIG1        0.1071
     28 C           8.4882   -0.0409   -0.4361 C.ar    1  LIG1        0.0325
     29 C           9.8864   -0.0072   -0.4251 C.ar    1  LIG1       -0.0447
     30 C           7.7696    1.0897   -0.0208 C.ar    1  LIG1       -0.0004
     31 C          10.5632    1.1310   -0.0151 C.ar    1  LIG1       -0.0474
     32 H          10.4341   -0.8809   -0.7506 H       1  LIG1        0.0630
     33 C           8.4560    2.2270    0.4022 C.ar    1  LIG1       -0.0396
     34 C           9.8493    2.2568    0.4026 C.ar    1  LIG1        0.0054
     35 H           7.8835    3.0852    0.7334 H       1  LIG1        0.0635
     36 H          11.6458    1.1475   -0.0205 H       1  LIG1        0.0629
     37 C           7.8044   -1.2318   -0.8817 C.1     1  LIG1       -0.0691
     38 C           7.2505   -2.2324   -1.2498 C.1     1  LIG1       -0.1139
     39 H           6.7532   -3.1159   -1.5770 H       1  LIG1        0.1232
     40 S          10.7784    3.6738    0.9366 S.3     1  LIG1       -0.1426
     41 H           9.7324    4.4899    1.0861 H       1  LIG1        0.1071
@<TRIPOS>BOND
     1    27    26    1
     2    26    21    1
     3    12    11    1
     4    39    38    1
     5    22    20    1
     6    11    10    3
     7    38    37    3
     8    10     1    1
     9    21    20   ar
    10    21    18   ar
    11    37    28    1
    12     5     2    1
    13    20    17   ar
    14    32    29    1
    15     2     1   ar
    16     2     4   ar
    17     1     3   ar
    18    28    29   ar
    19    28    30   ar
    20    29    31   ar
    21    18    30    1
    22    18    16   ar
    23    30    33   ar
    24    36    31    1
    25    31    34   ar
    26    17     4    1
    27    17    15   ar
    28     4     7   ar
    29     3     9    1
    30     3     6   ar
    31    33    34   ar
    32    33    35    1
    33    34    40    1
    34     6     7   ar
    35     6     8    1
    36     7    13    1
    37    16    15   ar
    38    16    19    1
    39    15    23    1
    40    40    41    1
    41    13    14    1
    42    23    24    3
    43    24    25    1
