@<TRIPOS>MOLECULE
mol_data/opt/m06hf/geoms/mol2/4eg4eg4eg-.out
 41 43 0 0 0
SMALL
GASTEIGER

@<TRIPOS>ATOM
      1 C          -0.1290    0.0500    0.4897 C.ar    1  LIG1        0.0253
      2 C           1.2663    0.0499    0.4954 C.ar    1  LIG1       -0.0375
      3 C          -0.8116    1.1386   -0.0616 C.ar    1  LIG1       -0.0453
      4 C           1.9785    1.1205   -0.0382 C.ar    1  LIG1       -0.0024
      5 H           1.8043   -0.7911    0.9128 H       1  LIG1        0.0636
      6 C          -0.1075    2.2055   -0.5989 C.ar    1  LIG1       -0.0468
      7 C           1.2897    2.2036   -0.5962 C.ar    1  LIG1        0.0126
      8 H          -0.6488    3.0412   -1.0231 H       1  LIG1        0.0629
      9 H          -1.8930    1.1416   -0.0649 H       1  LIG1        0.0630
     10 C          -0.8600   -1.0627    1.0489 C.1     1  LIG1       -0.0696
     11 C          -1.4725   -1.9855    1.5148 C.1     1  LIG1       -0.1139
     12 H          -2.0141   -2.8039    1.9293 H       1  LIG1        0.1232
     13 S           2.2437    3.5347   -1.2935 S.3     1  LIG1       -0.1420
     14 H           1.1978    4.1739   -1.8237 H       1  LIG1        0.1071
     15 C           4.1888    0.2447   -0.8723 C.ar    1  LIG1        0.0330
     16 C           5.5834    0.2503   -0.8346 C.ar    1  LIG1       -0.0369
     17 C           3.4741    1.1002   -0.0201 C.ar    1  LIG1       -0.0004
     18 C           6.2745    1.0934    0.0306 C.ar    1  LIG1       -0.0023
     19 H           6.1371   -0.4091   -1.4900 H       1  LIG1        0.0636
     20 C           4.1646    1.9372    0.8505 C.ar    1  LIG1       -0.0390
     21 C           5.5600    1.9404    0.8872 C.ar    1  LIG1        0.0131
     22 H           3.5956    2.5863    1.5052 H       1  LIG1        0.0635
     23 C           3.4957   -0.6265   -1.7907 C.1     1  LIG1       -0.0690
     24 C           2.9262   -1.3539   -2.5587 C.1     1  LIG1       -0.1139
     25 H           2.4161   -1.9941   -3.2402 H       1  LIG1        0.1232
     26 S           6.4696    2.9747    2.0136 S.3     1  LIG1       -0.1420
     27 H           5.3916    3.4270    2.6625 H       1  LIG1        0.1071
     28 C           8.4861   -0.0344    0.4741 C.ar    1  LIG1        0.0325
     29 C           9.8844   -0.0020    0.4665 C.ar    1  LIG1       -0.0447
     30 C           7.7697    1.0884    0.0345 C.ar    1  LIG1       -0.0004
     31 C          10.5633    1.1273    0.0361 C.ar    1  LIG1       -0.0474
     32 H          10.4305   -0.8695    0.8107 H       1  LIG1        0.0630
     33 C           8.4582    2.2166   -0.4087 C.ar    1  LIG1       -0.0396
     34 C           9.8515    2.2452   -0.4057 C.ar    1  LIG1        0.0054
     35 H           7.8873    3.0686   -0.7582 H       1  LIG1        0.0635
     36 H          11.6458    1.1430    0.0442 H       1  LIG1        0.0629
     37 C           7.7999   -1.2157    0.9411 C.1     1  LIG1       -0.0691
     38 C           7.2440   -2.2083    1.3274 C.1     1  LIG1       -0.1139
     39 H           6.7449   -3.0847    1.6706 H       1  LIG1        0.1232
     40 S          10.7834    3.6506   -0.9648 S.3     1  LIG1       -0.1426
     41 H           9.7386    4.4642   -1.1347 H       1  LIG1        0.1071
@<TRIPOS>BOND
     1    25    24    1
     2    24    23    3
     3    14    13    1
     4    23    15    1
     5    19    16    1
     6    13     7    1
     7    41    40    1
     8     8     6    1
     9    40    34    1
    10    15    16   ar
    11    15    17   ar
    12    16    18   ar
    13    35    33    1
    14     6     7   ar
    15     6     3   ar
    16     7     4   ar
    17    33    34   ar
    18    33    30   ar
    19    34    31   ar
    20     9     3    1
    21     3     1   ar
    22     4    17    1
    23     4     2   ar
    24    17    20   ar
    25    18    30    1
    26    18    21   ar
    27    30    28   ar
    28    31    36    1
    29    31    29   ar
    30    29    28   ar
    31    29    32    1
    32    28    37    1
    33     1     2   ar
    34     1    10    1
    35     2     5    1
    36    20    21   ar
    37    20    22    1
    38    21    26    1
    39    37    38    3
    40    10    11    3
    41    38    39    1
    42    11    12    1
    43    26    27    1
