@<TRIPOS>MOLECULE
mol_data/opt/m06hf/geoms/mol2/4eg4eg4eg4eg.out
 54 57 0 0 0
SMALL
GASTEIGER

@<TRIPOS>ATOM
      1 C          -0.2649    1.1665    0.9288 C.ar    1  LIG1        0.0253
      2 C           1.1296    1.1539    0.9798 C.ar    1  LIG1       -0.0375
      3 C          -0.9086    0.8863   -0.2802 C.ar    1  LIG1       -0.0453
      4 C           1.8788    0.8698   -0.1583 C.ar    1  LIG1       -0.0024
      5 H           1.6363    1.3646    1.9124 H       1  LIG1        0.0636
      6 C          -0.1679    0.5937   -1.4153 C.ar    1  LIG1       -0.0468
      7 C           1.2284    0.5795   -1.3637 C.ar    1  LIG1        0.0126
      8 H          -0.6792    0.3728   -2.3432 H       1  LIG1        0.0629
      9 H          -1.9894    0.8985   -0.3212 H       1  LIG1        0.0630
     10 C          -1.0343    1.4700    2.1123 C.1     1  LIG1       -0.0696
     11 C          -1.6758    1.7243    3.0961 C.1     1  LIG1       -0.1139
     12 H          -2.2411    1.9510    3.9700 H       1  LIG1        0.1232
     13 S           2.2286    0.1802   -2.7802 S.3     1  LIG1       -0.1420
     14 H           1.1971   -0.0854   -3.5860 H       1  LIG1        0.1071
     15 C           4.0654   -0.1513    0.5748 C.ar    1  LIG1        0.0330
     16 C           5.4594   -0.1178    0.6188 C.ar    1  LIG1       -0.0369
     17 C           3.3730    0.8744   -0.0863 C.ar    1  LIG1       -0.0004
     18 C           6.1724    0.9139    0.0153 C.ar    1  LIG1       -0.0023
     19 H           5.9954   -0.9131    1.1199 H       1  LIG1        0.0636
     20 C           4.0861    1.9055   -0.6893 C.ar    1  LIG1       -0.0390
     21 C           5.4810    1.9316   -0.6533 C.ar    1  LIG1        0.0131
     22 H           3.5348    2.6890   -1.1954 H       1  LIG1        0.0635
     23 C           3.3521   -1.2384    1.2020 C.1     1  LIG1       -0.0690
     24 C           2.7687   -2.1468    1.7293 C.1     1  LIG1       -0.1139
     25 H           2.2466   -2.9524    2.1913 H       1  LIG1        0.1232
     26 S           6.4162    3.2148   -1.4578 S.3     1  LIG1       -0.1420
     27 H           5.3625    3.7639   -2.0692 H       1  LIG1        0.1071
     28 C           8.4106   -0.0607   -0.6074 C.ar    1  LIG1        0.0330
     29 C           9.8035   -0.0241   -0.5454 C.ar    1  LIG1       -0.0369
     30 C           7.6663    0.9169    0.0711 C.ar    1  LIG1       -0.0004
     31 C          10.4660    0.9668    0.1732 C.ar    1  LIG1       -0.0023
     32 H          10.3798   -0.7711   -1.0752 H       1  LIG1        0.0636
     33 C           8.3281    1.9052    0.7931 C.ar    1  LIG1       -0.0390
     34 C           9.7224    1.9460    0.8438 C.ar    1  LIG1        0.0131
     35 H           7.7380    2.6503    1.3130 H       1  LIG1        0.0635
     36 C           7.7516   -1.0913   -1.3735 C.1     1  LIG1       -0.0690
     37 C           7.2105   -1.9535   -2.0117 C.1     1  LIG1       -0.1139
     38 H           6.7203   -2.7126   -2.5759 H       1  LIG1        0.1232
     39 S          10.5966    3.2250    1.7189 S.3     1  LIG1       -0.1420
     40 H           9.5095    3.9402    2.0261 H       1  LIG1        0.1071
     41 C          12.7017    1.2209   -0.9577 C.ar    1  LIG1        0.0325
     42 C          14.0988    1.2306   -0.8935 C.ar    1  LIG1       -0.0447
     43 C          11.9608    0.9804    0.2088 C.ar    1  LIG1       -0.0004
     44 C          14.7521    1.0129    0.3094 C.ar    1  LIG1       -0.0474
     45 H          14.6627    1.4207   -1.7961 H       1  LIG1        0.0630
     46 C          12.6241    0.7476    1.4130 C.ar    1  LIG1       -0.0396
     47 C          14.0164    0.7689    1.4714 C.ar    1  LIG1        0.0054
     48 H          12.0367    0.5476    2.3009 H       1  LIG1        0.0635
     49 H          15.8339    1.0351    0.3496 H       1  LIG1        0.0629
     50 C          12.0411    1.4660   -2.2176 C.1     1  LIG1       -0.0691
     51 C          11.5059    1.6674   -3.2743 C.1     1  LIG1       -0.1139
     52 H          11.0224    1.8474   -4.2065 H       1  LIG1        0.1232
     53 S          14.9219    0.4742    2.9708 S.3     1  LIG1       -0.1426
     54 H          13.8682    0.4777    3.7909 H       1  LIG1        0.1071
@<TRIPOS>BOND
     1    52    51    1
     2    14    13    1
     3    51    50    3
     4    13     7    1
     5    38    37    1
     6     8     6    1
     7    50    41    1
     8    27    26    1
     9    37    36    3
    10    45    42    1
    11    26    21    1
    12     6     7   ar
    13     6     3   ar
    14    36    28    1
    15     7     4   ar
    16    22    20    1
    17    32    29    1
    18    41    42   ar
    19    41    43   ar
    20    42    44   ar
    21    20    21   ar
    22    20    17   ar
    23    21    18   ar
    24    28    29   ar
    25    28    30   ar
    26    29    31   ar
    27     9     3    1
    28     3     1   ar
    29     4    17    1
    30     4     2   ar
    31    17    15   ar
    32    18    30    1
    33    18    16   ar
    34    30    33   ar
    35    31    43    1
    36    31    34   ar
    37    43    46   ar
    38    44    49    1
    39    44    47   ar
    40    15    16   ar
    41    15    23    1
    42    16    19    1
    43    33    34   ar
    44    33    35    1
    45    34    39    1
    46     1     2   ar
    47     1    10    1
    48     2     5    1
    49    23    24    3
    50    46    47   ar
    51    46    48    1
    52    47    53    1
    53    39    40    1
    54    24    25    1
    55    10    11    3
    56    53    54    1
    57    11    12    1
