@<TRIPOS>MOLECULE
mol_data/opt/m06hf/geoms/mol2/4eg4eg.out
 28 29 0 0 0
SMALL
GASTEIGER

@<TRIPOS>ATOM
      1 C          -0.0446    0.1221    0.5443 C.ar    1  LIG1        0.0253
      2 C           1.3489    0.1367    0.6011 C.ar    1  LIG1       -0.0375
      3 C          -0.7119    1.1286   -0.1604 C.ar    1  LIG1       -0.0453
      4 C           2.0767    1.1404   -0.0337 C.ar    1  LIG1       -0.0024
      5 H           1.8740   -0.6403    1.1409 H       1  LIG1        0.0636
      6 C           0.0063    2.1277   -0.7995 C.ar    1  LIG1       -0.0468
      7 C           1.4027    2.1403   -0.7464 C.ar    1  LIG1        0.0126
      8 H          -0.5232    2.8977   -1.3452 H       1  LIG1        0.0629
      9 H          -1.7923    1.1203   -0.2032 H       1  LIG1        0.0630
     10 C          -0.7891   -0.9220    1.2083 C.1     1  LIG1       -0.0696
     11 C          -1.4066   -1.7921    1.7616 C.1     1  LIG1       -0.1139
     12 H          -1.9519   -2.5650    2.2523 H       1  LIG1        0.1232
     13 S           2.3703    3.3815   -1.5772 S.3     1  LIG1       -0.1420
     14 H           1.3330    3.9771   -2.1741 H       1  LIG1        0.1071
     15 C           4.3203    0.1039   -0.5339 C.ar    1  LIG1        0.0325
     16 C           5.7146    0.1229   -0.4270 C.ar    1  LIG1       -0.0447
     17 C           3.5698    1.1335    0.0529 C.ar    1  LIG1       -0.0004
     18 C           6.3589    1.1528    0.2408 C.ar    1  LIG1       -0.0474
     19 H           6.2859   -0.6733   -0.8838 H       1  LIG1        0.0630
     20 C           4.2234    2.1580    0.7370 C.ar    1  LIG1       -0.0396
     21 C           5.6138    2.1787    0.8265 C.ar    1  LIG1        0.0054
     22 H           3.6283    2.9356    1.2004 H       1  LIG1        0.0635
     23 H           7.4396    1.1656    0.3028 H       1  LIG1        0.0629
     24 C           3.6741   -0.9683   -1.2531 C.1     1  LIG1       -0.0691
     25 C           3.1530   -1.8697   -1.8535 C.1     1  LIG1       -0.1139
     26 H           2.6815   -2.6634   -2.3860 H       1  LIG1        0.1232
     27 S           6.5017    3.4555    1.6864 S.3     1  LIG1       -0.1426
     28 H           5.4717    4.2944    1.8304 H       1  LIG1        0.1071
@<TRIPOS>BOND
     1    26    25    1
     2    14    13    1
     3    25    24    3
     4    13     7    1
     5     8     6    1
     6    24    15    1
     7    19    16    1
     8     6     7   ar
     9     6     3   ar
    10     7     4   ar
    11    15    16   ar
    12    15    17   ar
    13    16    18   ar
    14     9     3    1
    15     3     1   ar
    16     4    17    1
    17     4     2   ar
    18    17    20   ar
    19    18    23    1
    20    18    21   ar
    21     1     2   ar
    22     1    10    1
    23     2     5    1
    24    20    21   ar
    25    20    22    1
    26    21    27    1
    27    10    11    3
    28    27    28    1
    29    11    12    1
