@<TRIPOS>MOLECULE
mol_data/opt/m06hf/geoms/mol2/4eg4eg-4eg4eg-.out
 54 57 0 0 0
SMALL
GASTEIGER

@<TRIPOS>ATOM
      1 C          -0.2431    0.1646   -0.6156 C.ar    1  LIG1        0.0253
      2 C           1.1519    0.1602   -0.6325 C.ar    1  LIG1       -0.0375
      3 C          -0.9157    1.1295    0.1408 C.ar    1  LIG1       -0.0453
      4 C           1.8747    1.1047    0.0917 C.ar    1  LIG1       -0.0024
      5 H           1.6815   -0.5863   -1.2099 H       1  LIG1        0.0636
      6 C          -0.2019    2.0688    0.8690 C.ar    1  LIG1       -0.0468
      7 C           1.1955    2.0616    0.8560 C.ar    1  LIG1        0.0126
      8 H          -0.7359    2.8077    1.4524 H       1  LIG1        0.0629
      9 H          -1.9972    1.1360    0.1533 H       1  LIG1        0.0630
     10 C          -0.9846   -0.8173   -1.3712 C.1     1  LIG1       -0.0696
     11 C          -1.6042   -1.6341   -1.9982 C.1     1  LIG1       -0.1139
     12 H          -2.1512   -2.3596   -2.5543 H       1  LIG1        0.1232
     13 S           2.1563    3.2232    1.8030 S.3     1  LIG1       -0.1420
     14 H           1.1040    3.7731    2.4182 H       1  LIG1        0.1071
     15 C           4.0904    0.0342    0.6435 C.ar    1  LIG1        0.0330
     16 C           5.4840    0.0450    0.5866 C.ar    1  LIG1       -0.0369
     17 C           3.3693    1.0824    0.0507 C.ar    1  LIG1       -0.0004
     18 C           6.1722    1.0778   -0.0439 C.ar    1  LIG1       -0.0023
     19 H           6.0403   -0.7630    1.0429 H       1  LIG1        0.0636
     20 C           4.0562    2.1090   -0.5896 C.ar    1  LIG1       -0.0390
     21 C           5.4509    2.1181   -0.6450 C.ar    1  LIG1        0.0131
     22 H           3.4839    2.9038   -1.0524 H       1  LIG1        0.0635
     23 C           3.4083   -1.0450    1.3173 C.1     1  LIG1       -0.0690
     24 C           2.8484   -1.9482    1.8783 C.1     1  LIG1       -0.1139
     25 H           2.3444   -2.7445    2.3753 H       1  LIG1        0.1232
     26 S           6.3445    3.4030   -1.4932 S.3     1  LIG1       -0.1420
     27 H           5.2582    4.0539   -1.9194 H       1  LIG1        0.1071
     28 C           8.3738    0.0308   -0.7007 C.ar    1  LIG1        0.0330
     29 C           9.7695    0.0451   -0.6836 C.ar    1  LIG1       -0.0369
     30 C           7.6668    1.0621   -0.0619 C.ar    1  LIG1       -0.0004
     31 C          10.4700    1.0686   -0.0546 C.ar    1  LIG1       -0.0023
     32 H          10.3156   -0.7524   -1.1698 H       1  LIG1        0.0636
     33 C           8.3698    2.0770    0.5820 C.ar    1  LIG1       -0.0390
     34 C           9.7647    2.0939    0.5876 C.ar    1  LIG1        0.0131
     35 H           7.8105    2.8552    1.0870 H       1  LIG1        0.0635
     36 C           7.6834   -1.0392   -1.3812 C.1     1  LIG1       -0.0690
     37 C           7.1245   -1.9382   -1.9503 C.1     1  LIG1       -0.1139
     38 H           6.6222   -2.7310   -2.4551 H       1  LIG1        0.1232
     39 S          10.6953    3.3646    1.4117 S.3     1  LIG1       -0.1420
     40 H           9.6310    4.0248    1.8793 H       1  LIG1        0.1071
     41 C          12.6845    0.1420    0.7069 C.ar    1  LIG1        0.0325
     42 C          14.0826    0.1632    0.6764 C.ar    1  LIG1       -0.0447
     43 C          11.9656    1.0649   -0.0653 C.ar    1  LIG1       -0.0004
     44 C          14.7570    1.0920   -0.1010 C.ar    1  LIG1       -0.0474
     45 H          14.6312   -0.5493    1.2769 H       1  LIG1        0.0630
     46 C          12.6488    1.9896   -0.8535 C.ar    1  LIG1       -0.0396
     47 C          14.0420    2.0109   -0.8726 C.ar    1  LIG1        0.0054
     48 H          12.0748    2.6868   -1.4520 H       1  LIG1        0.0635
     49 H          15.8397    1.1084   -0.1066 H       1  LIG1        0.0629
     50 C          11.9964   -0.8193    1.5354 C.1     1  LIG1       -0.0691
     51 C          11.4379   -1.6274    2.2274 C.1     1  LIG1       -0.1139
     52 H          10.9364   -2.3402    2.8403 H       1  LIG1        0.1232
     53 S          14.9736    3.1479   -1.8709 S.3     1  LIG1       -0.1426
     54 H          13.9529    3.9487   -2.1866 H       1  LIG1        0.1071
@<TRIPOS>BOND
     1    12    11    1
     2    38    37    1
     3    54    53    1
     4    11    10    3
     5    37    36    3
     6    27    26    1
     7    53    47    1
     8    26    21    1
     9    48    46    1
    10    36    28    1
    11    10     1    1
    12     5     2    1
    13    32    29    1
    14    22    20    1
    15    47    46   ar
    16    47    44   ar
    17    46    43   ar
    18    28    29   ar
    19    28    30   ar
    20    29    31   ar
    21    21    20   ar
    22    21    18   ar
    23     2     1   ar
    24     2     4   ar
    25     1     3   ar
    26    20    17   ar
    27    49    44    1
    28    44    42   ar
    29    43    31    1
    30    43    41   ar
    31    30    18    1
    32    30    33   ar
    33    31    34   ar
    34    18    16   ar
    35    17     4    1
    36    17    15   ar
    37     4     7   ar
    38     3     9    1
    39     3     6   ar
    40    33    34   ar
    41    33    35    1
    42    16    15   ar
    43    16    19    1
    44    34    39    1
    45    15    23    1
    46    42    41   ar
    47    42    45    1
    48    41    50    1
    49     7     6   ar
    50     7    13    1
    51     6     8    1
    52    23    24    3
    53    39    40    1
    54    50    51    3
    55    13    14    1
    56    24    25    1
    57    51    52    1
