@<TRIPOS>MOLECULE
mol_data/opt/m06hf/geoms/mol2/4eg4eg-4eg.out
 41 43 0 0 0
SMALL
GASTEIGER

@<TRIPOS>ATOM
      1 C          -0.1282    0.0350   -0.4575 C.ar    1  LIG1        0.0253
      2 C           1.2669    0.0337   -0.4546 C.ar    1  LIG1       -0.0375
      3 C          -0.8132    1.1449    0.0465 C.ar    1  LIG1       -0.0453
      4 C           1.9778    1.1237    0.0410 C.ar    1  LIG1       -0.0024
      5 H           1.8063   -0.8230   -0.8368 H       1  LIG1        0.0636
      6 C          -0.1110    2.2312    0.5459 C.ar    1  LIG1       -0.0468
      7 C           1.2863    2.2284    0.5522 C.ar    1  LIG1        0.0126
      8 H          -0.6541    3.0833    0.9336 H       1  LIG1        0.0629
      9 H          -1.8945    1.1491    0.0428 H       1  LIG1        0.0630
     10 C          -0.8569   -1.0980   -0.9775 C.1     1  LIG1       -0.0696
     11 C          -1.4674   -2.0376   -1.4112 C.1     1  LIG1       -0.1139
     12 H          -2.0073   -2.8709   -1.7972 H       1  LIG1        0.1232
     13 S           2.2330    3.5874    1.2059 S.3     1  LIG1       -0.1420
     14 H           1.1821    4.2413    1.7077 H       1  LIG1        0.1071
     15 C           4.1881    0.2369    0.8699 C.ar    1  LIG1        0.0330
     16 C           5.5826    0.2417    0.8305 C.ar    1  LIG1       -0.0369
     17 C           3.4731    1.1014    0.0270 C.ar    1  LIG1       -0.0004
     18 C           6.2752    1.0946   -0.0241 C.ar    1  LIG1       -0.0023
     19 H           6.1358   -0.4253    1.4786 H       1  LIG1        0.0636
     20 C           4.1650    1.9456   -0.8355 C.ar    1  LIG1       -0.0390
     21 C           5.5604    1.9522   -0.8700 C.ar    1  LIG1        0.0131
     22 H           3.5964    2.5972   -1.4882 H       1  LIG1        0.0635
     23 C           3.4979   -0.6451    1.7805 C.1     1  LIG1       -0.0690
     24 C           2.9325   -1.3827    2.5420 C.1     1  LIG1       -0.1139
     25 H           2.4252   -2.0310    3.2181 H       1  LIG1        0.1232
     26 S           6.4648    3.0031   -1.9862 S.3     1  LIG1       -0.1420
     27 H           5.3807    3.5327   -2.5594 H       1  LIG1        0.1071
     28 C           8.4863   -0.0399   -0.4567 C.ar    1  LIG1        0.0325
     29 C           9.8847   -0.0096   -0.4462 C.ar    1  LIG1       -0.0447
     30 C           7.7704    1.0868   -0.0262 C.ar    1  LIG1       -0.0004
     31 C          10.5648    1.1217   -0.0232 C.ar    1  LIG1       -0.0474
     32 H          10.4299   -0.8804   -0.7836 H       1  LIG1        0.0630
     33 C           8.4605    2.2159    0.4126 C.ar    1  LIG1       -0.0396
     34 C           9.8537    2.2430    0.4109 C.ar    1  LIG1        0.0054
     35 H           7.8907    3.0704    0.7574 H       1  LIG1        0.0635
     36 H          11.6474    1.1364   -0.0313 H       1  LIG1        0.0629
     37 C           7.8010   -1.2246   -0.9164 C.1     1  LIG1       -0.0691
     38 C           7.2463   -2.2208   -1.2960 C.1     1  LIG1       -0.1139
     39 H           6.7481   -3.1002   -1.6329 H       1  LIG1        0.1232
     40 S          10.7849    3.6524    0.9622 S.3     1  LIG1       -0.1426
     41 H           9.7425    4.4762    1.0957 H       1  LIG1        0.1071
@<TRIPOS>BOND
     1    27    26    1
     2    26    21    1
     3    12    11    1
     4    39    38    1
     5    22    20    1
     6    11    10    3
     7    38    37    3
     8    10     1    1
     9    37    28    1
    10    21    20   ar
    11    21    18   ar
    12     5     2    1
    13    20    17   ar
    14    32    29    1
    15     1     2   ar
    16     1     3   ar
    17    28    29   ar
    18    28    30   ar
    19     2     4   ar
    20    29    31   ar
    21    36    31    1
    22    30    18    1
    23    30    33   ar
    24    18    16   ar
    25    31    34   ar
    26    17     4    1
    27    17    15   ar
    28     4     7   ar
    29     9     3    1
    30     3     6   ar
    31    34    33   ar
    32    34    40    1
    33    33    35    1
    34     6     7   ar
    35     6     8    1
    36     7    13    1
    37    16    15   ar
    38    16    19    1
    39    15    23    1
    40    40    41    1
    41    13    14    1
    42    23    24    3
    43    24    25    1
