@<TRIPOS>MOLECULE
mol_data/opt/m06hf/geoms/mol2/4eg4eg-4eg-4eg-.out
 54 57 0 0 0
SMALL
GASTEIGER

@<TRIPOS>ATOM
      1 C          -0.2432    0.1658   -0.6140 C.ar    1  LIG1        0.0253
      2 C           1.1518    0.1601   -0.6299 C.ar    1  LIG1       -0.0375
      3 C          -0.9155    1.1370    0.1345 C.ar    1  LIG1       -0.0453
      4 C           1.8749    1.1095    0.0876 C.ar    1  LIG1       -0.0024
      5 H           1.6813   -0.5912   -1.2012 H       1  LIG1        0.0636
      6 C          -0.2015    2.0812    0.8560 C.ar    1  LIG1       -0.0468
      7 C           1.1959    2.0727    0.8442 C.ar    1  LIG1        0.0126
      8 H          -0.7353    2.8249    1.4335 H       1  LIG1        0.0629
      9 H          -1.9970    1.1445    0.1461 H       1  LIG1        0.0630
     10 C          -0.9850   -0.8212   -1.3628 C.1     1  LIG1       -0.0696
     11 C          -1.6047   -1.6422   -1.9840 C.1     1  LIG1       -0.1139
     12 H          -2.1519   -2.3714   -2.5351 H       1  LIG1        0.1232
     13 S           2.1569    3.2406    1.7831 S.3     1  LIG1       -0.1420
     14 H           1.1046    3.7958    2.3936 H       1  LIG1        0.1071
     15 C           4.0892    0.0411    0.6490 C.ar    1  LIG1        0.0330
     16 C           5.4829    0.0503    0.5930 C.ar    1  LIG1       -0.0369
     17 C           3.3695    1.0856    0.0480 C.ar    1  LIG1       -0.0004
     18 C           6.1725    1.0779   -0.0447 C.ar    1  LIG1       -0.0023
     19 H           6.0382   -0.7547    1.0557 H       1  LIG1        0.0636
     20 C           4.0577    2.1068   -0.5995 C.ar    1  LIG1       -0.0390
     21 C           5.4525    2.1144   -0.6539 C.ar    1  LIG1        0.0131
     22 H           3.4864    2.8986   -1.0686 H       1  LIG1        0.0635
     23 C           3.4058   -1.0324    1.3303 C.1     1  LIG1       -0.0690
     24 C           2.8447   -1.9310    1.8975 C.1     1  LIG1       -0.1139
     25 H           2.3398   -2.7232    2.4000 H       1  LIG1        0.1232
     26 S           6.3478    3.3921   -1.5110 S.3     1  LIG1       -0.1420
     27 H           5.2623    4.0408   -1.9428 H       1  LIG1        0.1071
     28 C           8.3736    0.0241   -0.6922 C.ar    1  LIG1        0.0330
     29 C           9.7693    0.0374   -0.6744 C.ar    1  LIG1       -0.0369
     30 C           7.6671    1.0607   -0.0615 C.ar    1  LIG1       -0.0004
     31 C          10.4703    1.0648   -0.0525 C.ar    1  LIG1       -0.0023
     32 H          10.3150   -0.7641   -1.1544 H       1  LIG1        0.0636
     33 C           8.3705    2.0797    0.5753 C.ar    1  LIG1       -0.0390
     34 C           9.7654    2.0954    0.5818 C.ar    1  LIG1        0.0131
     35 H           7.8115    2.8621    1.0742 H       1  LIG1        0.0635
     36 C           7.6827   -1.0502   -1.3654 C.1     1  LIG1       -0.0690
     37 C           7.1234   -1.9529   -1.9283 C.1     1  LIG1       -0.1139
     38 H           6.6208   -2.7488   -2.4276 H       1  LIG1        0.1232
     39 S          10.6966    3.3714    1.3969 S.3     1  LIG1       -0.1420
     40 H           9.6327    4.0359    1.8591 H       1  LIG1        0.1071
     41 C          12.6835    0.1422    0.7173 C.ar    1  LIG1        0.0325
     42 C          14.0816    0.1620    0.6875 C.ar    1  LIG1       -0.0447
     43 C          11.9658    1.0599   -0.0623 C.ar    1  LIG1       -0.0004
     44 C          14.7573    1.0844   -0.0963 C.ar    1  LIG1       -0.0474
     45 H          14.6292   -0.5465    1.2938 H       1  LIG1        0.0630
     46 C          12.6503    1.9781   -0.8569 C.ar    1  LIG1       -0.0396
     47 C          14.0435    1.9981   -0.8752 C.ar    1  LIG1        0.0054
     48 H          12.0773    2.6713   -1.4608 H       1  LIG1        0.0635
     49 H          15.8400    1.0999   -0.1013 H       1  LIG1        0.0629
     50 C          11.9940   -0.8123    1.5525 C.1     1  LIG1       -0.0691
     51 C          11.4344   -1.6147    2.2503 C.1     1  LIG1       -0.1139
     52 H          10.9320   -2.3225    2.8682 H       1  LIG1        0.1232
     53 S          14.9767    3.1268   -1.8814 S.3     1  LIG1       -0.1426
     54 H          13.9569    3.9261   -2.2037 H       1  LIG1        0.1071
@<TRIPOS>BOND
     1    12    11    1
     2    38    37    1
     3    54    53    1
     4    11    10    3
     5    27    26    1
     6    37    36    3
     7    53    47    1
     8    26    21    1
     9    48    46    1
    10    36    28    1
    11    10     1    1
    12     5     2    1
    13    32    29    1
    14    22    20    1
    15    47    46   ar
    16    47    44   ar
    17    46    43   ar
    18    28    29   ar
    19    28    30   ar
    20    29    31   ar
    21    21    20   ar
    22    21    18   ar
    23     2     1   ar
    24     2     4   ar
    25     1     3   ar
    26    20    17   ar
    27    49    44    1
    28    44    42   ar
    29    43    31    1
    30    43    41   ar
    31    30    18    1
    32    30    33   ar
    33    31    34   ar
    34    18    16   ar
    35    17     4    1
    36    17    15   ar
    37     4     7   ar
    38     3     9    1
    39     3     6   ar
    40    33    34   ar
    41    33    35    1
    42    34    39    1
    43    16    15   ar
    44    16    19    1
    45    15    23    1
    46    42    41   ar
    47    42    45    1
    48    41    50    1
    49     7     6   ar
    50     7    13    1
    51     6     8    1
    52    23    24    3
    53    39    40    1
    54    50    51    3
    55    13    14    1
    56    24    25    1
    57    51    52    1
