@<TRIPOS>MOLECULE
mol_data/opt/m06hf/geoms/mol2/4eg4eg4eg.out
 41 43 0 0 0
SMALL
GASTEIGER

@<TRIPOS>ATOM
      1 C          -0.1575    0.5797    0.9315 C.ar    1  LIG1        0.0253
      2 C           1.2372    0.5840    0.9705 C.ar    1  LIG1       -0.0375
      3 C          -0.8109    0.9674   -0.2422 C.ar    1  LIG1       -0.0453
      4 C           1.9770    0.9717   -0.1432 C.ar    1  LIG1       -0.0024
      5 H           1.7518    0.2814    1.8731 H       1  LIG1        0.0636
      6 C          -0.0793    1.3466   -1.3575 C.ar    1  LIG1       -0.0468
      7 C           1.3177    1.3469   -1.3199 C.ar    1  LIG1        0.0126
      8 H          -0.5980    1.6425   -2.2602 H       1  LIG1        0.0629
      9 H          -1.8921    0.9686   -0.2723 H       1  LIG1        0.0630
     10 C          -0.9167    0.1831    2.0939 C.1     1  LIG1       -0.0696
     11 C          -1.5455   -0.1448    3.0641 C.1     1  LIG1       -0.1139
     12 H          -2.0983   -0.4356    3.9270 H       1  LIG1        0.1232
     13 S           2.3064    1.7982   -2.7286 S.3     1  LIG1       -0.1420
     14 H           1.2784    1.8637   -3.5788 H       1  LIG1        0.1071
     15 C           4.2025   -0.2092   -0.0290 C.ar    1  LIG1        0.0330
     16 C           5.5948   -0.1568    0.0411 C.ar    1  LIG1       -0.0369
     17 C           3.4709    0.9870   -0.0720 C.ar    1  LIG1       -0.0004
     18 C           6.2672    1.0615    0.0697 C.ar    1  LIG1       -0.0023
     19 H           6.1626   -1.0775    0.0663 H       1  LIG1        0.0636
     20 C           4.1436    2.2051   -0.0482 C.ar    1  LIG1       -0.0390
     21 C           5.5369    2.2546    0.0180 C.ar    1  LIG1        0.0131
     22 H           3.5614    3.1179   -0.0844 H       1  LIG1        0.0635
     23 C           3.5321   -1.4872   -0.0608 C.1     1  LIG1       -0.0690
     24 C           2.9894   -2.5593   -0.0817 C.1     1  LIG1       -0.1139
     25 H           2.5051   -3.5082   -0.1021 H       1  LIG1        0.1232
     26 S           6.4289    3.7929    0.0216 S.3     1  LIG1       -0.1420
     27 H           5.3470    4.5658   -0.1079 H       1  LIG1        0.1071
     28 C           8.5425    0.6475   -0.9278 C.ar    1  LIG1        0.0325
     29 C           9.9367    0.6629   -0.8146 C.ar    1  LIG1       -0.0447
     30 C           7.7604    1.0785    0.1528 C.ar    1  LIG1       -0.0004
     31 C          10.5458    1.1028    0.3502 C.ar    1  LIG1       -0.0474
     32 H          10.5338    0.3310   -1.6526 H       1  LIG1        0.0630
     33 C           8.3785    1.5162    1.3233 C.ar    1  LIG1       -0.0396
     34 C           9.7681    1.5334    1.4275 C.ar    1  LIG1        0.0054
     35 H           7.7566    1.8388    2.1497 H       1  LIG1        0.0635
     36 H          11.6260    1.1137    0.4246 H       1  LIG1        0.0629
     37 C           7.9240    0.1967   -2.1516 C.1     1  LIG1       -0.0691
     38 C           7.4194   -0.1814   -3.1747 C.1     1  LIG1       -0.1139
     39 H           6.9644   -0.5125   -4.0796 H       1  LIG1        0.1232
     40 S          10.6154    2.0678    2.8949 S.3     1  LIG1       -0.1426
     41 H           9.5246    2.4404    3.5708 H       1  LIG1        0.1071
@<TRIPOS>BOND
     1    39    38    1
     2    14    13    1
     3    38    37    3
     4    13     7    1
     5     8     6    1
     6    37    28    1
     7    32    29    1
     8     6     7   ar
     9     6     3   ar
    10     7     4   ar
    11    28    29   ar
    12    28    30   ar
    13    29    31   ar
    14     9     3    1
    15     3     1   ar
    16     4    17    1
    17     4     2   ar
    18    27    26    1
    19    25    24    1
    20    22    20    1
    21    24    23    3
    22    17    20   ar
    23    17    15   ar
    24    23    15    1
    25    20    21   ar
    26    15    16   ar
    27    21    26    1
    28    21    18   ar
    29    16    19    1
    30    16    18   ar
    31    18    30    1
    32    30    33   ar
    33    31    36    1
    34    31    34   ar
    35     1     2   ar
    36     1    10    1
    37     2     5    1
    38    33    34   ar
    39    33    35    1
    40    34    40    1
    41    10    11    3
    42    40    41    1
    43    11    12    1
