@<TRIPOS>MOLECULE
mol_data/opt/m06hf/geoms/mol2/4eg4eg-.out
 28 29 0 0 0
SMALL
GASTEIGER

@<TRIPOS>ATOM
      1 C          -0.0430    0.1178   -0.5427 C.ar    1  LIG1        0.0253
      2 C           1.3508    0.1312   -0.5944 C.ar    1  LIG1       -0.0375
      3 C          -0.7123    1.1316    0.1495 C.ar    1  LIG1       -0.0453
      4 C           2.0767    1.1410    0.0329 C.ar    1  LIG1       -0.0024
      5 H           1.8775   -0.6513   -1.1245 H       1  LIG1        0.0636
      6 C           0.0039    2.1368    0.7811 C.ar    1  LIG1       -0.0468
      7 C           1.4005    2.1482    0.7331 C.ar    1  LIG1        0.0126
      8 H          -0.5273    2.9125    1.3171 H       1  LIG1        0.0629
      9 H          -1.7930    1.1243    0.1883 H       1  LIG1        0.0630
     10 C          -0.7855   -0.9325   -1.1990 C.1     1  LIG1       -0.0696
     11 C          -1.4013   -1.8079   -1.7457 C.1     1  LIG1       -0.1139
     12 H          -1.9451   -2.5854   -2.2307 H       1  LIG1        0.1232
     13 S           2.3656    3.3974    1.5550 S.3     1  LIG1       -0.1420
     14 H           1.3264    3.9993    2.1420 H       1  LIG1        0.1071
     15 C           4.3179    0.1086    0.5520 C.ar    1  LIG1        0.0325
     16 C           5.7127    0.1259    0.4501 C.ar    1  LIG1       -0.0447
     17 C           3.5701    1.1326   -0.0480 C.ar    1  LIG1       -0.0004
     18 C           6.3599    1.1487   -0.2257 C.ar    1  LIG1       -0.0474
     19 H           6.2819   -0.6659    0.9170 H       1  LIG1        0.0630
     20 C           4.2267    2.1498   -0.7400 C.ar    1  LIG1       -0.0396
     21 C           5.6175    2.1690   -0.8244 C.ar    1  LIG1        0.0054
     22 H           3.6338    2.9229   -1.2134 H       1  LIG1        0.0635
     23 H           7.4408    1.1604   -0.2837 H       1  LIG1        0.0629
     24 C           3.6685   -0.9560    1.2795 C.1     1  LIG1       -0.0691
     25 C           3.1448   -1.8511    1.8870 C.1     1  LIG1       -0.1139
     26 H           2.6709   -2.6392    2.4256 H       1  LIG1        0.1232
     27 S           6.5092    3.4367   -1.6939 S.3     1  LIG1       -0.1426
     28 H           5.4802    4.2746   -1.8502 H       1  LIG1        0.1071
@<TRIPOS>BOND
     1    12    11    1
     2    28    27    1
     3    11    10    3
     4    27    21    1
     5    22    20    1
     6    10     1    1
     7     5     2    1
     8    21    20   ar
     9    21    18   ar
    10    20    17   ar
    11     2     1   ar
    12     2     4   ar
    13     1     3   ar
    14    23    18    1
    15    18    16   ar
    16    17     4    1
    17    17    15   ar
    18     4     7   ar
    19     3     9    1
    20     3     6   ar
    21    16    15   ar
    22    16    19    1
    23    15    24    1
    24     7     6   ar
    25     7    13    1
    26     6     8    1
    27    24    25    3
    28    13    14    1
    29    25    26    1
