@<TRIPOS>MOLECULE
mol_data/opt/m06hf/geoms/mol2/4eh4fi-13he13ii.out
 56 59 0 0 0
SMALL
GASTEIGER

@<TRIPOS>ATOM
      1 C           0.0383    0.2735    1.3195 C.ar    1  LIG1        0.0254
      2 C           1.4147    0.3610    1.1086 C.ar    1  LIG1       -0.0367
      3 C          -0.8276    0.8643    0.3927 C.ar    1  LIG1       -0.0446
      4 C           1.9366    1.0252    0.0025 C.ar    1  LIG1        0.0074
      5 H           2.0924   -0.0969    1.8164 H       1  LIG1        0.0636
      6 C          -0.3231    1.5155   -0.7187 C.ar    1  LIG1       -0.0393
      7 C           1.0596    1.6011   -0.9367 C.ar    1  LIG1        0.0325
      8 H          -0.9977    1.9685   -1.4348 H       1  LIG1        0.0636
      9 H          -1.8957    0.8039    0.5517 H       1  LIG1        0.0630
     10 C          -0.4840   -0.4128    2.4768 C.1     1  LIG1       -0.0696
     11 C          -0.9232   -0.9817    3.4405 C.1     1  LIG1       -0.1139
     12 H          -1.3087   -1.4861    4.2952 H       1  LIG1        0.1232
     13 N           1.5469    2.2801   -2.0487 N.pl3   1  LIG1       -0.3575
     14 H           2.4811    2.0166   -2.3336 H       1  LIG1        0.1423
     15 H           0.9004    2.3542   -2.8208 H       1  LIG1        0.1423
     16 C           4.2359    0.0020   -0.1877 C.ar    1  LIG1        0.1252
     17 C           5.6111    0.1333   -0.3384 C.ar    1  LIG1       -0.0102
     18 C           3.4152    1.1377   -0.1767 C.ar    1  LIG1        0.0256
     19 C           6.2016    1.3926   -0.4895 C.ar    1  LIG1        0.0065
     20 H           6.2501   -0.7446   -0.3405 H       1  LIG1        0.0661
     21 C           4.0242    2.3843   -0.3315 C.ar    1  LIG1       -0.0469
     22 C           5.3995    2.5451   -0.4976 C.ar    1  LIG1       -0.0405
     23 H           3.3854    3.2610   -0.3341 H       1  LIG1        0.0628
     24 O           3.6460   -1.2144   -0.0392 O.3     1  LIG1       -0.5061
     25 H           4.3103   -1.9114   -0.0573 H       1  LIG1        0.2922
     26 C           5.9694    3.9384   -0.7088 C.3     1  LIG1       -0.0391
     27 H           5.1992    4.5895   -1.1212 H       1  LIG1        0.0278
     28 H           6.8130    3.9068   -1.3996 H       1  LIG1        0.0278
     29 H           6.3036    4.3825    0.2337 H       1  LIG1        0.0278
     30 C           7.6663    1.4303   -0.6484 C.ar    1  LIG1        0.0695
     31 C           8.4899    0.5586   -1.3291 C.ar    1  LIG1        0.0664
     32 C           9.8357    0.9983   -1.1337 C.ar    1  LIG1        0.0726
     33 C           9.7893    2.1190   -0.3170 C.ar    1  LIG1        0.0810
     34 N           8.4828    2.3731   -0.0537 N.ar    1  LIG1       -0.3505
     35 H           8.1727    3.0297    0.6456 H       1  LIG1        0.1660
     36 N           8.1085   -0.5730   -2.0663 N.pl3   1  LIG1       -0.3554
     37 H           7.2839   -0.4092   -2.6334 H       1  LIG1        0.1424
     38 H           8.8751   -0.9143   -2.6358 H       1  LIG1        0.1424
     39 C          10.9872    0.4087   -1.7424 C.1     1  LIG1       -0.0656
     40 C          11.9266   -0.1184   -2.2805 C.1     1  LIG1       -0.1138
     41 H          12.7677   -0.5724   -2.7514 H       1  LIG1        0.1232
     42 C          10.8589    2.9677    0.2033 C.ar    1  LIG1        0.0674
     43 C          12.0529    2.6456    0.8105 C.ar    1  LIG1       -0.0208
     44 C          12.6990    3.8798    1.1339 C.ar    1  LIG1       -0.0296
     45 C          11.8709    4.8928    0.7156 C.ar    1  LIG1        0.0054
     46 N          10.7536    4.3364    0.1634 N.ar    1  LIG1       -0.3590
     47 H          10.0323    4.8346   -0.3323 H       1  LIG1        0.1654
     48 H          11.9974    5.9611    0.7691 H       1  LIG1        0.0810
     49 C          12.5683    1.2624    1.1147 C.3     1  LIG1       -0.0374
     50 H          12.9490    1.2194    2.1368 H       1  LIG1        0.0278
     51 H          13.3758    0.9915    0.4315 H       1  LIG1        0.0278
     52 H          11.7698    0.5290    1.0029 H       1  LIG1        0.0278
     53 C          14.0314    4.0274    1.8250 C.3     1  LIG1       -0.0380
     54 H          14.3025    5.0801    1.9057 H       1  LIG1        0.0278
     55 H          14.8135    3.5103    1.2660 H       1  LIG1        0.0278
     56 H          13.9959    3.6034    2.8308 H       1  LIG1        0.0278
@<TRIPOS>BOND
     1    15    13    1
     2    41    40    1
     3    38    36    1
     4    37    36    1
     5    14    13    1
     6    40    39    3
     7    36    31    1
     8    13     7    1
     9    39    32    1
    10     8     6    1
    11    28    26    1
    12    31    32   ar
    13    31    30   ar
    14    32    33   ar
    15    27    26    1
    16     7     6   ar
    17     7     4   ar
    18     6     3   ar
    19    26    22    1
    20    26    29    1
    21    30    19    1
    22    30    34   ar
    23    22    19   ar
    24    22    21   ar
    25    19    17   ar
    26    20    17    1
    27    17    16   ar
    28    23    21    1
    29    47    46    1
    30    21    18   ar
    31    33    34   ar
    32    33    42    1
    33    16    18   ar
    34    16    24    1
    35    18     4    1
    36    25    24    1
    37    34    35    1
    38     4     2   ar
    39    46    42   ar
    40    46    45   ar
    41    42    43   ar
    42     3     9    1
    43     3     1   ar
    44    51    49    1
    45    45    48    1
    46    45    44   ar
    47    43    49    1
    48    43    44   ar
    49    52    49    1
    50     2     1   ar
    51     2     5    1
    52    49    50    1
    53    44    53    1
    54    55    53    1
    55     1    10    1
    56    53    54    1
    57    53    56    1
    58    10    11    3
    59    11    12    1
