@<TRIPOS>MOLECULE
mol_data/opt/m06hf/geoms/mol2/4eh4la-13da13hd-.out
 50 53 0 0 0
SMALL
GASTEIGER

@<TRIPOS>ATOM
      1 C          -0.0727    0.6743    0.9197 C.ar    1  LIG1        0.0254
      2 C           1.3208    0.6334    0.8819 C.ar    1  LIG1       -0.0367
      3 C          -0.7577    1.3653   -0.0864 C.ar    1  LIG1       -0.0446
      4 C           2.0357    1.2672   -0.1307 C.ar    1  LIG1        0.0074
      5 H           1.8599    0.0983    1.6516 H       1  LIG1        0.0636
      6 C          -0.0606    1.9859   -1.1070 C.ar    1  LIG1       -0.0393
      7 C           1.3407    1.9418   -1.1528 C.ar    1  LIG1        0.0325
      8 H          -0.5968    2.5137   -1.8860 H       1  LIG1        0.0636
      9 H          -1.8385    1.4043   -0.0621 H       1  LIG1        0.0630
     10 C          -0.7971    0.0170    1.9811 C.1     1  LIG1       -0.0696
     11 C          -1.4049   -0.5291    2.8627 C.1     1  LIG1       -0.1139
     12 H          -1.9410   -1.0140    3.6446 H       1  LIG1        0.1232
     13 N           2.0223    2.5912   -2.1772 N.pl3   1  LIG1       -0.3575
     14 H           2.9454    2.2281   -2.3773 H       1  LIG1        0.1423
     15 H           1.4763    2.7615   -3.0093 H       1  LIG1        0.1423
     16 C           4.2424    0.0378   -0.0507 C.ar    1  LIG1        0.1284
     17 C           5.6352    0.0417   -0.0242 C.ar    1  LIG1       -0.0102
     18 C           3.5290    1.2508   -0.1206 C.ar    1  LIG1        0.0256
     19 C           6.3331    1.2492   -0.1037 C.ar    1  LIG1        0.0031
     20 H           6.1877   -0.8831    0.0524 H       1  LIG1        0.0661
     21 C           4.2487    2.4429   -0.1804 C.ar    1  LIG1       -0.0499
     22 C           5.6409    2.4557   -0.1862 C.ar    1  LIG1       -0.0518
     23 H           3.6966    3.3722   -0.2473 H       1  LIG1        0.0625
     24 O           3.5133   -1.0973   -0.0045 O.3     1  LIG1       -0.4945
     25 C           4.1972   -2.3393   -0.0791 C.3     1  LIG1        0.0788
     26 H           3.4201   -3.0958   -0.1344 H       1  LIG1        0.0660
     27 H           4.8269   -2.3792   -0.9712 H       1  LIG1        0.0660
     28 H           4.8048   -2.4991    0.8147 H       1  LIG1        0.0660
     29 H           6.1717    3.3935   -0.2917 H       1  LIG1        0.0624
     30 C           7.8084    1.2244   -0.1193 C.ar    1  LIG1        0.0646
     31 C           8.6942    0.3120   -0.6757 C.ar    1  LIG1        0.0776
     32 C          10.0193    0.7735   -0.4328 C.ar    1  LIG1       -0.0169
     33 C           9.9055    1.9545    0.2614 C.ar    1  LIG1        0.0664
     34 N           8.5638    2.2063    0.4328 N.ar    1  LIG1       -0.3519
     35 H           8.1860    3.0118    0.9095 H       1  LIG1        0.1660
     36 N           7.9692   -1.8401   -1.9065 N.1     1  LIG1       -0.1908
     37 C           8.3051   -0.8797   -1.3726 C.1     1  LIG1        0.1013
     38 H          10.9405    0.2930   -0.7174 H       1  LIG1        0.0652
     39 C          10.9393    2.8673    0.7440 C.ar    1  LIG1        0.0851
     40 C          11.9677    3.4554    0.0430 C.ar    1  LIG1        0.0692
     41 C          12.6836    4.2652    0.9797 C.ar    1  LIG1        0.0903
     42 C          12.0688    4.1348    2.2103 C.ar    1  LIG1        0.0215
     43 N          11.0258    3.2978    2.0580 N.ar    1  LIG1       -0.3568
     44 H          10.4473    2.9483    2.8058 H       1  LIG1        0.1655
     45 H          12.3228    4.5809    3.1557 H       1  LIG1        0.0820
     46 N          12.2938    3.2700   -1.2939 N.pl3   1  LIG1       -0.3553
     47 H          11.5198    2.9535   -1.8639 H       1  LIG1        0.1424
     48 H          12.7957    4.0444   -1.7085 H       1  LIG1        0.1424
     49 N          14.7155    5.7353    0.3776 N.1     1  LIG1       -0.1908
     50 C          13.8167    5.0817    0.6683 C.1     1  LIG1        0.1025
@<TRIPOS>BOND
     1    15    13    1
     2    14    13    1
     3    13     7    1
     4    36    37    3
     5     8     6    1
     6    47    46    1
     7    48    46    1
     8    37    31    1
     9    46    40    1
    10     7     6   ar
    11     7     4   ar
    12     6     3   ar
    13    27    25    1
    14    38    32    1
    15    31    32   ar
    16    31    30   ar
    17    32    33   ar
    18    29    22    1
    19    23    21    1
    20    22    21   ar
    21    22    19   ar
    22    21    18   ar
    23    26    25    1
    24     4    18    1
    25     4     2   ar
    26    18    16   ar
    27    30    19    1
    28    30    34   ar
    29    19    17   ar
    30     3     9    1
    31     3     1   ar
    32    25    24    1
    33    25    28    1
    34    16    17   ar
    35    16    24    1
    36    17    20    1
    37    40    39   ar
    38    40    41   ar
    39    33    34   ar
    40    33    39    1
    41    49    50    3
    42    34    35    1
    43    50    41    1
    44    39    43   ar
    45     2     1   ar
    46     2     5    1
    47     1    10    1
    48    41    42   ar
    49    10    11    3
    50    43    42   ar
    51    43    44    1
    52    42    45    1
    53    11    12    1
