@<TRIPOS>MOLECULE
mol_data/opt/m06hf/geoms/mol2/4eh6ei-4ee4ea.out
 56 59 0 0 0
SMALL
GASTEIGER

@<TRIPOS>ATOM
      1 C          -0.2108    0.7417    0.8794 C.ar    1  LIG1        0.0254
      2 C           1.1850    0.7765    0.8878 C.ar    1  LIG1       -0.0368
      3 C          -0.8824    1.0999   -0.2949 C.ar    1  LIG1       -0.0446
      4 C           1.9060    1.1597   -0.2368 C.ar    1  LIG1        0.0066
      5 H           1.7188    0.5103    1.7912 H       1  LIG1        0.0636
      6 C          -0.1783    1.4768   -1.4240 C.ar    1  LIG1       -0.0393
      7 C           1.2264    1.5114   -1.4221 C.ar    1  LIG1        0.0325
      8 H          -0.7093    1.7506   -2.3270 H       1  LIG1        0.0636
      9 H          -1.9639    1.0778   -0.3125 H       1  LIG1        0.0630
     10 C          -0.9417    0.3468    2.0583 C.1     1  LIG1       -0.0696
     11 C          -1.5517    0.0180    3.0408 C.1     1  LIG1       -0.1139
     12 H          -2.0897   -0.2709    3.9132 H       1  LIG1        0.1232
     13 N           1.9138    1.8931   -2.5447 N.pl3   1  LIG1       -0.3575
     14 H           2.9091    1.7402   -2.5818 H       1  LIG1        0.1423
     15 H           1.4286    1.9126   -3.4254 H       1  LIG1        0.1423
     16 C           4.1569    2.3285   -0.2687 C.ar    1  LIG1        0.1216
     17 C           3.3977    1.1506   -0.1927 C.ar    1  LIG1        0.0180
     18 C           4.0991   -0.0431   -0.0264 C.ar    1  LIG1       -0.0464
     19 C           5.4889   -0.0613    0.0270 C.ar    1  LIG1       -0.0238
     20 C           6.1373    1.1776   -0.1215 C.ar    1  LIG1        0.0765
     21 N           5.4904    2.3324   -0.2381 N.ar    1  LIG1       -0.2375
     22 H           3.5400   -0.9674    0.0707 H       1  LIG1        0.0628
     23 C           3.4997    3.6174   -0.3610 C.1     1  LIG1       -0.0492
     24 C           2.9421    4.6783   -0.4268 C.1     1  LIG1       -0.1124
     25 H           2.4493    5.6211   -0.4833 H       1  LIG1        0.1232
     26 C           6.2449   -1.3523    0.2702 C.3     1  LIG1       -0.0377
     27 H           7.1048   -1.1716    0.9156 H       1  LIG1        0.0278
     28 H           6.6042   -1.7630   -0.6742 H       1  LIG1        0.0278
     29 H           5.5863   -2.0772    0.7480 H       1  LIG1        0.0278
     30 C           8.4486    0.6742   -1.0494 C.ar    1  LIG1        0.0345
     31 C           9.8373    0.7953   -0.9629 C.ar    1  LIG1       -0.0368
     32 C           7.6313    1.2852   -0.0863 C.ar    1  LIG1        0.0172
     33 C          10.4346    1.5243    0.0617 C.ar    1  LIG1       -0.0001
     34 H          10.4559    0.3211   -1.7131 H       1  LIG1        0.0636
     35 C           8.2229    2.0360    0.9216 C.ar    1  LIG1       -0.0354
     36 C           9.6126    2.1580    1.0090 C.ar    1  LIG1        0.0331
     37 H           7.5970    2.5331    1.6506 H       1  LIG1        0.0637
     38 C           7.8808   -0.0431   -2.1683 C.1     1  LIG1       -0.0690
     39 C           7.4393   -0.6350   -3.1170 C.1     1  LIG1       -0.1139
     40 H           7.0488   -1.1543   -3.9613 H       1  LIG1        0.1232
     41 C          10.1706    2.9242    2.0995 C.1     1  LIG1       -0.0690
     42 C          10.5988    3.5680    3.0191 C.1     1  LIG1       -0.1139
     43 H          10.9842    4.1357    3.8338 H       1  LIG1        0.1232
     44 C          12.7362    0.4969    0.1588 C.ar    1  LIG1        0.0324
     45 C          14.1289    0.6305    0.1871 C.ar    1  LIG1       -0.0457
     46 C          11.9221    1.6401    0.1156 C.ar    1  LIG1       -0.0013
     47 C          14.7129    1.8897    0.1717 C.ar    1  LIG1       -0.0606
     48 H          14.7361   -0.2635    0.2254 H       1  LIG1        0.0630
     49 C          12.5243    2.8991    0.1029 C.ar    1  LIG1       -0.0528
     50 C          13.9083    3.0264    0.1295 C.ar    1  LIG1       -0.0611
     51 H          11.8954    3.7792    0.0683 H       1  LIG1        0.0624
     52 H          15.7906    1.9846    0.1929 H       1  LIG1        0.0618
     53 C          12.1660   -0.8317    0.1962 C.1     1  LIG1       -0.0691
     54 C          11.7249   -1.9492    0.2307 C.1     1  LIG1       -0.1139
     55 H          11.3261   -2.9363    0.2633 H       1  LIG1        0.1232
     56 H          14.3570    4.0106    0.1146 H       1  LIG1        0.0618
@<TRIPOS>BOND
     1    40    39    1
     2    15    13    1
     3    39    38    3
     4    14    13    1
     5    13     7    1
     6     8     6    1
     7    38    30    1
     8    34    31    1
     9     6     7   ar
    10     6     3   ar
    11     7     4   ar
    12    30    31   ar
    13    30    32   ar
    14    31    33   ar
    15    28    26    1
    16    25    24    1
    17    24    23    3
    18    23    16    1
    19     9     3    1
    20     3     1   ar
    21    16    21   ar
    22    16    17   ar
    23    21    20   ar
    24     4    17    1
    25     4     2   ar
    26    17    18   ar
    27    20    32    1
    28    20    19   ar
    29    32    35   ar
    30    18    19   ar
    31    18    22    1
    32    19    26    1
    33    33    46    1
    34    33    36   ar
    35    51    49    1
    36    49    46   ar
    37    49    50   ar
    38    56    50    1
    39    46    44   ar
    40    50    47   ar
    41    44    45   ar
    42    44    53    1
    43    47    45   ar
    44    47    52    1
    45    45    48    1
    46    53    54    3
    47    54    55    1
    48    26    29    1
    49    26    27    1
    50     1     2   ar
    51     1    10    1
    52     2     5    1
    53    35    36   ar
    54    35    37    1
    55    36    41    1
    56    10    11    3
    57    41    42    3
    58    42    43    1
    59    11    12    1
