@<TRIPOS>MOLECULE
mol_data/opt/m06hf/geoms/mol2/4eh6lf-6al6df.out
 54 57 0 0 0
SMALL
GASTEIGER

@<TRIPOS>ATOM
      1 C          -0.1759    0.3551    0.8042 C.ar    1  LIG1        0.0254
      2 C           1.2157    0.4501    0.8047 C.ar    1  LIG1       -0.0367
      3 C          -0.8971    1.0804   -0.1497 C.ar    1  LIG1       -0.0446
      4 C           1.8947    1.2479   -0.1138 C.ar    1  LIG1        0.0091
      5 H           1.7824   -0.1050    1.5416 H       1  LIG1        0.0636
      6 C          -0.2371    1.8872   -1.0586 C.ar    1  LIG1       -0.0393
      7 C           1.1626    1.9962   -1.0595 C.ar    1  LIG1        0.0326
      8 H          -0.8049    2.4502   -1.7892 H       1  LIG1        0.0636
      9 H          -1.9766    1.0119   -0.1640 H       1  LIG1        0.0630
     10 C          -0.8542   -0.4747    1.7701 C.1     1  LIG1       -0.0696
     11 C          -1.4197   -1.1647    2.5758 C.1     1  LIG1       -0.1139
     12 H          -1.9204   -1.7750    3.2905 H       1  LIG1        0.1232
     13 N           1.8042    2.7654   -2.0167 N.pl3   1  LIG1       -0.3575
     14 H           2.6134    3.2666   -1.6704 H       1  LIG1        0.1423
     15 H           1.1872    3.3538   -2.5583 H       1  LIG1        0.1423
     16 C           4.2094    2.3459    0.0182 C.ar    1  LIG1        0.2232
     17 C           3.3860    1.2024   -0.1067 C.ar    1  LIG1        0.0489
     18 C           4.0458   -0.0133   -0.1419 C.ar    1  LIG1       -0.0052
     19 C           5.4408   -0.0713   -0.0770 C.ar    1  LIG1        0.1436
     20 C           6.1505    1.1201    0.0067 C.ar    1  LIG1        0.1176
     21 N           5.5170    2.2999    0.0744 N.ar    1  LIG1       -0.2087
     22 H           3.4912   -0.9399   -0.2217 H       1  LIG1        0.0662
     23 O           3.6022    3.5523    0.0696 O.3     1  LIG1       -0.4792
     24 C           4.4412    4.6826    0.3167 C.3     1  LIG1        0.0804
     25 H           3.7688    5.5351    0.3430 H       1  LIG1        0.0660
     26 H           4.9506    4.5623    1.2721 H       1  LIG1        0.0660
     27 H           5.1809    4.7865   -0.4753 H       1  LIG1        0.0660
     28 O           6.0347   -1.3024   -0.0986 O.3     1  LIG1       -0.5046
     29 H           6.8722   -1.2689    0.3808 H       1  LIG1        0.2922
     30 C           8.2666    2.1178    0.8629 C.ar    1  LIG1        0.0378
     31 C           7.6383    1.1611    0.0664 C.ar    1  LIG1        0.0256
     32 C           8.4356    0.2885   -0.6814 C.ar    1  LIG1       -0.0071
     33 C           9.8201    0.3967   -0.5875 C.ar    1  LIG1        0.1467
     34 C          10.3563    1.3846    0.2592 C.ar    1  LIG1        0.1153
     35 N           9.5873    2.2120    0.9546 N.ar    1  LIG1       -0.2506
     36 H           7.9728   -0.4274   -1.3485 H       1  LIG1        0.0662
     37 H           7.6752    2.8227    1.4319 H       1  LIG1        0.0836
     38 O          10.6925   -0.3791   -1.2674 O.3     1  LIG1       -0.4929
     39 C          10.1775   -1.2611   -2.2535 C.3     1  LIG1        0.0789
     40 H          11.0454   -1.7176   -2.7191 H       1  LIG1        0.0660
     41 H           9.5544   -2.0325   -1.7945 H       1  LIG1        0.0660
     42 H           9.6026   -0.7057   -2.9977 H       1  LIG1        0.0660
     43 C          12.3930    2.8526    0.3920 C.ar    1  LIG1        0.1495
     44 C          11.8287    1.5690    0.4057 C.ar    1  LIG1        0.0432
     45 C          12.6847    0.4925    0.6037 C.ar    1  LIG1       -0.0066
     46 C          14.0390    0.7362    0.7981 C.ar    1  LIG1        0.1356
     47 C          14.4948    2.0563    0.7798 C.ar    1  LIG1        0.0705
     48 N          13.6879    3.0854    0.5733 N.ar    1  LIG1       -0.2403
     49 H          12.3165   -0.5237    0.6103 H       1  LIG1        0.0662
     50 H          15.5455    2.2817    0.9311 H       1  LIG1        0.0867
     51 N          10.9799    4.9772   -0.1327 N.1     1  LIG1       -0.1893
     52 C          11.5802    4.0334    0.1182 C.1     1  LIG1        0.1198
     53 O          14.8594   -0.3207    1.0010 O.3     1  LIG1       -0.5052
     54 H          15.7696   -0.0331    1.1325 H       1  LIG1        0.2922
@<TRIPOS>BOND
     1    42    39    1
     2    40    39    1
     3    15    13    1
     4    39    41    1
     5    39    38    1
     6    13    14    1
     7    13     7    1
     8     8     6    1
     9    36    32    1
    10    38    33    1
    11     7     6   ar
    12     7     4   ar
    13     6     3   ar
    14    32    33   ar
    15    32    31   ar
    16    33    34   ar
    17    27    24    1
    18    22    18    1
    19     9     3    1
    20     3     1   ar
    21    18    17   ar
    22    18    19   ar
    23    51    52    3
    24     4    17    1
    25     4     2   ar
    26    17    16   ar
    27    28    19    1
    28    28    29    1
    29    19    20   ar
    30    20    31    1
    31    20    21   ar
    32    16    23    1
    33    16    21   ar
    34    31    30   ar
    35    23    24    1
    36    52    43    1
    37    34    44    1
    38    34    35   ar
    39    24    25    1
    40    24    26    1
    41    43    44   ar
    42    43    48   ar
    43    44    45   ar
    44    48    47   ar
    45    45    49    1
    46    45    46   ar
    47    47    46   ar
    48    47    50    1
    49    46    53    1
    50     1     2   ar
    51     1    10    1
    52     2     5    1
    53    30    35   ar
    54    30    37    1
    55    53    54    1
    56    10    11    3
    57    11    12    1
