@<TRIPOS>MOLECULE
mol_data/opt/m06hf/geoms/mol2/4ei.out
 17 17 0 0 0
SMALL
GASTEIGER

@<TRIPOS>ATOM
      1 C           0.0771    0.0035   -0.0007 C.ar    1  LIG1        0.0247
      2 C           1.4749   -0.0044    0.0038 C.ar    1  LIG1       -0.0461
      3 C          -0.6049    1.2236    0.0040 C.ar    1  LIG1       -0.0461
      4 C           2.1751    1.1956    0.0122 C.ar    1  LIG1       -0.0577
      5 H           1.9994   -0.9501    0.0040 H       1  LIG1        0.0630
      6 C           0.1077    2.4164    0.0124 C.ar    1  LIG1       -0.0577
      7 C           1.5041    2.4202    0.0147 C.ar    1  LIG1       -0.0504
      8 H          -0.4280    3.3579    0.0190 H       1  LIG1        0.0621
      9 H           3.2583    1.1812    0.0187 H       1  LIG1        0.0621
     10 H          -1.6864    1.2262    0.0042 H       1  LIG1        0.0630
     11 C          -0.6577   -1.2410   -0.0059 C.1     1  LIG1       -0.0697
     12 C          -1.2689   -2.2757   -0.0103 C.1     1  LIG1       -0.1139
     13 H          -1.8105   -3.1930   -0.0142 H       1  LIG1        0.1232
     14 C           2.2758    3.7271   -0.0083 C.3     1  LIG1       -0.0397
     15 H           1.7118    4.5142    0.4916 H       1  LIG1        0.0278
     16 H           2.4584    4.0363   -1.0395 H       1  LIG1        0.0278
     17 H           3.2373    3.6135    0.4916 H       1  LIG1        0.0278
@<TRIPOS>BOND
     1    16    14    1
     2    13    12    1
     3    12    11    3
     4    14     7    1
     5    14    15    1
     6    14    17    1
     7    11     1    1
     8     1     2   ar
     9     1     3   ar
    10     2     5    1
    11     2     4   ar
    12     3    10    1
    13     3     6   ar
    14     4     7   ar
    15     4     9    1
    16     6     7   ar
    17     6     8    1
