@<TRIPOS>MOLECULE
mol_data/opt/m06hf/geoms/mol2/4ei12lh4fh-13ia4ed-13le13dh-4fa.out
 103 110 0 0 0
SMALL
GASTEIGER

@<TRIPOS>ATOM
      1 C           0.3618   -1.2297   -1.1750 C.ar    1  LIG1        0.0254
      2 C           1.5586   -0.8390   -0.5762 C.ar    1  LIG1       -0.0353
      3 C          -0.3986   -0.2889   -1.8733 C.ar    1  LIG1       -0.0460
      4 C           1.9970    0.4862   -0.6603 C.ar    1  LIG1        0.0251
      5 H           2.1572   -1.5663   -0.0428 H       1  LIG1        0.0637
      6 C           0.0448    1.0241   -1.9541 C.ar    1  LIG1       -0.0570
      7 C           1.2339    1.4427   -1.3543 C.ar    1  LIG1       -0.0396
      8 H          -0.5508    1.7510   -2.4925 H       1  LIG1        0.0621
      9 H          -1.3247   -0.5916   -2.3417 H       1  LIG1        0.0630
     10 C          -0.0836   -2.6012   -1.0767 C.1     1  LIG1       -0.0696
     11 C          -0.4578   -3.7401   -0.9939 C.1     1  LIG1       -0.1139
     12 H          -0.7888   -4.7497   -0.9189 H       1  LIG1        0.1232
     13 C           1.6453    2.9004   -1.4612 C.3     1  LIG1       -0.0390
     14 H           0.8408    3.4724   -1.9213 H       1  LIG1        0.0278
     15 H           2.5495    2.9984   -2.0630 H       1  LIG1        0.0278
     16 H           1.8528    3.3084   -0.4708 H       1  LIG1        0.0278
     17 C           3.2640    0.8111    0.0160 C.ar    1  LIG1        0.1793
     18 C           3.9363    0.1683    1.0117 C.ar    1  LIG1        0.1870
     19 C           5.1452    0.9008    1.2729 C.ar    1  LIG1        0.1141
     20 C           5.1298    1.9461    0.3921 C.ar    1  LIG1        0.1635
     21 O           3.9842    1.8891   -0.3592 O.2     1  LIG1       -0.4490
     22 O           3.5854   -0.9585    1.6946 O.3     1  LIG1       -0.4896
     23 C           2.7891   -0.6744    2.8509 C.3     1  LIG1        0.0791
     24 H           2.6108   -1.6283    3.3408 H       1  LIG1        0.0660
     25 H           3.3313    0.0017    3.5144 H       1  LIG1        0.0660
     26 H           1.8443   -0.2232    2.5445 H       1  LIG1        0.0660
     27 N           6.0068    0.5649    2.3071 N.pl3   1  LIG1       -0.3522
     28 H           5.9451   -0.4226    2.5264 H       1  LIG1        0.1425
     29 H           6.9574    0.8730    2.1392 H       1  LIG1        0.1425
     30 C           7.3734    3.0777    0.3312 C.ar    1  LIG1        0.1283
     31 C           8.1356    4.2125    0.0897 C.ar    1  LIG1       -0.0086
     32 C           5.9884    3.1061    0.1434 C.ar    1  LIG1        0.0624
     33 C           7.5574    5.3901   -0.3819 C.ar    1  LIG1        0.0227
     34 H           9.2008    4.1979    0.2919 H       1  LIG1        0.0661
     35 C           5.4139    4.2875   -0.3366 C.ar    1  LIG1       -0.0262
     36 C           6.1695    5.4215   -0.6084 C.ar    1  LIG1        0.0347
     37 H           4.3437    4.3020   -0.5035 H       1  LIG1        0.0644
     38 O           7.9539    1.9091    0.7557 O.3     1  LIG1       -0.5060
     39 H           8.9129    1.9765    0.7011 H       1  LIG1        0.2922
     40 N           5.5536    6.6179   -1.0584 N.pl3   1  LIG1       -0.3574
     41 H           6.0475    7.0192   -1.8514 H       1  LIG1        0.1423
     42 H           4.5795    6.4743   -1.2977 H       1  LIG1        0.1423
     43 C           8.3959    6.5820   -0.6104 C.ar    1  LIG1        0.0517
     44 C           9.6859    6.7150   -1.1024 C.ar    1  LIG1       -0.0245
     45 C          10.0033    8.0961   -1.0427 C.ar    1  LIG1       -0.0329
     46 C           8.9069    8.7639   -0.5281 C.ar    1  LIG1        0.0484
     47 N           7.9440    7.8281   -0.2826 N.ar    1  LIG1       -0.3539
     48 H           7.0335    7.9850    0.1296 H       1  LIG1        0.1659
     49 C          10.5754    5.6196   -1.6406 C.3     1  LIG1       -0.0377
     50 H          11.1676    6.0023   -2.4721 H       1  LIG1        0.0278
     51 H           9.9758    4.7822   -1.9992 H       1  LIG1        0.0278
     52 H          11.2649    5.2545   -0.8755 H       1  LIG1        0.0278
     53 H          10.9186    8.5571   -1.3739 H       1  LIG1        0.0641
     54 C           9.6249   11.1296    0.0200 C.ar    1  LIG1        0.0345
     55 C           9.3117   12.4761    0.2025 C.ar    1  LIG1       -0.0352
     56 C           8.6281   10.1935   -0.3271 C.ar    1  LIG1        0.0149
     57 C           8.0052   12.9503    0.0572 C.ar    1  LIG1        0.0205
     58 H          10.0935   13.1731    0.4716 H       1  LIG1        0.0637
     59 C           7.3253   10.6652   -0.4812 C.ar    1  LIG1       -0.0334
     60 C           7.0175   12.0106   -0.2895 C.ar    1  LIG1        0.0617
     61 H           6.5357    9.9893   -0.7858 H       1  LIG1        0.0637
     62 C          10.9959   10.7332    0.2383 C.1     1  LIG1       -0.0690
     63 C          12.1479   10.4612    0.4448 C.1     1  LIG1       -0.1139
     64 H          13.1655   10.2092    0.6369 H       1  LIG1        0.1232
     65 N           4.5506   12.7663   -0.6060 N.1     1  LIG1       -0.1908
     66 C           5.6393   12.4185   -0.4837 C.1     1  LIG1        0.0998
     67 C           7.7333   14.3794    0.2419 C.ar    1  LIG1        0.0917
     68 C           8.5913   15.4582    0.1178 C.ar    1  LIG1        0.1612
     69 C           7.8436   16.6535    0.3219 C.ar    1  LIG1        0.0936
     70 C           6.5424   16.2534    0.5889 C.ar    1  LIG1        0.0839
     71 N           6.5000   14.8983    0.5425 N.ar    1  LIG1       -0.3490
     72 H           5.6877   14.3599    0.8067 H       1  LIG1        0.1661
     73 O           9.9134   15.3791   -0.1807 O.3     1  LIG1       -0.4917
     74 C          10.2235   15.7968   -1.5140 C.3     1  LIG1        0.0789
     75 H          11.3017   15.7063   -1.6170 H       1  LIG1        0.0660
     76 H           9.7173   15.1447   -2.2285 H       1  LIG1        0.0660
     77 H           9.9151   16.8319   -1.6607 H       1  LIG1        0.0660
     78 C           8.3258   17.9948    0.2217 C.1     1  LIG1       -0.0638
     79 C           8.7263   19.1242    0.1341 C.1     1  LIG1       -0.1137
     80 H           9.0705   20.1313    0.0880 H       1  LIG1        0.1232
     81 C           5.3064   16.9933    0.8020 C.ar    1  LIG1        0.0841
     82 C           5.0126   18.1574    1.4930 C.ar    1  LIG1        0.0996
     83 C           3.6061   18.3955    1.3812 C.ar    1  LIG1        0.0686
     84 C           3.0894   17.3635    0.6177 C.ar    1  LIG1        0.0727
     85 N           4.1417   16.5310    0.2903 N.ar    1  LIG1       -0.3504
     86 H           4.0776   15.7863   -0.3913 H       1  LIG1        0.1660
     87 N           6.5509   19.6855    2.8857 N.1     1  LIG1       -0.1907
     88 C           5.9024   18.9752    2.2568 C.1     1  LIG1        0.1032
     89 N           2.9173   19.4113    2.0289 N.pl3   1  LIG1       -0.3553
     90 H           3.5266   20.1224    2.4120 H       1  LIG1        0.1424
     91 H           2.1656   19.7928    1.4669 H       1  LIG1        0.1424
     92 C           0.7875   17.9654   -0.1907 C.ar    1  LIG1        0.1260
     93 C          -0.4993   17.5953   -0.5694 C.ar    1  LIG1       -0.0195
     94 C           1.7193   17.0035    0.2199 C.ar    1  LIG1        0.0415
     95 C          -0.8686   16.2549   -0.5717 C.ar    1  LIG1       -0.0583
     96 H          -1.2060   18.3587   -0.8750 H       1  LIG1        0.0654
     97 C           1.3237   15.6608    0.2117 C.ar    1  LIG1       -0.0491
     98 C           0.0474   15.2813   -0.1862 C.ar    1  LIG1       -0.0609
     99 H           2.0294   14.9068    0.5398 H       1  LIG1        0.0625
    100 H          -1.8697   15.9777   -0.8732 H       1  LIG1        0.0619
    101 O           1.1877   19.2730   -0.2239 O.3     1  LIG1       -0.5061
    102 H           0.4949   19.8257   -0.6009 H       1  LIG1        0.2922
    103 H          -0.2320   14.2369   -0.1809 H       1  LIG1        0.0618
@<TRIPOS>BOND
     1     8     6    1
     2    50    49    1
     3     9     3    1
     4    76    74    1
     5    15    13    1
     6    51    49    1
     7     6     3   ar
     8     6     7   ar
     9    14    13    1
    10     3     1   ar
    11    41    40    1
    12    77    74    1
    13    49    44    1
    14    49    52    1
    15    75    74    1
    16    74    73    1
    17    13     7    1
    18    13    16    1
    19    53    45    1
    20     7     4   ar
    21    42    40    1
    22     1    10    1
    23     1     2   ar
    24    44    45   ar
    25    44    43   ar
    26    10    11    3
    27    40    36    1
    28    45    46   ar
    29    11    12    1
    30    96    93    1
    31   100    95    1
    32    61    59    1
    33     4     2   ar
    34     4    17    1
    35    43    33    1
    36    43    47   ar
    37    36    33   ar
    38    36    35   ar
    39    65    66    3
    40   102   101    1
    41     2     5    1
    42    95    93   ar
    43    95    98   ar
    44    93    92   ar
    45    46    56    1
    46    46    47   ar
    47    37    35    1
    48    66    60    1
    49    59    56   ar
    50    59    60   ar
    51    86    85    1
    52    33    31   ar
    53    21    17   ar
    54    21    20   ar
    55    35    32   ar
    56    56    54   ar
    57    60    57   ar
    58    47    48    1
    59   101    92    1
    60    92    94   ar
    61    98   103    1
    62    98    97   ar
    63    73    68    1
    64    17    18   ar
    65    54    55   ar
    66    54    62    1
    67    57    55   ar
    68    57    67    1
    69    80    79    1
    70    31    34    1
    71    31    30   ar
    72    68    67   ar
    73    68    69   ar
    74    79    78    3
    75    32    30   ar
    76    32    20    1
    77    55    58    1
    78    97    94   ar
    79    97    99    1
    80    94    84    1
    81    78    69    1
    82    62    63    3
    83    67    71   ar
    84    85    84   ar
    85    85    81   ar
    86    69    70   ar
    87    30    38    1
    88    20    19   ar
    89    63    64    1
    90    71    70   ar
    91    71    72    1
    92    70    81    1
    93    84    83   ar
    94    39    38    1
    95    81    82   ar
    96    18    19   ar
    97    18    22    1
    98    19    27    1
    99    83    82   ar
   100    83    89    1
   101    91    89    1
   102    82    88    1
   103    22    23    1
   104    89    90    1
   105    29    27    1
   106    88    87    3
   107    27    28    1
   108    26    23    1
   109    23    24    1
   110    23    25    1
