@<TRIPOS>MOLECULE
mol_data/opt/m06hf/geoms/mol2/4ei12fh13ee12hi.out
 51 54 0 0 0
SMALL
GASTEIGER

@<TRIPOS>ATOM
      1 C           0.0137   -0.1999    0.4697 C.ar    1  LIG1        0.0254
      2 C           1.3765   -0.0639    0.2116 C.ar    1  LIG1       -0.0353
      3 C          -0.7848    0.9398    0.5865 C.ar    1  LIG1       -0.0460
      4 C           1.9513    1.2027    0.0615 C.ar    1  LIG1        0.0251
      5 H           1.9952   -0.9475    0.1260 H       1  LIG1        0.0637
      6 C          -0.2081    2.1926    0.4318 C.ar    1  LIG1       -0.0570
      7 C           1.1522    2.3571    0.1648 C.ar    1  LIG1       -0.0396
      8 H          -0.8309    3.0747    0.5168 H       1  LIG1        0.0621
      9 H          -1.8411    0.8354    0.7927 H       1  LIG1        0.0630
     10 C          -0.5646   -1.5153    0.6273 C.1     1  LIG1       -0.0696
     11 C          -1.0476   -2.6072    0.7630 C.1     1  LIG1       -0.1139
     12 H          -1.4711   -3.5766    0.8856 H       1  LIG1        0.1232
     13 C           1.6989    3.7634   -0.0166 C.3     1  LIG1       -0.0390
     14 H           0.8764    4.4773    0.0052 H       1  LIG1        0.0278
     15 H           2.2144    3.8485   -0.9748 H       1  LIG1        0.0278
     16 H           2.4059    4.0091    0.7764 H       1  LIG1        0.0278
     17 C           3.3946    1.2404   -0.2020 C.ar    1  LIG1        0.1791
     18 C           4.2824    0.2702   -0.5631 C.ar    1  LIG1        0.1845
     19 C           5.5807    0.8696   -0.6446 C.ar    1  LIG1        0.1153
     20 C           5.4016    2.1749   -0.2989 C.ar    1  LIG1        0.1772
     21 O           4.0969    2.4042   -0.0387 O.2     1  LIG1       -0.4476
     22 O           4.0741   -1.0359   -0.8259 O.3     1  LIG1       -0.5020
     23 H           4.9529   -1.4103   -1.0051 H       1  LIG1        0.2924
     24 N           6.7005    0.1016   -1.0553 N.pl3   1  LIG1       -0.3521
     25 H           6.9940    0.3600   -1.9939 H       1  LIG1        0.1425
     26 H           7.4904    0.2432   -0.4316 H       1  LIG1        0.1425
     27 C           6.2942    3.3150   -0.1947 C.ar    1  LIG1        0.1014
     28 C           7.6472    3.3994    0.0760 C.ar    1  LIG1        0.0691
     29 C           7.9996    4.7890    0.0140 C.ar    1  LIG1        0.0691
     30 C           6.8361    5.4929   -0.2561 C.ar    1  LIG1        0.1012
     31 N           5.8313    4.5830   -0.3806 N.ar    1  LIG1       -0.3473
     32 H           4.8721    4.8241   -0.5885 H       1  LIG1        0.1662
     33 C           8.5352    2.3297    0.4106 C.1     1  LIG1       -0.0662
     34 C           9.3057    1.4573    0.7170 C.1     1  LIG1       -0.1138
     35 H           9.9974    0.7022    1.0117 H       1  LIG1        0.1232
     36 C           9.3189    5.3160    0.1654 C.1     1  LIG1       -0.0662
     37 C          10.4398    5.7383    0.2863 C.1     1  LIG1       -0.1138
     38 H          11.4403    6.0930    0.3767 H       1  LIG1        0.1232
     39 C           6.5494    6.9075   -0.4086 C.ar    1  LIG1        0.1729
     40 C           7.1108    8.0591    0.0630 C.ar    1  LIG1        0.0754
     41 C           6.2758    9.1373   -0.4261 C.ar    1  LIG1        0.0086
     42 C           5.2851    8.5414   -1.1259 C.ar    1  LIG1        0.0974
     43 O           5.4220    7.2017   -1.1277 O.2     1  LIG1       -0.4592
     44 H           4.4387    8.9403   -1.6584 H       1  LIG1        0.1033
     45 N           8.1773    8.2424    0.9305 N.pl3   1  LIG1       -0.3548
     46 H           8.8034    7.4505    1.0097 H       1  LIG1        0.1424
     47 H           8.6785    9.1070    0.7757 H       1  LIG1        0.1424
     48 C           6.4909   10.6011   -0.1513 C.3     1  LIG1       -0.0350
     49 H           5.6728   11.1875   -0.5677 H       1  LIG1        0.0279
     50 H           7.4244   10.9473   -0.6002 H       1  LIG1        0.0279
     51 H           6.5370   10.7756    0.9251 H       1  LIG1        0.0279
@<TRIPOS>BOND
     1    25    24    1
     2    44    42    1
     3    43    42   ar
     4    43    39   ar
     5    42    41   ar
     6    24    19    1
     7    24    26    1
     8    23    22    1
     9    15    13    1
    10    22    18    1
    11    19    18   ar
    12    19    20   ar
    13    50    48    1
    14    32    31    1
    15    49    48    1
    16    18    17   ar
    17    41    48    1
    18    41    40   ar
    19    39    30    1
    20    39    40   ar
    21    31    30   ar
    22    31    27   ar
    23    20    27    1
    24    20    21   ar
    25    30    29   ar
    26    17    21   ar
    27    17     4    1
    28    27    28   ar
    29    48    51    1
    30    13    14    1
    31    13     7    1
    32    13    16    1
    33    29    28   ar
    34    29    36    1
    35     4     7   ar
    36     4     2   ar
    37    40    45    1
    38    28    33    1
    39     5     2    1
    40     7     6   ar
    41    36    37    3
    42     2     1   ar
    43    37    38    1
    44    33    34    3
    45     6     8    1
    46     6     3   ar
    47     1     3   ar
    48     1    10    1
    49     3     9    1
    50    10    11    3
    51    34    35    1
    52    11    12    1
    53    47    45    1
    54    45    46    1
