@<TRIPOS>MOLECULE
mol_data/opt/m06hf/geoms/mol2/4ei12ef-13la-13ee-.out
 51 54 0 0 0
SMALL
GASTEIGER

@<TRIPOS>ATOM
      1 C           1.4422    2.8913   -3.5408 C.ar    1  LIG1        0.0254
      2 C           2.5285    2.3752   -2.8360 C.ar    1  LIG1       -0.0354
      3 C           0.2881    3.2635   -2.8480 C.ar    1  LIG1       -0.0460
      4 C           2.4656    2.2169   -1.4498 C.ar    1  LIG1        0.0227
      5 H           3.4282    2.1054   -3.3718 H       1  LIG1        0.0637
      6 C           0.2353    3.1085   -1.4692 C.ar    1  LIG1       -0.0570
      7 C           1.3057    2.5848   -0.7431 C.ar    1  LIG1       -0.0397
      8 H          -0.6640    3.3951   -0.9385 H       1  LIG1        0.0621
      9 H          -0.5536    3.6692   -3.3925 H       1  LIG1        0.0630
     10 C           1.5175    3.0499   -4.9749 C.1     1  LIG1       -0.0696
     11 C           1.5751    3.1821   -6.1678 C.1     1  LIG1       -0.1139
     12 H           1.6285    3.3003   -7.2252 H       1  LIG1        0.1232
     13 C           1.1708    2.4322    0.7622 C.3     1  LIG1       -0.0390
     14 H           0.1241    2.5368    1.0443 H       1  LIG1        0.0278
     15 H           1.7524    3.2039    1.2701 H       1  LIG1        0.0278
     16 H           1.5320    1.4558    1.0869 H       1  LIG1        0.0278
     17 C           3.6464    1.6474   -0.7808 C.ar    1  LIG1        0.1551
     18 C           4.6246    0.7948   -1.2208 C.ar    1  LIG1        0.1125
     19 C           5.5314    0.6130   -0.1164 C.ar    1  LIG1        0.1806
     20 C           5.0531    1.3669    0.9066 C.ar    1  LIG1        0.1978
     21 O           3.9091    1.9897    0.4937 O.2     1  LIG1       -0.4482
     22 C           4.7788    0.1284   -2.4758 C.1     1  LIG1       -0.0622
     23 C           4.9750   -0.4616   -3.5055 C.1     1  LIG1       -0.1137
     24 H           5.1246   -0.9791   -4.4251 H       1  LIG1        0.1232
     25 O           6.6127   -0.1940   -0.1089 O.3     1  LIG1       -0.5023
     26 H           6.7412   -0.5517   -0.9968 H       1  LIG1        0.2923
     27 C           5.4683    1.6081    2.2736 C.ar    1  LIG1        0.1285
     28 C           6.7008    1.4996    2.8881 C.ar    1  LIG1        0.1490
     29 C           6.5460    1.8761    4.2488 C.ar    1  LIG1        0.0076
     30 C           5.2225    2.2205    4.4151 C.ar    1  LIG1        0.0682
     31 N           4.5790    2.0449    3.2195 N.ar    1  LIG1       -0.3475
     32 H           3.6453    2.3615    3.0065 H       1  LIG1        0.1661
     33 O           7.8484    1.1199    2.2661 O.3     1  LIG1       -0.4929
     34 C           8.2189   -0.2343    2.5137 C.3     1  LIG1        0.0789
     35 H           9.1321   -0.4067    1.9491 H       1  LIG1        0.0660
     36 H           8.4025   -0.3867    3.5799 H       1  LIG1        0.0660
     37 H           7.4332   -0.9041    2.1641 H       1  LIG1        0.0660
     38 H           7.3057    1.9049    5.0113 H       1  LIG1        0.0676
     39 C           4.5094    2.6864    5.6001 C.ar    1  LIG1        0.0798
     40 C           4.9036    3.5459    6.6061 C.ar    1  LIG1        0.0667
     41 C           3.8052    3.6486    7.5261 C.ar    1  LIG1        0.0580
     42 C           2.7957    2.8527    7.0388 C.ar    1  LIG1        0.0189
     43 N           3.2318    2.2834    5.8807 N.ar    1  LIG1       -0.3574
     44 H           2.7403    1.5735    5.3604 H       1  LIG1        0.1654
     45 H           1.8175    2.6586    7.4416 H       1  LIG1        0.0820
     46 C           6.1628    4.2182    6.6963 C.1     1  LIG1       -0.0663
     47 C           7.2202    4.7828    6.7764 C.1     1  LIG1       -0.1138
     48 H           8.1526    5.2923    6.8473 H       1  LIG1        0.1232
     49 C           3.7586    4.4385    8.7196 C.1     1  LIG1       -0.0669
     50 C           3.7193    5.1010    9.7206 C.1     1  LIG1       -0.1138
     51 H           3.6909    5.6903   10.6070 H       1  LIG1        0.1232
@<TRIPOS>BOND
     1    12    11    1
     2    11    10    3
     3    10     1    1
     4    24    23    1
     5     1     3   ar
     6     1     2   ar
     7    23    22    3
     8     9     3    1
     9     5     2    1
    10     3     6   ar
    11     2     4   ar
    12    22    18    1
    13     6     8    1
    14     6     7   ar
    15     4    17    1
    16     4     7   ar
    17    18    17   ar
    18    18    19   ar
    19    26    25    1
    20    17    21   ar
    21     7    13    1
    22    19    25    1
    23    19    20   ar
    24    21    20   ar
    25    13    14    1
    26    13    16    1
    27    13    15    1
    28    20    27    1
    29    35    34    1
    30    37    34    1
    31    33    34    1
    32    33    28    1
    33    27    28   ar
    34    27    31   ar
    35    34    36    1
    36    28    29   ar
    37    32    31    1
    38    31    30   ar
    39    29    30   ar
    40    29    38    1
    41    30    39    1
    42    44    43    1
    43    39    43   ar
    44    39    40   ar
    45    43    42   ar
    46    40    46    1
    47    40    41   ar
    48    46    47    3
    49    47    48    1
    50    42    45    1
    51    42    41   ar
    52    41    49    1
    53    49    50    3
    54    50    51    1
