@<TRIPOS>MOLECULE
mol_data/opt/m06hf/geoms/mol2/4ei4ei4ei-4ei-.out
 62 65 0 0 0
SMALL
GASTEIGER

@<TRIPOS>ATOM
      1 C          -0.2120    0.0954   -0.4131 C.ar    1  LIG1        0.0253
      2 C           1.1849    0.1156   -0.3819 C.ar    1  LIG1       -0.0383
      3 C          -0.9225    1.2312   -0.0209 C.ar    1  LIG1       -0.0461
      4 C           1.8663    1.2536    0.0395 C.ar    1  LIG1       -0.0126
      5 H           1.7396   -0.7651   -0.6793 H       1  LIG1        0.0636
      6 C          -0.2351    2.3673    0.3881 C.ar    1  LIG1       -0.0571
      7 C           1.1595    2.4033    0.4255 C.ar    1  LIG1       -0.0426
      8 H          -0.7916    3.2499    0.6794 H       1  LIG1        0.0621
      9 H          -2.0037    1.2170   -0.0463 H       1  LIG1        0.0630
     10 C          -0.9098   -1.0929   -0.8484 C.1     1  LIG1       -0.0696
     11 C          -1.4868   -2.0833   -1.2095 C.1     1  LIG1       -0.1139
     12 H          -1.9954   -2.9631   -1.5277 H       1  LIG1        0.1232
     13 C           1.8855    3.6600    0.8658 C.3     1  LIG1       -0.0391
     14 H           1.2021    4.5086    0.8577 H       1  LIG1        0.0278
     15 H           2.7237    3.8691    0.1998 H       1  LIG1        0.0278
     16 H           2.2768    3.5294    1.8765 H       1  LIG1        0.0278
     17 C           4.0901    1.2073    1.2428 C.ar    1  LIG1        0.0330
     18 C           5.4867    1.1858    1.2032 C.ar    1  LIG1       -0.0377
     19 C           3.3634    1.2342    0.0444 C.ar    1  LIG1       -0.0019
     20 C           6.1671    1.1891   -0.0104 C.ar    1  LIG1       -0.0126
     21 H           6.0431    1.1675    2.1313 H       1  LIG1        0.0636
     22 C           4.0597    1.2184   -1.1635 C.ar    1  LIG1       -0.0494
     23 C           5.4529    1.1946   -1.2186 C.ar    1  LIG1       -0.0421
     24 H           3.4901    1.2243   -2.0858 H       1  LIG1        0.0627
     25 C           3.4141    1.1779    2.5195 C.1     1  LIG1       -0.0690
     26 C           2.8608    1.1505    3.5867 C.1     1  LIG1       -0.1139
     27 H           2.3640    1.1164    4.5283 H       1  LIG1        0.1232
     28 C           6.1685    1.1622   -2.5552 C.3     1  LIG1       -0.0391
     29 H           5.4691    0.8984   -3.3478 H       1  LIG1        0.0278
     30 H           6.9773    0.4304   -2.5335 H       1  LIG1        0.0278
     31 H           6.5983    2.1418   -2.7715 H       1  LIG1        0.0278
     32 C           8.4319    2.2529   -0.3821 C.ar    1  LIG1        0.0330
     33 C           9.8268    2.1676   -0.3544 C.ar    1  LIG1       -0.0377
     34 C           7.6632    1.1457    0.0029 C.ar    1  LIG1       -0.0019
     35 C          10.4624    1.0019    0.0596 C.ar    1  LIG1       -0.0126
     36 H          10.4160    3.0277   -0.6455 H       1  LIG1        0.0636
     37 C           8.3160   -0.0161    0.4143 C.ar    1  LIG1       -0.0494
     38 C           9.7061   -0.1143    0.4502 C.ar    1  LIG1       -0.0421
     39 H           7.7135   -0.8701    0.7023 H       1  LIG1        0.0627
     40 C           7.8015    3.4875   -0.7901 C.1     1  LIG1       -0.0690
     41 C           7.2890    4.5188   -1.1348 C.1     1  LIG1       -0.1139
     42 H           6.8310    5.4335   -1.4318 H       1  LIG1        0.1232
     43 C          10.3788   -1.3995    0.8916 C.3     1  LIG1       -0.0391
     44 H          10.8457   -1.2575    1.8682 H       1  LIG1        0.0278
     45 H          11.1547   -1.6856    0.1799 H       1  LIG1        0.0278
     46 H           9.6453   -2.2018    0.9620 H       1  LIG1        0.0278
     47 C          12.6889    0.9763    1.2537 C.ar    1  LIG1        0.0324
     48 C          14.0872    0.9370    1.2136 C.ar    1  LIG1       -0.0455
     49 C          11.9590    0.9545    0.0571 C.ar    1  LIG1       -0.0020
     50 C          14.7507    0.8775   -0.0030 C.ar    1  LIG1       -0.0576
     51 H          14.6377    0.9590    2.1442 H       1  LIG1        0.0630
     52 C          12.6472    0.9013   -1.1558 C.ar    1  LIG1       -0.0499
     53 C          14.0395    0.8602   -1.2060 C.ar    1  LIG1       -0.0498
     54 H          12.0733    0.8879   -2.0753 H       1  LIG1        0.0627
     55 H          15.8339    0.8474   -0.0222 H       1  LIG1        0.0621
     56 C          12.0130    1.0571    2.5282 C.1     1  LIG1       -0.0691
     57 C          11.4622    1.1223    3.5947 C.1     1  LIG1       -0.1139
     58 H          10.9692    1.1899    4.5364 H       1  LIG1        0.1232
     59 C          14.7744    0.7818   -2.5312 C.3     1  LIG1       -0.0397
     60 H          15.2424   -0.1978   -2.6435 H       1  LIG1        0.0278
     61 H          15.5555    1.5419   -2.5773 H       1  LIG1        0.0278
     62 H          14.0874    0.9355   -3.3622 H       1  LIG1        0.0278
@<TRIPOS>BOND
     1    62    59    1
     2    29    28    1
     3    31    28    1
     4    60    59    1
     5    61    59    1
     6    28    30    1
     7    28    23    1
     8    59    53    1
     9    24    22    1
    10    54    52    1
    11    12    11    1
    12    42    41    1
    13    23    22   ar
    14    23    20   ar
    15    11    10    3
    16    53    52   ar
    17    53    50   ar
    18    22    19   ar
    19    52    49   ar
    20    41    40    3
    21    10     1    1
    22    40    32    1
    23     5     2    1
    24    36    33    1
    25     1     2   ar
    26     1     3   ar
    27    32    33   ar
    28    32    34   ar
    29     2     4   ar
    30    33    35   ar
    31     9     3    1
    32    55    50    1
    33     3     6   ar
    34    20    34    1
    35    20    18   ar
    36    50    48   ar
    37    34    37   ar
    38     4    19    1
    39     4     7   ar
    40    19    17   ar
    41    49    35    1
    42    49    47   ar
    43    35    38   ar
    44    45    43    1
    45    15    13    1
    46     6     7   ar
    47     6     8    1
    48    37    38   ar
    49    37    39    1
    50     7    13    1
    51    38    43    1
    52    14    13    1
    53    13    16    1
    54    43    46    1
    55    43    44    1
    56    18    17   ar
    57    18    21    1
    58    48    47   ar
    59    48    51    1
    60    17    25    1
    61    47    56    1
    62    25    26    3
    63    56    57    3
    64    26    27    1
    65    57    58    1
