@<TRIPOS>MOLECULE
mol_data/opt/m06hf/geoms/mol2/4ei4ei-4ei4ei.out
 62 65 0 0 0
SMALL
GASTEIGER

@<TRIPOS>ATOM
      1 C          -0.2055    0.2945   -0.9406 C.ar    1  LIG1        0.0253
      2 C           1.1914    0.3138   -0.9046 C.ar    1  LIG1       -0.0383
      3 C          -0.9242    1.1484   -0.1022 C.ar    1  LIG1       -0.0461
      4 C           1.8644    1.1782   -0.0459 C.ar    1  LIG1       -0.0126
      5 H           1.7536   -0.3421   -1.5563 H       1  LIG1        0.0636
      6 C          -0.2455    2.0011    0.7602 C.ar    1  LIG1       -0.0571
      7 C           1.1487    2.0327    0.8077 C.ar    1  LIG1       -0.0426
      8 H          -0.8093    2.6522    1.4167 H       1  LIG1        0.0621
      9 H          -2.0055    1.1326   -0.1277 H       1  LIG1        0.0630
     10 C          -0.8962   -0.6049   -1.8364 C.1     1  LIG1       -0.0696
     11 C          -1.4687   -1.3547   -2.5812 C.1     1  LIG1       -0.1139
     12 H          -1.9727   -2.0194   -3.2433 H       1  LIG1        0.1232
     13 C           1.8678    2.9620    1.7669 C.3     1  LIG1       -0.0391
     14 H           1.1648    3.3658    2.4948 H       1  LIG1        0.0278
     15 H           2.3224    3.7874    1.2155 H       1  LIG1        0.0278
     16 H           2.6584    2.4261    2.2939 H       1  LIG1        0.0278
     17 C           4.1191    2.2086   -0.5521 C.ar    1  LIG1        0.0330
     18 C           5.5147    2.1363   -0.5272 C.ar    1  LIG1       -0.0377
     19 C           3.3613    1.1501   -0.0321 C.ar    1  LIG1       -0.0019
     20 C           6.1628    1.0237   -0.0009 C.ar    1  LIG1       -0.0126
     21 H           6.0947    2.9525   -0.9383 H       1  LIG1        0.0636
     22 C           4.0265    0.0446    0.4964 C.ar    1  LIG1       -0.0494
     23 C           5.4178   -0.0428    0.5253 C.ar    1  LIG1       -0.0421
     24 H           3.4333   -0.7651    0.9059 H       1  LIG1        0.0627
     25 C           3.4784    3.3657   -1.1338 C.1     1  LIG1       -0.0690
     26 C           2.9596    4.3347   -1.6206 C.1     1  LIG1       -0.1139
     27 H           2.4948    5.1857   -2.0609 H       1  LIG1        0.1232
     28 C           6.0993   -1.2594    1.1211 C.3     1  LIG1       -0.0391
     29 H           6.9257   -0.9552    1.7650 H       1  LIG1        0.0278
     30 H           6.5010   -1.8874    0.3236 H       1  LIG1        0.0278
     31 H           5.3852   -1.8401    1.7040 H       1  LIG1        0.0278
     32 C           8.3832    0.1534   -0.8386 C.ar    1  LIG1        0.0330
     33 C           9.7799    0.1607   -0.7942 C.ar    1  LIG1       -0.0377
     34 C           7.6593    0.9984    0.0140 C.ar    1  LIG1       -0.0019
     35 C          10.4618    0.9950    0.0858 C.ar    1  LIG1       -0.0126
     36 H          10.3346   -0.4946   -1.4530 H       1  LIG1        0.0636
     37 C           8.3579    1.8414    0.8774 C.ar    1  LIG1       -0.0494
     38 C           9.7511    1.8592    0.9327 C.ar    1  LIG1       -0.0421
     39 H           7.7903    2.5007    1.5240 H       1  LIG1        0.0627
     40 C           7.7052   -0.7103   -1.7776 C.1     1  LIG1       -0.0690
     41 C           7.1525   -1.4322   -2.5642 C.1     1  LIG1       -0.1139
     42 H           6.6588   -2.0631   -3.2662 H       1  LIG1        0.1232
     43 C          10.4728    2.7972    1.8808 C.3     1  LIG1       -0.0391
     44 H           9.7832    3.5501    2.2609 H       1  LIG1        0.0278
     45 H          11.2978    3.2935    1.3678 H       1  LIG1        0.0278
     46 H          10.8821    2.2332    2.7209 H       1  LIG1        0.0278
     47 C          12.6856    0.4136    1.1382 C.ar    1  LIG1        0.0324
     48 C          14.0845    0.4089    1.0926 C.ar    1  LIG1       -0.0455
     49 C          11.9588    0.9760    0.0801 C.ar    1  LIG1       -0.0020
     50 C          14.7511    0.9531    0.0052 C.ar    1  LIG1       -0.0576
     51 H          14.6325   -0.0307    1.9151 H       1  LIG1        0.0630
     52 C          12.6502    1.5129   -1.0069 C.ar    1  LIG1       -0.0499
     53 C          14.0425    1.5120   -1.0621 C.ar    1  LIG1       -0.0498
     54 H          12.0776    1.9442   -1.8203 H       1  LIG1        0.0627
     55 H          15.8348    0.9431   -0.0200 H       1  LIG1        0.0621
     56 C          12.0058   -0.1758    2.2691 C.1     1  LIG1       -0.0691
     57 C          11.4519   -0.6651    3.2173 C.1     1  LIG1       -0.1139
     58 H          10.9564   -1.1039    4.0518 H       1  LIG1        0.1232
     59 C          14.7821    2.0920   -2.2533 C.3     1  LIG1       -0.0397
     60 H          14.0881    2.5746   -2.9402 H       1  LIG1        0.0278
     61 H          15.3093    1.3009   -2.7894 H       1  LIG1        0.0278
     62 H          15.5154    2.8286   -1.9219 H       1  LIG1        0.0278
@<TRIPOS>BOND
     1    42    41    1
     2    12    11    1
     3    60    59    1
     4    61    59    1
     5    11    10    3
     6    41    40    3
     7    59    62    1
     8    59    53    1
     9    27    26    1
    10    10     1    1
    11    54    52    1
    12    40    32    1
    13    26    25    3
    14     5     2    1
    15    36    33    1
    16    25    17    1
    17    53    52   ar
    18    53    50   ar
    19    52    49   ar
    20     1     2   ar
    21     1     3   ar
    22    21    18    1
    23     2     4   ar
    24    32    33   ar
    25    32    34   ar
    26    33    35   ar
    27    17    18   ar
    28    17    19   ar
    29    18    20   ar
    30     9     3    1
    31     3     6   ar
    32     4    19    1
    33     4     7   ar
    34    19    22   ar
    35    55    50    1
    36    20    34    1
    37    20    23   ar
    38    50    48   ar
    39    34    37   ar
    40    49    35    1
    41    49    47   ar
    42    35    38   ar
    43    30    28    1
    44    22    23   ar
    45    22    24    1
    46    23    28    1
    47     6     7   ar
    48     6     8    1
    49     7    13    1
    50    37    38   ar
    51    37    39    1
    52    38    43    1
    53    48    47   ar
    54    48    51    1
    55    28    31    1
    56    28    29    1
    57    47    56    1
    58    15    13    1
    59    45    43    1
    60    13    16    1
    61    13    14    1
    62    43    44    1
    63    43    46    1
    64    56    57    3
    65    57    58    1
