@<TRIPOS>MOLECULE
mol_data/opt/m06hf/geoms/mol2/4ei4ei4ei.out
 47 49 0 0 0
SMALL
GASTEIGER

@<TRIPOS>ATOM
      1 C          -0.1145    1.3214   -1.1693 C.ar    1  LIG1        0.0253
      2 C           1.2821    1.3616   -1.1420 C.ar    1  LIG1       -0.0383
      3 C          -0.8104    0.8988   -0.0351 C.ar    1  LIG1       -0.0461
      4 C           1.9776    0.9783    0.0013 C.ar    1  LIG1       -0.0126
      5 H           1.8258    1.6851   -2.0199 H       1  LIG1        0.0636
      6 C          -0.1095    0.5273    1.1056 C.ar    1  LIG1       -0.0571
      7 C           1.2850    0.5604    1.1486 C.ar    1  LIG1       -0.0426
      8 H          -0.6554    0.2117    1.9861 H       1  LIG1        0.0621
      9 H          -1.8917    0.8709   -0.0545 H       1  LIG1        0.0630
     10 C          -0.8290    1.7168   -2.3618 C.1     1  LIG1       -0.0696
     11 C          -1.4224    2.0481   -3.3534 C.1     1  LIG1       -0.1139
     12 H          -1.9449    2.3428   -4.2337 H       1  LIG1        0.1232
     13 C           2.0254    0.1594    2.4105 C.3     1  LIG1       -0.0391
     14 H           1.3425    0.1566    3.2597 H       1  LIG1        0.0278
     15 H           2.8430    0.8534    2.6108 H       1  LIG1        0.0278
     16 H           2.4482   -0.8399    2.2906 H       1  LIG1        0.0278
     17 C           4.2683   -0.0956   -0.0035 C.ar    1  LIG1        0.0330
     18 C           5.6606    0.0262    0.0108 C.ar    1  LIG1       -0.0377
     19 C           3.4723    1.0584   -0.0013 C.ar    1  LIG1       -0.0019
     20 C           6.2673    1.2780    0.0277 C.ar    1  LIG1       -0.0126
     21 H           6.2705   -0.8677    0.0146 H       1  LIG1        0.0636
     22 C           4.0965    2.3052   -0.0086 C.ar    1  LIG1       -0.0494
     23 C           5.4839    2.4423    0.0055 C.ar    1  LIG1       -0.0421
     24 H           3.4735    3.1922   -0.0204 H       1  LIG1        0.0627
     25 C           3.6691   -1.4099   -0.0369 C.1     1  LIG1       -0.0690
     26 C           3.1828   -2.5088   -0.0663 C.1     1  LIG1       -0.1139
     27 H           2.7468   -3.4799   -0.1013 H       1  LIG1        0.1232
     28 C           6.1196    3.8191   -0.0060 C.3     1  LIG1       -0.0391
     29 H           5.3815    4.5686   -0.2897 H       1  LIG1        0.0278
     30 H           6.9498    3.8489   -0.7130 H       1  LIG1        0.0278
     31 H           6.5060    4.0583    0.9866 H       1  LIG1        0.0278
     32 C           8.4589    1.7914    1.1752 C.ar    1  LIG1        0.0324
     33 C           9.8560    1.8615    1.1469 C.ar    1  LIG1       -0.0455
     34 C           7.7619    1.3574    0.0382 C.ar    1  LIG1       -0.0020
     35 C          10.5524    1.4985    0.0037 C.ar    1  LIG1       -0.0576
     36 H          10.3806    2.1990    2.0306 H       1  LIG1        0.0630
     37 C           8.4834    0.9882   -1.0978 C.ar    1  LIG1       -0.0499
     38 C           9.8754    1.0505   -1.1340 C.ar    1  LIG1       -0.0498
     39 H           7.9349    0.6532   -1.9707 H       1  LIG1        0.0627
     40 H          11.6345    1.5585   -0.0075 H       1  LIG1        0.0621
     41 C           7.7509    2.1514    2.3825 C.1     1  LIG1       -0.0691
     42 C           7.1739    2.4524    3.3935 C.1     1  LIG1       -0.1139
     43 H           6.6574    2.7088    4.2890 H       1  LIG1        0.1232
     44 C          10.6481    0.6283   -2.3697 C.3     1  LIG1       -0.0397
     45 H           9.9787    0.5045   -3.2199 H       1  LIG1        0.0278
     46 H          11.1565   -0.3199   -2.1860 H       1  LIG1        0.0278
     47 H          11.3999    1.3773   -2.6212 H       1  LIG1        0.0278
@<TRIPOS>BOND
     1    12    11    1
     2    11    10    3
     3    45    44    1
     4    47    44    1
     5    44    46    1
     6    44    38    1
     7    10     1    1
     8     5     2    1
     9    39    37    1
    10     1     2   ar
    11     1     3   ar
    12     2     4   ar
    13    38    37   ar
    14    38    35   ar
    15    37    34   ar
    16    30    28    1
    17    29    28    1
    18    27    26    1
    19    26    25    3
    20     9     3    1
    21    25    17    1
    22     3     6   ar
    23    24    22    1
    24    22    19   ar
    25    22    23   ar
    26    40    35    1
    27    28    23    1
    28    28    31    1
    29    17    19   ar
    30    17    18   ar
    31    19     4    1
    32     4     7   ar
    33    35    33   ar
    34    23    20   ar
    35    18    21    1
    36    18    20   ar
    37    20    34    1
    38    34    32   ar
    39     6     7   ar
    40     6     8    1
    41    33    32   ar
    42    33    36    1
    43     7    13    1
    44    32    41    1
    45    16    13    1
    46    41    42    3
    47    13    15    1
    48    13    14    1
    49    42    43    1
