@<TRIPOS>MOLECULE
mol_data/opt/m06hf/geoms/mol2/4ei4ei.out
 32 33 0 0 0
SMALL
GASTEIGER

@<TRIPOS>ATOM
      1 C           0.0370    0.3611   -0.9795 C.ar    1  LIG1        0.0253
      2 C           1.4320    0.4382   -0.9497 C.ar    1  LIG1       -0.0383
      3 C          -0.7057    1.0067    0.0108 C.ar    1  LIG1       -0.0461
      4 C           2.0795    1.1485    0.0570 C.ar    1  LIG1       -0.0126
      5 H           2.0128   -0.0650   -1.7118 H       1  LIG1        0.0636
      6 C          -0.0525    1.7228    1.0064 C.ar    1  LIG1       -0.0571
      7 C           1.3395    1.8092    1.0505 C.ar    1  LIG1       -0.0426
      8 H          -0.6356    2.2315    1.7644 H       1  LIG1        0.0621
      9 H          -1.7855    0.9487   -0.0107 H       1  LIG1        0.0630
     10 C          -0.6274   -0.3799   -2.0274 C.1     1  LIG1       -0.0696
     11 C          -1.1799   -0.9965   -2.8986 C.1     1  LIG1       -0.1139
     12 H          -1.6685   -1.5446   -3.6701 H       1  LIG1        0.1232
     13 C           2.0291    2.6053    2.1414 C.3     1  LIG1       -0.0391
     14 H           1.3104    3.2504    2.6458 H       1  LIG1        0.0278
     15 H           2.8253    3.2199    1.7191 H       1  LIG1        0.0278
     16 H           2.4722    1.9265    2.8727 H       1  LIG1        0.0278
     17 C           4.3526    0.5306    0.9798 C.ar    1  LIG1        0.0324
     18 C           5.7473    0.6156    0.9224 C.ar    1  LIG1       -0.0455
     19 C           3.5751    1.2181    0.0360 C.ar    1  LIG1       -0.0020
     20 C           6.3635    1.3728   -0.0642 C.ar    1  LIG1       -0.0576
     21 H           6.3348    0.0799    1.6558 H       1  LIG1        0.0630
     22 C           4.2155    1.9688   -0.9493 C.ar    1  LIG1       -0.0499
     23 C           5.6059    2.0581   -1.0163 C.ar    1  LIG1       -0.0498
     24 H           3.6051    2.4976   -1.6726 H       1  LIG1        0.0627
     25 H           7.4448    1.4314   -0.0976 H       1  LIG1        0.0621
     26 C           3.7298   -0.2778    2.0029 C.1     1  LIG1       -0.0691
     27 C           3.2249   -0.9507    2.8617 C.1     1  LIG1       -0.1139
     28 H           2.7713   -1.5513    3.6154 H       1  LIG1        0.1232
     29 C           6.2815    2.8590   -2.1139 C.3     1  LIG1       -0.0397
     30 H           5.6134    3.6313   -2.4933 H       1  LIG1        0.0278
     31 H           6.5549    2.2013   -2.9416 H       1  LIG1        0.0278
     32 H           7.1881    3.3330   -1.7378 H       1  LIG1        0.0278
@<TRIPOS>BOND
     1    12    11    1
     2    31    29    1
     3    11    10    3
     4    30    29    1
     5    29    32    1
     6    29    23    1
     7    10     1    1
     8     5     2    1
     9    24    22    1
    10    23    22   ar
    11    23    20   ar
    12     1     2   ar
    13     1     3   ar
    14     2     4   ar
    15    22    19   ar
    16    25    20    1
    17    20    18   ar
    18     9     3    1
    19     3     6   ar
    20    19     4    1
    21    19    17   ar
    22     4     7   ar
    23    18    17   ar
    24    18    21    1
    25    17    26    1
    26     6     7   ar
    27     6     8    1
    28     7    13    1
    29    15    13    1
    30    26    27    3
    31    13    14    1
    32    13    16    1
    33    27    28    1
