@<TRIPOS>MOLECULE
mol_data/opt/m06hf/geoms/mol2/4ei4ad-6af-6ff-.out
 49 52 0 0 0
SMALL
GASTEIGER

@<TRIPOS>ATOM
      1 C          -0.1654    0.0302   -0.2272 C.ar    1  LIG1        0.0253
      2 C           1.2296    0.0753   -0.2074 C.ar    1  LIG1       -0.0384
      3 C          -0.8914    1.2009    0.0046 C.ar    1  LIG1       -0.0461
      4 C           1.8982    1.2740    0.0364 C.ar    1  LIG1       -0.0138
      5 H           1.7938   -0.8282   -0.3993 H       1  LIG1        0.0636
      6 C          -0.2195    2.3892    0.2581 C.ar    1  LIG1       -0.0571
      7 C           1.1755    2.4526    0.2805 C.ar    1  LIG1       -0.0427
      8 H          -0.7882    3.2902    0.4527 H       1  LIG1        0.0621
      9 H          -1.9723    1.1680   -0.0097 H       1  LIG1        0.0630
     10 C          -0.8466   -1.2166   -0.4885 C.1     1  LIG1       -0.0696
     11 C          -1.4136   -2.2533   -0.7056 C.1     1  LIG1       -0.1139
     12 H          -1.9149   -3.1729   -0.9005 H       1  LIG1        0.1232
     13 C           1.8642    3.7718    0.5873 C.3     1  LIG1       -0.0391
     14 H           1.1940    4.4106    1.1615 H       1  LIG1        0.0278
     15 H           2.1276    4.2961   -0.3336 H       1  LIG1        0.0278
     16 H           2.7766    3.6091    1.1609 H       1  LIG1        0.0278
     17 C           4.0941    0.4574    0.9442 C.ar    1  LIG1       -0.0534
     18 C           5.4849    0.4350    0.9502 C.ar    1  LIG1       -0.0522
     19 C           3.3945    1.2634    0.0431 C.ar    1  LIG1       -0.0163
     20 C           6.2200    1.2115    0.0542 C.ar    1  LIG1        0.0011
     21 H           6.0125   -0.1718    1.6750 H       1  LIG1        0.0624
     22 C           4.1171    2.0376   -0.8632 C.ar    1  LIG1       -0.0360
     23 C           5.5112    2.0097   -0.8562 C.ar    1  LIG1        0.0601
     24 H           3.6013    2.6461   -1.5946 H       1  LIG1        0.0637
     25 H           3.5400   -0.1400    1.6573 H       1  LIG1        0.0624
     26 N           6.7444    3.4402   -2.6407 N.1     1  LIG1       -0.1908
     27 C           6.2135    2.8025   -1.8479 C.1     1  LIG1        0.0998
     28 C           8.4642    2.3503    0.1279 C.ar    1  LIG1        0.0362
     29 C           7.7087    1.1748    0.0774 C.ar    1  LIG1        0.0049
     30 C           8.3916   -0.0358    0.1154 C.ar    1  LIG1       -0.0088
     31 C           9.7806   -0.0425    0.1583 C.ar    1  LIG1        0.1435
     32 C          10.4666    1.1821    0.1202 C.ar    1  LIG1        0.1174
     33 N           9.7882    2.3345    0.1519 N.ar    1  LIG1       -0.2505
     34 H           7.8704   -0.9848    0.1105 H       1  LIG1        0.0661
     35 H           7.9877    3.3214    0.1620 H       1  LIG1        0.0836
     36 O          10.4009   -1.2450    0.2400 O.3     1  LIG1       -0.5046
     37 H          11.2969   -1.1384    0.5857 H       1  LIG1        0.2922
     38 C          12.6128    2.3750    0.6949 C.ar    1  LIG1        0.2220
     39 C          11.9517    1.2689    0.0970 C.ar    1  LIG1        0.0687
     40 C          12.7404    0.3024   -0.5239 C.ar    1  LIG1       -0.0043
     41 C          14.1258    0.4037   -0.4629 C.ar    1  LIG1        0.1357
     42 C          14.6682    1.4840    0.2224 C.ar    1  LIG1        0.0728
     43 N          13.9296    2.4450    0.7665 N.ar    1  LIG1       -0.2172
     44 H          12.3036   -0.5159   -1.0846 H       1  LIG1        0.0663
     45 H          15.7453    1.5892    0.3196 H       1  LIG1        0.0868
     46 O          11.9313    3.3984    1.2117 O.3     1  LIG1       -0.4919
     47 H          11.0075    3.3457    0.8705 H       1  LIG1        0.2937
     48 O          14.8748   -0.5620   -1.0670 O.3     1  LIG1       -0.5052
     49 H          15.8128   -0.3507   -1.0070 H       1  LIG1        0.2922
@<TRIPOS>BOND
     1    26    27    3
     2    27    23    1
     3    24    22    1
     4    44    40    1
     5    48    49    1
     6    48    41    1
     7    12    11    1
     8    22    23   ar
     9    22    19   ar
    10    23    20   ar
    11    11    10    3
    12    40    41   ar
    13    40    39   ar
    14    10     1    1
    15    41    42   ar
    16     5     2    1
    17    15    13    1
    18     1     2   ar
    19     1     3   ar
    20     2     4   ar
    21     9     3    1
    22     3     6   ar
    23     4    19    1
    24     4     7   ar
    25    19    17   ar
    26    20    29    1
    27    20    18   ar
    28    29    30   ar
    29    29    28   ar
    30    39    32    1
    31    39    38   ar
    32    34    30    1
    33    30    31   ar
    34    32    33   ar
    35    32    31   ar
    36    28    33   ar
    37    28    35    1
    38    31    36    1
    39    42    45    1
    40    42    43   ar
    41    36    37    1
    42     6     7   ar
    43     6     8    1
    44     7    13    1
    45    13    16    1
    46    13    14    1
    47    38    43   ar
    48    38    46    1
    49    47    46    1
    50    17    18   ar
    51    17    25    1
    52    18    21    1
