@<TRIPOS>MOLECULE
mol_data/opt/m06hf/geoms/mol2/4ei4ei-4ei.out
 47 49 0 0 0
SMALL
GASTEIGER

@<TRIPOS>ATOM
      1 C          -0.1352    0.1448   -0.4801 C.ar    1  LIG1        0.0253
      2 C           1.2622    0.1460   -0.4863 C.ar    1  LIG1       -0.0383
      3 C          -0.8190    1.2549    0.0187 C.ar    1  LIG1       -0.0461
      4 C           1.9709    1.2435   -0.0054 C.ar    1  LIG1       -0.0126
      5 H           1.7967   -0.7099   -0.8770 H       1  LIG1        0.0636
      6 C          -0.1047    2.3422    0.5071 C.ar    1  LIG1       -0.0571
      7 C           1.2907    2.3587    0.5081 C.ar    1  LIG1       -0.0426
      8 H          -0.6408    3.1953    0.9044 H       1  LIG1        0.0621
      9 H          -1.9008    1.2545    0.0264 H       1  LIG1        0.0630
     10 C          -0.8607   -0.9982   -0.9860 C.1     1  LIG1       -0.0696
     11 C          -1.4609   -1.9513   -1.4061 C.1     1  LIG1       -0.1139
     12 H          -1.9894   -2.7977   -1.7789 H       1  LIG1        0.1232
     13 C           2.0465    3.5508    1.0638 C.3     1  LIG1       -0.0391
     14 H           1.3751    4.1811    1.6461 H       1  LIG1        0.0278
     15 H           2.4671    4.1393    0.2464 H       1  LIG1        0.0278
     16 H           2.8655    3.2166    1.7021 H       1  LIG1        0.0278
     17 C           4.2227    1.9813   -0.8937 C.ar    1  LIG1        0.0330
     18 C           5.6172    1.8888   -0.8788 C.ar    1  LIG1       -0.0377
     19 C           3.4667    1.1888   -0.0186 C.ar    1  LIG1       -0.0019
     20 C           6.2665    1.0136   -0.0142 C.ar    1  LIG1       -0.0126
     21 H           6.1955    2.4956   -1.5638 H       1  LIG1        0.0636
     22 C           4.1332    0.3203    0.8455 C.ar    1  LIG1       -0.0494
     23 C           5.5232    0.2148    0.8693 C.ar    1  LIG1       -0.0421
     24 H           3.5416   -0.2814    1.5262 H       1  LIG1        0.0627
     25 C           3.5800    2.8770   -1.8278 C.1     1  LIG1       -0.0690
     26 C           3.0579    3.6280   -2.6081 C.1     1  LIG1       -0.1139
     27 H           2.5889    4.2836   -3.3048 H       1  LIG1        0.1232
     28 C           6.2067   -0.7350    1.8340 C.3     1  LIG1       -0.0391
     29 H           7.0476   -0.2412    2.3228 H       1  LIG1        0.0278
     30 H           6.5873   -1.6025    1.2916 H       1  LIG1        0.0278
     31 H           5.5004   -1.0720    2.5919 H       1  LIG1        0.0278
     32 C           8.4530   -0.1459   -0.5357 C.ar    1  LIG1        0.0324
     33 C           9.8515   -0.1531   -0.5315 C.ar    1  LIG1       -0.0455
     34 C           7.7625    0.9653   -0.0290 C.ar    1  LIG1       -0.0020
     35 C          10.5570    0.9350   -0.0365 C.ar    1  LIG1       -0.0576
     36 H          10.3710   -1.0164   -0.9244 H       1  LIG1        0.0630
     37 C           8.4919    2.0503    0.4567 C.ar    1  LIG1       -0.0499
     38 C           9.8867    2.0547    0.4601 C.ar    1  LIG1       -0.0498
     39 H           7.9494    2.9044    0.8458 H       1  LIG1        0.0627
     40 H          11.6405    0.9166   -0.0389 H       1  LIG1        0.0621
     41 C           7.7380   -1.2770   -1.0812 C.1     1  LIG1       -0.0691
     42 C           7.1609   -2.2272   -1.5395 C.1     1  LIG1       -0.1139
     43 H           6.6460   -3.0634   -1.9535 H       1  LIG1        0.1232
     44 C          10.6584    3.2596    0.9657 C.3     1  LIG1       -0.0397
     45 H          10.0606    3.8282    1.6773 H       1  LIG1        0.0278
     46 H          10.9164    3.9138    0.1306 H       1  LIG1        0.0278
     47 H          11.5809    2.9452    1.4535 H       1  LIG1        0.0278
@<TRIPOS>BOND
     1    27    26    1
     2    26    25    3
     3    43    42    1
     4    25    17    1
     5    12    11    1
     6    21    18    1
     7    42    41    3
     8    11    10    3
     9    41    32    1
    10    10     1    1
    11    36    33    1
    12    17    18   ar
    13    17    19   ar
    14    18    20   ar
    15     5     2    1
    16    32    33   ar
    17    32    34   ar
    18    33    35   ar
    19     2     1   ar
    20     2     4   ar
    21     1     3   ar
    22    40    35    1
    23    35    38   ar
    24    34    20    1
    25    34    37   ar
    26    19     4    1
    27    19    22   ar
    28    20    23   ar
    29     4     7   ar
    30     3     9    1
    31     3     6   ar
    32    46    44    1
    33    15    13    1
    34    37    38   ar
    35    37    39    1
    36    38    44    1
    37     6     7   ar
    38     6     8    1
    39     7    13    1
    40    22    23   ar
    41    22    24    1
    42    23    28    1
    43    44    47    1
    44    44    45    1
    45    13    14    1
    46    13    16    1
    47    30    28    1
    48    28    29    1
    49    28    31    1
