@<TRIPOS>MOLECULE
mol_data/opt/m06hf/geoms/mol2/4ei4ei4ei4ei-.out
 62 65 0 0 0
SMALL
GASTEIGER

@<TRIPOS>ATOM
      1 C          -0.2132    1.5241   -1.0782 C.ar    1  LIG1        0.0253
      2 C           1.1844    1.5192   -1.0545 C.ar    1  LIG1       -0.0383
      3 C          -0.9188    1.0404    0.0247 C.ar    1  LIG1       -0.0461
      4 C           1.8693    1.0318    0.0541 C.ar    1  LIG1       -0.0126
      5 H           1.7358    1.8901   -1.9088 H       1  LIG1        0.0636
      6 C          -0.2273    0.5634    1.1318 C.ar    1  LIG1       -0.0571
      7 C           1.1672    0.5484    1.1692 C.ar    1  LIG1       -0.0426
      8 H          -0.7808    0.1974    1.9880 H       1  LIG1        0.0621
      9 H          -2.0004    1.0466    0.0081 H       1  LIG1        0.0630
     10 C          -0.9166    2.0278   -2.2359 C.1     1  LIG1       -0.0696
     11 C          -1.4970    2.4458   -3.2017 C.1     1  LIG1       -0.1139
     12 H          -2.0082    2.8157   -4.0597 H       1  LIG1        0.1232
     13 C           1.9052    0.0239    2.3859 C.3     1  LIG1       -0.0391
     14 H           1.2151   -0.0958    3.2206 H       1  LIG1        0.0278
     15 H           2.7012    0.7118    2.6744 H       1  LIG1        0.0278
     16 H           2.3566   -0.9433    2.1559 H       1  LIG1        0.0278
     17 C           4.1112   -0.1216   -0.1104 C.ar    1  LIG1        0.0330
     18 C           5.5074   -0.0604   -0.1156 C.ar    1  LIG1       -0.0377
     19 C           3.3666    1.0553    0.0468 C.ar    1  LIG1       -0.0019
     20 C           6.1661    1.1542    0.0411 C.ar    1  LIG1       -0.0126
     21 H           6.0793   -0.9710   -0.2386 H       1  LIG1        0.0636
     22 C           4.0425    2.2666    0.1883 C.ar    1  LIG1       -0.0494
     23 C           5.4346    2.3414    0.1938 C.ar    1  LIG1       -0.0421
     24 H           3.4574    3.1719    0.3024 H       1  LIG1        0.0627
     25 C           3.4505   -1.3955   -0.2789 C.1     1  LIG1       -0.0690
     26 C           2.9098   -2.4607   -0.4126 C.1     1  LIG1       -0.1139
     27 H           2.4242   -3.4002   -0.5393 H       1  LIG1        0.1232
     28 C           6.1395    3.6722    0.3709 C.3     1  LIG1       -0.0391
     29 H           5.4366    4.4927    0.2299 H       1  LIG1        0.0278
     30 H           6.9560    3.7697   -0.3460 H       1  LIG1        0.0278
     31 H           6.5610    3.7336    1.3767 H       1  LIG1        0.0278
     32 C           8.3976    1.3346    1.2054 C.ar    1  LIG1        0.0330
     33 C           9.7940    1.3567    1.1529 C.ar    1  LIG1       -0.0377
     34 C           7.6628    1.1797    0.0228 C.ar    1  LIG1       -0.0019
     35 C          10.4616    1.2389   -0.0615 C.ar    1  LIG1       -0.0126
     36 H          10.3590    1.4767    2.0682 H       1  LIG1        0.0636
     37 C           8.3470    1.0472   -1.1848 C.ar    1  LIG1       -0.0494
     38 C           9.7391    1.0786   -1.2535 C.ar    1  LIG1       -0.0421
     39 H           7.7691    0.9212   -2.0932 H       1  LIG1        0.0627
     40 C           7.7245    1.4683    2.4771 C.1     1  LIG1       -0.0690
     41 C           7.1720    1.5856    3.5384 C.1     1  LIG1       -0.1139
     42 H           6.6797    1.6822    4.4781 H       1  LIG1        0.1232
     43 C          10.4517    0.9459   -2.5854 C.3     1  LIG1       -0.0391
     44 H           9.7514    0.6273   -3.3566 H       1  LIG1        0.0278
     45 H          11.2606    0.2177   -2.5126 H       1  LIG1        0.0278
     46 H          10.8820    1.9079   -2.8709 H       1  LIG1        0.0278
     47 C          12.6575    2.3959   -0.5238 C.ar    1  LIG1        0.0324
     48 C          14.0556    2.3984   -0.5053 C.ar    1  LIG1       -0.0455
     49 C          11.9588    1.2677   -0.0692 C.ar    1  LIG1       -0.0020
     50 C          14.7512    1.2904   -0.0415 C.ar    1  LIG1       -0.0576
     51 H          14.5822    3.2777   -0.8510 H       1  LIG1        0.0630
     52 C          12.6771    0.1674    0.3965 C.ar    1  LIG1       -0.0499
     53 C          14.0720    0.1585    0.4144 C.ar    1  LIG1       -0.0498
     54 H          12.1272   -0.6983    0.7482 H       1  LIG1        0.0627
     55 H          15.8346    1.3046   -0.0302 H       1  LIG1        0.0621
     56 C          11.9449    3.5606   -0.9969 C.1     1  LIG1       -0.0691
     57 C          11.3644    4.5344   -1.3966 C.1     1  LIG1       -0.1139
     58 H          10.8476    5.3991   -1.7427 H       1  LIG1        0.1232
     59 C          14.8348   -1.0634    0.8915 C.3     1  LIG1       -0.0397
     60 H          15.7455   -0.7663    1.4115 H       1  LIG1        0.0278
     61 H          15.1133   -1.6860    0.0389 H       1  LIG1        0.0278
     62 H          14.2225   -1.6584    1.5683 H       1  LIG1        0.0278
@<TRIPOS>BOND
     1    12    11    1
     2    44    43    1
     3    11    10    3
     4    46    43    1
     5    43    45    1
     6    43    38    1
     7    10     1    1
     8    39    37    1
     9     5     2    1
    10    58    57    1
    11    57    56    3
    12    38    37   ar
    13    38    35   ar
    14    37    34   ar
    15     1     2   ar
    16     1     3   ar
    17     2     4   ar
    18    56    47    1
    19    51    48    1
    20    27    26    1
    21    47    48   ar
    22    47    49   ar
    23    48    50   ar
    24    26    25    3
    25    30    28    1
    26    25    17    1
    27    21    18    1
    28    18    17   ar
    29    18    20   ar
    30    17    19   ar
    31    49    35    1
    32    49    52   ar
    33    35    33   ar
    34    50    55    1
    35    50    53   ar
    36     9     3    1
    37    34    20    1
    38    34    32   ar
    39     3     6   ar
    40    61    59    1
    41    20    23   ar
    42    19     4    1
    43    19    22   ar
    44     4     7   ar
    45    22    23   ar
    46    22    24    1
    47    23    28    1
    48    29    28    1
    49    28    31    1
    50    52    53   ar
    51    52    54    1
    52    53    59    1
    53    59    60    1
    54    59    62    1
    55     6     7   ar
    56     6     8    1
    57    33    32   ar
    58    33    36    1
    59     7    13    1
    60    32    40    1
    61    16    13    1
    62    13    15    1
    63    13    14    1
    64    40    41    3
    65    41    42    1
