@<TRIPOS>MOLECULE
mol_data/opt/m06hf/geoms/mol2/4ei4ei-4ei-4ei.out
 62 65 0 0 0
SMALL
GASTEIGER

@<TRIPOS>ATOM
      1 C          -0.2315    0.0909    0.3737 C.ar    1  LIG1        0.0253
      2 C           1.1657    0.0911    0.3530 C.ar    1  LIG1       -0.0383
      3 C          -0.9227    1.2372   -0.0223 C.ar    1  LIG1       -0.0461
      4 C           1.8665    1.2198   -0.0617 C.ar    1  LIG1       -0.0126
      5 H           1.7055   -0.7978    0.6534 H       1  LIG1        0.0636
      6 C          -0.2161    2.3639   -0.4245 C.ar    1  LIG1       -0.0571
      7 C           1.1791    2.3800   -0.4512 C.ar    1  LIG1       -0.0426
      8 H          -0.7578    3.2547   -0.7187 H       1  LIG1        0.0621
      9 H          -2.0042    1.2384   -0.0053 H       1  LIG1        0.0630
     10 C          -0.9495   -1.0879    0.8021 C.1     1  LIG1       -0.0696
     11 C          -1.5431   -2.0705    1.1574 C.1     1  LIG1       -0.1139
     12 H          -2.0665   -2.9434    1.4708 H       1  LIG1        0.1232
     13 C           1.9261    3.6272   -0.8837 C.3     1  LIG1       -0.0391
     14 H           1.2548    4.4856   -0.8780 H       1  LIG1        0.0278
     15 H           2.3220    3.4934   -1.8922 H       1  LIG1        0.0278
     16 H           2.7628    3.8226   -0.2117 H       1  LIG1        0.0278
     17 C           4.0986    1.1466   -1.2483 C.ar    1  LIG1        0.0330
     18 C           5.4945    1.1066   -1.1980 C.ar    1  LIG1       -0.0377
     19 C           3.3631    1.1790   -0.0554 C.ar    1  LIG1       -0.0019
     20 C           6.1655    1.0963    0.0207 C.ar    1  LIG1       -0.0126
     21 H           6.0577    1.0847   -2.1220 H       1  LIG1        0.0636
     22 C           4.0499    1.1488    1.1578 C.ar    1  LIG1       -0.0494
     23 C           5.4422    1.1061    1.2234 C.ar    1  LIG1       -0.0421
     24 H           3.4734    1.1589    2.0757 H       1  LIG1        0.0627
     25 C           3.4323    1.1305   -2.5304 C.1     1  LIG1       -0.0690
     26 C           2.8875    1.1141   -3.6021 C.1     1  LIG1       -0.1139
     27 H           2.3978    1.0899   -4.5478 H       1  LIG1        0.1232
     28 C           6.1470    1.0588    2.5653 C.3     1  LIG1       -0.0391
     29 H           6.5879    2.0317    2.7892 H       1  LIG1        0.0278
     30 H           6.9461    0.3165    2.5467 H       1  LIG1        0.0278
     31 H           5.4380    0.8009    3.3514 H       1  LIG1        0.0278
     32 C           8.4392    2.1322    0.4141 C.ar    1  LIG1        0.0330
     33 C           9.8332    2.0321    0.3945 C.ar    1  LIG1       -0.0377
     34 C           7.6611    1.0354    0.0182 C.ar    1  LIG1       -0.0019
     35 C          10.4587    0.8618   -0.0221 C.ar    1  LIG1       -0.0126
     36 H          10.4299    2.8843    0.6933 H       1  LIG1        0.0636
     37 C           8.3038   -0.1314   -0.3950 C.ar    1  LIG1       -0.0494
     38 C           9.6930   -0.2442   -0.4231 C.ar    1  LIG1       -0.0421
     39 H           7.6939   -0.9771   -0.6915 H       1  LIG1        0.0627
     40 C           7.8196    3.3716    0.8242 C.1     1  LIG1       -0.0690
     41 C           7.3162    4.4068    1.1706 C.1     1  LIG1       -0.1139
     42 H           6.8665    5.3251    1.4688 H       1  LIG1        0.1232
     43 C          10.3551   -1.5336   -0.8682 C.3     1  LIG1       -0.0391
     44 H          11.1242   -1.8315   -0.1540 H       1  LIG1        0.0278
     45 H          10.8286   -1.3907   -1.8414 H       1  LIG1        0.0278
     46 H           9.6139   -2.3281   -0.9472 H       1  LIG1        0.0278
     47 C          12.6880    0.8246   -1.2112 C.ar    1  LIG1        0.0324
     48 C          14.0841    0.7676   -1.1688 C.ar    1  LIG1       -0.0455
     49 C          11.9549    0.8000   -0.0147 C.ar    1  LIG1       -0.0020
     50 C          14.7452    0.6889    0.0496 C.ar    1  LIG1       -0.0576
     51 H          14.6370    0.7869   -2.0981 H       1  LIG1        0.0630
     52 C          12.6392    0.7269    1.1974 C.ar    1  LIG1       -0.0499
     53 C          14.0327    0.6717    1.2500 C.ar    1  LIG1       -0.0498
     54 H          12.0639    0.7076    2.1162 H       1  LIG1        0.0627
     55 H          15.8275    0.6415    0.0691 H       1  LIG1        0.0621
     56 C          12.0144    0.9209   -2.4858 C.1     1  LIG1       -0.0691
     57 C          11.4652    0.9985   -3.5523 C.1     1  LIG1       -0.1139
     58 H          10.9741    1.0769   -4.4942 H       1  LIG1        0.1232
     59 C          14.7559    0.6218    2.5830 C.3     1  LIG1       -0.0397
     60 H          14.1417    0.1272    3.3350 H       1  LIG1        0.0278
     61 H          14.9737    1.6347    2.9276 H       1  LIG1        0.0278
     62 H          15.6974    0.0814    2.4872 H       1  LIG1        0.0278
@<TRIPOS>BOND
     1    27    26    1
     2    58    57    1
     3    26    25    3
     4    57    56    3
     5    25    17    1
     6    56    47    1
     7    21    18    1
     8    51    48    1
     9    15    13    1
    10    45    43    1
    11    17    18   ar
    12    17    19   ar
    13    47    48   ar
    14    47    49   ar
    15    18    20   ar
    16    48    50   ar
    17    46    43    1
    18    13    14    1
    19    13     7    1
    20    13    16    1
    21    43    38    1
    22    43    44    1
    23     8     6    1
    24    39    37    1
    25     7     6   ar
    26     7     4   ar
    27     6     3   ar
    28    38    37   ar
    29    38    35   ar
    30    37    34   ar
    31     4    19    1
    32     4     2   ar
    33    19    22   ar
    34     3     9    1
    35     3     1   ar
    36    35    49    1
    37    35    33   ar
    38    49    52   ar
    39    34    20    1
    40    34    32   ar
    41    20    23   ar
    42    50    55    1
    43    50    53   ar
    44     2     1   ar
    45     2     5    1
    46     1    10    1
    47    33    32   ar
    48    33    36    1
    49    32    40    1
    50    10    11    3
    51    40    41    3
    52    11    12    1
    53    22    23   ar
    54    22    24    1
    55    41    42    1
    56    52    53   ar
    57    52    54    1
    58    23    28    1
    59    53    59    1
    60    62    59    1
    61    30    28    1
    62    28    29    1
    63    28    31    1
    64    59    61    1
    65    59    60    1
