@<TRIPOS>MOLECULE
mol_data/opt/m06hf/geoms/mol2/4ei4ei-4ei4ei-.out
 62 65 0 0 0
SMALL
GASTEIGER

@<TRIPOS>ATOM
      1 C          -0.2452    0.2942   -0.7040 C.ar    1  LIG1        0.0253
      2 C           1.1522    0.2879   -0.7103 C.ar    1  LIG1       -0.0383
      3 C          -0.9226    1.2620    0.0399 C.ar    1  LIG1       -0.0461
      4 C           1.8664    1.2390    0.0126 C.ar    1  LIG1       -0.0126
      5 H           1.6828   -0.4577   -1.2880 H       1  LIG1        0.0636
      6 C          -0.2025    2.2028    0.7660 C.ar    1  LIG1       -0.0571
      7 C           1.1927    2.2110    0.7683 C.ar    1  LIG1       -0.0426
      8 H          -0.7344    2.9449    1.3488 H       1  LIG1        0.0621
      9 H          -2.0043    1.2660    0.0479 H       1  LIG1        0.0630
     10 C          -0.9801   -0.6951   -1.4588 C.1     1  LIG1       -0.0696
     11 C          -1.5936   -1.5170   -2.0854 C.1     1  LIG1       -0.1139
     12 H          -2.1366   -2.2448   -2.6421 H       1  LIG1        0.1232
     13 C           1.9583    3.2441    1.5725 C.3     1  LIG1       -0.0391
     14 H           1.2923    3.7396    2.2782 H       1  LIG1        0.0278
     15 H           2.3863    3.9923    0.9022 H       1  LIG1        0.0278
     16 H           2.7736    2.7713    2.1218 H       1  LIG1        0.0278
     17 C           4.1196    2.1370   -0.7034 C.ar    1  LIG1        0.0330
     18 C           5.5140    2.0464   -0.7010 C.ar    1  LIG1       -0.0377
     19 C           3.3624    1.1838   -0.0085 C.ar    1  LIG1       -0.0019
     20 C           6.1621    1.0185   -0.0229 C.ar    1  LIG1       -0.0126
     21 H           6.0945    2.7794   -1.2461 H       1  LIG1        0.0636
     22 C           4.0271    0.1629    0.6702 C.ar    1  LIG1       -0.0494
     23 C           5.4176    0.0602    0.6821 C.ar    1  LIG1       -0.0421
     24 H           3.4337   -0.5628    1.2145 H       1  LIG1        0.0627
     25 C           3.4761    3.2058   -1.4325 C.1     1  LIG1       -0.0690
     26 C           2.9523    4.1025   -2.0392 C.1     1  LIG1       -0.1139
     27 H           2.4823    4.8891   -2.5834 H       1  LIG1        0.1232
     28 C           6.0999   -1.0562    1.4496 C.3     1  LIG1       -0.0391
     29 H           6.9543   -0.6669    2.0047 H       1  LIG1        0.0278
     30 H           6.4604   -1.8172    0.7551 H       1  LIG1        0.0278
     31 H           5.3989   -1.5148    2.1462 H       1  LIG1        0.0278
     32 C           8.3570   -0.0032   -0.7537 C.ar    1  LIG1        0.0330
     33 C           9.7546   -0.0003   -0.7449 C.ar    1  LIG1       -0.0377
     34 C           7.6583    0.9792   -0.0385 C.ar    1  LIG1       -0.0019
     35 C          10.4617    0.9710   -0.0439 C.ar    1  LIG1       -0.0126
     36 H          10.2903   -0.7565   -1.3040 H       1  LIG1        0.0636
     37 C           8.3823    1.9445    0.6606 C.ar    1  LIG1       -0.0494
     38 C           9.7762    1.9626    0.6739 C.ar    1  LIG1       -0.0421
     39 H           7.8336    2.6962    1.2163 H       1  LIG1        0.0627
     40 C           7.6527   -1.0082   -1.5165 C.1     1  LIG1       -0.0690
     41 C           7.0805   -1.8494   -2.1570 C.1     1  LIG1       -0.1139
     42 H           6.5680   -2.5852   -2.7323 H       1  LIG1        0.1232
     43 C          10.5280    3.0295    1.4460 C.3     1  LIG1       -0.0391
     44 H           9.8527    3.5486    2.1253 H       1  LIG1        0.0278
     45 H          10.9582    3.7529    0.7503 H       1  LIG1        0.0278
     46 H          11.3409    2.5826    2.0198 H       1  LIG1        0.0278
     47 C          12.7055    1.8511   -0.7973 C.ar    1  LIG1        0.0324
     48 C          14.1027    1.7845   -0.7818 C.ar    1  LIG1       -0.0455
     49 C          11.9583    0.9278   -0.0524 C.ar    1  LIG1       -0.0020
     50 C          14.7485    0.8116   -0.0327 C.ar    1  LIG1       -0.0576
     51 H          14.6677    2.5015   -1.3618 H       1  LIG1        0.0630
     52 C          12.6279   -0.0463    0.6884 C.ar    1  LIG1       -0.0499
     53 C          14.0199   -0.1196    0.7117 C.ar    1  LIG1       -0.0498
     54 H          12.0395   -0.7536    1.2617 H       1  LIG1        0.0627
     55 H          15.8315    0.7718   -0.0257 H       1  LIG1        0.0621
     56 C          12.0451    2.8660   -1.5859 C.1     1  LIG1       -0.0691
     57 C          11.5062    3.7158   -2.2440 C.1     1  LIG1       -0.1139
     58 H          11.0225    4.4597   -2.8339 H       1  LIG1        0.1232
     59 C          14.7342   -1.1964    1.5078 C.3     1  LIG1       -0.0397
     60 H          15.5893   -0.7740    2.0360 H       1  LIG1        0.0278
     61 H          15.0966   -1.9781    0.8373 H       1  LIG1        0.0278
     62 H          14.0610   -1.6489    2.2348 H       1  LIG1        0.0278
@<TRIPOS>BOND
     1    58    57    1
     2    42    41    1
     3    12    11    1
     4    27    26    1
     5    57    56    3
     6    41    40    3
     7    11    10    3
     8    26    25    3
     9    56    47    1
    10    40    32    1
    11    10     1    1
    12    25    17    1
    13    51    48    1
    14    36    33    1
    15     5     2    1
    16    21    18    1
    17    47    48   ar
    18    47    49   ar
    19    48    50   ar
    20    32    33   ar
    21    32    34   ar
    22    33    35   ar
    23     2     1   ar
    24     2     4   ar
    25     1     3   ar
    26    17    18   ar
    27    17    19   ar
    28    18    20   ar
    29    49    35    1
    30    49    52   ar
    31    35    38   ar
    32    34    20    1
    33    34    37   ar
    34    50    55    1
    35    50    53   ar
    36    20    23   ar
    37    19     4    1
    38    19    22   ar
    39     4     7   ar
    40     3     9    1
    41     3     6   ar
    42    37    38   ar
    43    37    39    1
    44    22    23   ar
    45    22    24    1
    46    38    43    1
    47    23    28    1
    48    52    53   ar
    49    52    54    1
    50    53    59    1
    51    45    43    1
    52    30    28    1
    53     6     7   ar
    54     6     8    1
    55     7    13    1
    56    61    59    1
    57    15    13    1
    58    43    46    1
    59    43    44    1
    60    28    29    1
    61    28    31    1
    62    59    60    1
    63    59    62    1
    64    13    16    1
    65    13    14    1
