@<TRIPOS>MOLECULE
mol_data/opt/m06hf/geoms/mol2/4ei4ei4ei-4ei.out
 62 65 0 0 0
SMALL
GASTEIGER

@<TRIPOS>ATOM
      1 C          -0.2057    1.3833   -1.2308 C.ar    1  LIG1        0.0253
      2 C           1.1908    1.3414   -1.1998 C.ar    1  LIG1       -0.0383
      3 C          -0.9223    1.2278   -0.0429 C.ar    1  LIG1       -0.0461
      4 C           1.8653    1.1413    0.0011 C.ar    1  LIG1       -0.0126
      5 H           1.7515    1.4577   -2.1182 H       1  LIG1        0.0636
      6 C          -0.2414    1.0371    1.1534 C.ar    1  LIG1       -0.0571
      7 C           1.1522    0.9908    1.2005 C.ar    1  LIG1       -0.0426
      8 H          -0.8034    0.9268    2.0728 H       1  LIG1        0.0621
      9 H          -2.0032    1.2630   -0.0652 H       1  LIG1        0.0630
     10 C          -0.8993    1.5889   -2.4819 C.1     1  LIG1       -0.0696
     11 C          -1.4783    1.7601   -3.5211 C.1     1  LIG1       -0.1139
     12 H          -1.9906    1.9104   -4.4427 H       1  LIG1        0.1232
     13 C           1.8748    0.7868    2.5183 C.3     1  LIG1       -0.0391
     14 H           1.1891    0.9425    3.3506 H       1  LIG1        0.0278
     15 H           2.7090    1.4841    2.6070 H       1  LIG1        0.0278
     16 H           2.2715   -0.2292    2.5697 H       1  LIG1        0.0278
     17 C           4.0787   -0.0694    0.1758 C.ar    1  LIG1        0.0330
     18 C           5.4756   -0.0451    0.1534 C.ar    1  LIG1       -0.0377
     19 C           3.3622    1.1209   -0.0100 C.ar    1  LIG1       -0.0019
     20 C           6.1664    1.1445   -0.0572 C.ar    1  LIG1       -0.0126
     21 H           6.0249   -0.9679    0.2883 H       1  LIG1        0.0636
     22 C           4.0692    2.3054   -0.2145 C.ar    1  LIG1       -0.0494
     23 C           5.4629    2.3452   -0.2384 C.ar    1  LIG1       -0.0421
     24 H           3.5069    3.2228   -0.3454 H       1  LIG1        0.0627
     25 C           3.3909   -1.3240    0.3781 C.1     1  LIG1       -0.0690
     26 C           2.8302   -2.3737    0.5523 C.1     1  LIG1       -0.1139
     27 H           2.3278   -3.3024    0.6964 H       1  LIG1        0.1232
     28 C           6.1911    3.6597   -0.4445 C.3     1  LIG1       -0.0391
     29 H           5.5106    4.4947   -0.2810 H       1  LIG1        0.0278
     30 H           6.5803    3.7124   -1.4630 H       1  LIG1        0.0278
     31 H           7.0304    3.7402    0.2474 H       1  LIG1        0.0278
     32 C           8.4009    1.3038   -1.2307 C.ar    1  LIG1        0.0330
     33 C           9.7973    1.2647   -1.1833 C.ar    1  LIG1       -0.0377
     34 C           7.6629    1.1159   -0.0540 C.ar    1  LIG1       -0.0019
     35 C          10.4642    1.0312    0.0147 C.ar    1  LIG1       -0.0126
     36 H          10.3632    1.4036   -2.0953 H       1  LIG1        0.0636
     37 C           8.3471    0.8846    1.1391 C.ar    1  LIG1       -0.0494
     38 C           9.7389    0.8374    1.2000 C.ar    1  LIG1       -0.0421
     39 H           7.7683    0.7468    2.0452 H       1  LIG1        0.0627
     40 C           7.7382    1.5175   -2.4968 C.1     1  LIG1       -0.0690
     41 C           7.2011    1.6942   -3.5578 C.1     1  LIG1       -0.1139
     42 H           6.7192    1.8385   -4.4969 H       1  LIG1        0.1232
     43 C          10.4470    0.5815    2.5164 C.3     1  LIG1       -0.0391
     44 H          11.2779    1.2769    2.6433 H       1  LIG1        0.0278
     45 H          10.8470   -0.4345    2.5275 H       1  LIG1        0.0278
     46 H           9.7516    0.6984    3.3467 H       1  LIG1        0.0278
     47 C          12.6672   -0.1968    0.1417 C.ar    1  LIG1        0.0324
     48 C          14.0653   -0.1828    0.1473 C.ar    1  LIG1       -0.0455
     49 C          11.9613    1.0092    0.0208 C.ar    1  LIG1       -0.0020
     50 C          14.7540    1.0173    0.0357 C.ar    1  LIG1       -0.0576
     51 H          14.5984   -1.1193    0.2402 H       1  LIG1        0.0630
     52 C          12.6729    2.2024   -0.0964 C.ar    1  LIG1       -0.0499
     53 C          14.0677    2.2268   -0.0901 C.ar    1  LIG1       -0.0498
     54 H          12.1167    3.1286   -0.1867 H       1  LIG1        0.0627
     55 H          15.8375    1.0155    0.0453 H       1  LIG1        0.0621
     56 C          11.9620   -1.4530    0.2549 C.1     1  LIG1       -0.0691
     57 C          11.3853   -2.5035    0.3518 C.1     1  LIG1       -0.1139
     58 H          10.8685   -3.4322    0.4263 H       1  LIG1        0.1232
     59 C          14.8233    3.5342   -0.2426 C.3     1  LIG1       -0.0397
     60 H          14.2144    4.3717    0.0963 H       1  LIG1        0.0278
     61 H          15.0813    3.6965   -1.2911 H       1  LIG1        0.0278
     62 H          15.7448    3.5120    0.3389 H       1  LIG1        0.0278
@<TRIPOS>BOND
     1    42    41    1
     2    12    11    1
     3    41    40    3
     4    11    10    3
     5    40    32    1
     6    10     1    1
     7     5     2    1
     8    36    33    1
     9    30    28    1
    10    61    59    1
    11     1     2   ar
    12     1     3   ar
    13    32    33   ar
    14    32    34   ar
    15     2     4   ar
    16    33    35   ar
    17    28    29    1
    18    28    23    1
    19    28    31    1
    20    24    22    1
    21    59    53    1
    22    59    60    1
    23    59    62    1
    24    23    22   ar
    25    23    20   ar
    26    22    19   ar
    27    54    52    1
    28    52    53   ar
    29    52    49   ar
    30    53    50   ar
    31     9     3    1
    32    20    34    1
    33    20    18   ar
    34    34    37   ar
    35     3     6   ar
    36    19     4    1
    37    19    17   ar
    38     4     7   ar
    39    35    49    1
    40    35    38   ar
    41    49    47   ar
    42    50    55    1
    43    50    48   ar
    44    47    48   ar
    45    47    56    1
    46    48    51    1
    47    18    17   ar
    48    18    21    1
    49    17    25    1
    50    56    57    3
    51    57    58    1
    52    25    26    3
    53    26    27    1
    54    37    38   ar
    55    37    39    1
    56     6     7   ar
    57     6     8    1
    58    38    43    1
    59     7    13    1
    60    43    45    1
    61    43    44    1
    62    43    46    1
    63    13    16    1
    64    13    15    1
    65    13    14    1
