@<TRIPOS>MOLECULE
mol_data/opt/m06hf/geoms/mol2/4ei4ih12hh-12ie-.out
 55 58 0 0 0
SMALL
GASTEIGER

@<TRIPOS>ATOM
      1 C          -0.1860    0.3011   -0.8874 C.ar    1  LIG1        0.0253
      2 C           1.2099    0.3672   -0.9303 C.ar    1  LIG1       -0.0384
      3 C          -0.8774    1.0078    0.0987 C.ar    1  LIG1       -0.0461
      4 C           1.9102    1.1285    0.0007 C.ar    1  LIG1       -0.0135
      5 H           1.7504   -0.1789   -1.6927 H       1  LIG1        0.0636
      6 C          -0.1724    1.7666    1.0256 C.ar    1  LIG1       -0.0571
      7 C           1.2207    1.8400    0.9950 C.ar    1  LIG1       -0.0427
      8 H          -0.7139    2.3111    1.7894 H       1  LIG1        0.0621
      9 H          -1.9572    0.9560    0.1324 H       1  LIG1        0.0630
     10 C          -0.9053   -0.4960   -1.8550 C.1     1  LIG1       -0.0696
     11 C          -1.5052   -1.1611   -2.6563 C.1     1  LIG1       -0.1139
     12 H          -2.0362   -1.7518   -3.3659 H       1  LIG1        0.1232
     13 C           1.9821    2.6697    2.0120 C.3     1  LIG1       -0.0391
     14 H           1.3017    3.0613    2.7674 H       1  LIG1        0.0278
     15 H           2.4864    3.5033    1.5203 H       1  LIG1        0.0278
     16 H           2.7489    2.0638    2.4982 H       1  LIG1        0.0278
     17 C           4.1660    0.1901    0.6074 C.ar    1  LIG1       -0.0420
     18 C           5.5465    0.2941    0.5419 C.ar    1  LIG1       -0.0458
     19 C           3.4085    1.1734   -0.0524 C.ar    1  LIG1       -0.0129
     20 C           6.1962    1.3274   -0.1500 C.ar    1  LIG1        0.0401
     21 H           6.1693   -0.4468    1.0296 H       1  LIG1        0.0628
     22 C           4.0312    2.2052   -0.7348 C.ar    1  LIG1       -0.0324
     23 C           5.4317    2.3162   -0.8039 C.ar    1  LIG1        0.0360
     24 H           3.4220    2.9575   -1.2234 H       1  LIG1        0.0642
     25 C           3.4939   -0.9417    1.3633 C.3     1  LIG1       -0.0391
     26 H           4.2431   -1.5420    1.8788 H       1  LIG1        0.0278
     27 H           2.9352   -1.5859    0.6817 H       1  LIG1        0.0278
     28 H           2.7878   -0.5513    2.0993 H       1  LIG1        0.0278
     29 N           5.9791    3.3896   -1.4710 N.pl3   1  LIG1       -0.3574
     30 H           6.9724    3.4097   -1.6347 H       1  LIG1        0.1423
     31 H           5.3981    3.8496   -2.1517 H       1  LIG1        0.1423
     32 C           7.6674    1.3203   -0.1707 C.ar    1  LIG1        0.1600
     33 C           8.5894    0.3346    0.0567 C.ar    1  LIG1        0.0928
     34 C           9.8858    0.9372   -0.1288 C.ar    1  LIG1        0.0957
     35 C           9.6567    2.2420   -0.4309 C.ar    1  LIG1        0.1932
     36 O           8.3153    2.4732   -0.4627 O.2     1  LIG1       -0.4478
     37 N           8.3468   -1.0185    0.3996 N.pl3   1  LIG1       -0.3536
     38 H           8.2190   -1.6142   -0.4122 H       1  LIG1        0.1425
     39 H           9.0853   -1.3858    0.9902 H       1  LIG1        0.1425
     40 N          11.1019    0.2618    0.0250 N.pl3   1  LIG1       -0.3535
     41 H          11.0794   -0.6548   -0.4087 H       1  LIG1        0.1425
     42 H          11.8852    0.7991   -0.3305 H       1  LIG1        0.1425
     43 C          10.5669    3.3384   -0.7069 C.ar    1  LIG1        0.1757
     44 C          11.7317    3.7128   -0.1139 C.ar    1  LIG1        0.0138
     45 C          12.1989    4.8440   -0.8882 C.ar    1  LIG1        0.0659
     46 C          11.2671    5.0553   -1.8553 C.ar    1  LIG1        0.1083
     47 O          10.2831    4.1491   -1.7618 O.2     1  LIG1       -0.4582
     48 H          11.1880    5.7920   -2.6351 H       1  LIG1        0.1042
     49 C          12.3837    3.1488    1.1197 C.3     1  LIG1       -0.0348
     50 H          12.5685    3.9550    1.8304 H       1  LIG1        0.0279
     51 H          13.3441    2.6922    0.8724 H       1  LIG1        0.0279
     52 H          11.7378    2.4016    1.5805 H       1  LIG1        0.0279
     53 C          13.3921    5.6016   -0.6502 C.1     1  LIG1       -0.0662
     54 C          14.3958    6.2241   -0.4287 C.1     1  LIG1       -0.1138
     55 H          15.2829    6.7809   -0.2335 H       1  LIG1        0.1232
@<TRIPOS>BOND
     1    12    11    1
     2    11    10    3
     3    48    46    1
     4    31    29    1
     5    46    47   ar
     6    46    45   ar
     7    10     1    1
     8    47    43   ar
     9     5     2    1
    10    30    29    1
    11    29    23    1
    12    24    22    1
    13     2     1   ar
    14     2     4   ar
    15    45    53    1
    16    45    44   ar
    17     1     3   ar
    18    23    22   ar
    19    23    20   ar
    20    22    19   ar
    21    43    35    1
    22    43    44   ar
    23    53    54    3
    24    36    35   ar
    25    36    32   ar
    26    35    34   ar
    27    54    55    1
    28    38    37    1
    29    41    40    1
    30    42    40    1
    31    32    20    1
    32    32    33   ar
    33    20    18   ar
    34    34    40    1
    35    34    33   ar
    36    44    49    1
    37    19     4    1
    38    19    17   ar
    39     4     7   ar
    40    33    37    1
    41     3     9    1
    42     3     6   ar
    43    37    39    1
    44    18    17   ar
    45    18    21    1
    46    17    25    1
    47    27    25    1
    48    51    49    1
    49     7     6   ar
    50     7    13    1
    51     6     8    1
    52    49    52    1
    53    49    50    1
    54    25    26    1
    55    25    28    1
    56    15    13    1
    57    13    16    1
    58    13    14    1
