@<TRIPOS>MOLECULE
mol_data/opt/m06hf/geoms/mol2/4ei4ei-4ei-4ei-.out
 62 65 0 0 0
SMALL
GASTEIGER

@<TRIPOS>ATOM
      1 C          -0.2655    0.4087    0.4809 C.ar    1  LIG1        0.0253
      2 C           1.1307    0.3503    0.4667 C.ar    1  LIG1       -0.0383
      3 C          -0.9108    1.5062   -0.0925 C.ar    1  LIG1       -0.0461
      4 C           1.8750    1.3719   -0.1163 C.ar    1  LIG1       -0.0126
      5 H           1.6352   -0.5007    0.9053 H       1  LIG1        0.0636
      6 C          -0.1607    2.5273   -0.6633 C.ar    1  LIG1       -0.0571
      7 C           1.2339    2.4838   -0.6858 C.ar    1  LIG1       -0.0426
      8 H          -0.6672    3.3816   -1.0957 H       1  LIG1        0.0621
      9 H          -1.9914    1.5533   -0.0804 H       1  LIG1        0.0630
     10 C          -1.0302   -0.6576    1.0862 C.1     1  LIG1       -0.0696
     11 C          -1.6626   -1.5464    1.5909 C.1     1  LIG1       -0.1139
     12 H          -2.2196   -2.3361    2.0383 H       1  LIG1        0.1232
     13 C           2.0320    3.6165   -1.3027 C.3     1  LIG1       -0.0391
     14 H           1.3959    4.4902   -1.4418 H       1  LIG1        0.0278
     15 H           2.4289    3.3072   -2.2715 H       1  LIG1        0.0278
     16 H           2.8719    3.8836   -0.6596 H       1  LIG1        0.0278
     17 C           4.1061    1.0357   -1.2604 C.ar    1  LIG1        0.0330
     18 C           5.4992    0.9516   -1.1929 C.ar    1  LIG1       -0.0377
     19 C           3.3689    1.2758   -0.0922 C.ar    1  LIG1       -0.0019
     20 C           6.1656    1.1016    0.0191 C.ar    1  LIG1       -0.0126
     21 H           6.0638    0.7677   -2.0979 H       1  LIG1        0.0636
     22 C           4.0509    1.4055    1.1171 C.ar    1  LIG1       -0.0494
     23 C           5.4403    1.3229    1.2000 C.ar    1  LIG1       -0.0421
     24 H           3.4724    1.5777    2.0175 H       1  LIG1        0.0627
     25 C           3.4436    0.8486   -2.5309 C.1     1  LIG1       -0.0690
     26 C           2.9053    0.6897   -3.5945 C.1     1  LIG1       -0.1139
     27 H           2.4221    0.5397   -4.5324 H       1  LIG1        0.1232
     28 C           6.1420    1.4647    2.5370 C.3     1  LIG1       -0.0391
     29 H           6.5961    2.4547    2.6138 H       1  LIG1        0.0278
     30 H           6.9323    0.7189    2.6322 H       1  LIG1        0.0278
     31 H           5.4281    1.3375    3.3502 H       1  LIG1        0.0278
     32 C           8.4753    2.1005    0.2635 C.ar    1  LIG1        0.0330
     33 C           9.8640    1.9456    0.2838 C.ar    1  LIG1       -0.0377
     34 C           7.6574    0.9840    0.0437 C.ar    1  LIG1       -0.0019
     35 C          10.4460    0.6965    0.0913 C.ar    1  LIG1       -0.0126
     36 H          10.4915    2.8101    0.4579 H       1  LIG1        0.0636
     37 C           8.2567   -0.2573   -0.1681 C.ar    1  LIG1       -0.0494
     38 C           9.6405   -0.4270   -0.1502 C.ar    1  LIG1       -0.0421
     39 H           7.6167   -1.1130   -0.3498 H       1  LIG1        0.0627
     40 C           7.9023    3.4135    0.4537 C.1     1  LIG1       -0.0690
     41 C           7.4414    4.5123    0.6137 C.1     1  LIG1       -0.1139
     42 H           7.0295    5.4855    0.7483 H       1  LIG1        0.1232
     43 C          10.2506   -1.7942   -0.3929 C.3     1  LIG1       -0.0391
     44 H          10.6162   -2.2096    0.5479 H       1  LIG1        0.0278
     45 H          11.0922   -1.7171   -1.0827 H       1  LIG1        0.0278
     46 H           9.5045   -2.4680   -0.8127 H       1  LIG1        0.0278
     47 C          12.6085   -0.0471    1.1695 C.ar    1  LIG1        0.0324
     48 C          14.0055   -0.1233    1.1578 C.ar    1  LIG1       -0.0455
     49 C          11.9390    0.5885    0.1135 C.ar    1  LIG1       -0.0020
     50 C          14.7281    0.4292    0.1102 C.ar    1  LIG1       -0.0576
     51 H          14.5089   -0.6160    1.9784 H       1  LIG1        0.0630
     52 C          12.6862    1.1425   -0.9266 C.ar    1  LIG1       -0.0499
     53 C          14.0786    1.0742   -0.9454 C.ar    1  LIG1       -0.0498
     54 H          12.1589    1.6306   -1.7382 H       1  LIG1        0.0627
     55 H          15.8097    0.3616    0.1109 H       1  LIG1        0.0621
     56 C          11.8741   -0.6104    2.2794 C.1     1  LIG1       -0.0691
     57 C          11.2811   -1.0873    3.2100 C.1     1  LIG1       -0.1139
     58 H          10.7528   -1.5014    4.0371 H       1  LIG1        0.1232
     59 C          14.8770    1.7016   -2.0732 C.3     1  LIG1       -0.0397
     60 H          15.6876    1.0394   -2.3789 H       1  LIG1        0.0278
     61 H          15.3117    2.6467   -1.7426 H       1  LIG1        0.0278
     62 H          14.2392    1.8963   -2.9346 H       1  LIG1        0.0278
@<TRIPOS>BOND
     1    27    26    1
     2    26    25    3
     3    62    59    1
     4    25    17    1
     5    60    59    1
     6    15    13    1
     7    21    18    1
     8    59    61    1
     9    59    53    1
    10    54    52    1
    11    14    13    1
    12    13     7    1
    13    13    16    1
    14    17    18   ar
    15    17    19   ar
    16    18    20   ar
    17     8     6    1
    18    45    43    1
    19    53    52   ar
    20    53    50   ar
    21    52    49   ar
    22    46    43    1
    23     7     6   ar
    24     7     4   ar
    25     6     3   ar
    26    43    38    1
    27    43    44    1
    28    39    37    1
    29    37    38   ar
    30    37    34   ar
    31    38    35   ar
    32     4    19    1
    33     4     2   ar
    34     3     9    1
    35     3     1   ar
    36    19    22   ar
    37    20    34    1
    38    20    23   ar
    39    34    32   ar
    40    35    49    1
    41    35    33   ar
    42    50    55    1
    43    50    48   ar
    44    49    47   ar
    45    32    33   ar
    46    32    40    1
    47    33    36    1
    48    40    41    3
    49     2     1   ar
    50     2     5    1
    51     1    10    1
    52    41    42    1
    53    10    11    3
    54    22    23   ar
    55    22    24    1
    56    48    47   ar
    57    48    51    1
    58    47    56    1
    59    23    28    1
    60    11    12    1
    61    56    57    3
    62    28    29    1
    63    28    30    1
    64    28    31    1
    65    57    58    1
