@<TRIPOS>MOLECULE
mol_data/opt/m06hf/geoms/mol2/4ei4ei-.out
 32 33 0 0 0
SMALL
GASTEIGER

@<TRIPOS>ATOM
      1 C          -0.0369    0.2527   -0.6289 C.ar    1  LIG1        0.0253
      2 C           1.3598    0.2684   -0.6716 C.ar    1  LIG1       -0.0383
      3 C          -0.7104    1.2299    0.1065 C.ar    1  LIG1       -0.0461
      4 C           2.0771    1.2482    0.0086 C.ar    1  LIG1       -0.0126
      5 H           1.8867   -0.4834   -1.2447 H       1  LIG1        0.0636
      6 C           0.0129    2.1984    0.7916 C.ar    1  LIG1       -0.0571
      7 C           1.4076    2.2281    0.7588 C.ar    1  LIG1       -0.0426
      8 H          -0.5158    2.9460    1.3703 H       1  LIG1        0.0621
      9 H          -1.7913    1.2193    0.1414 H       1  LIG1        0.0630
     10 C          -0.7740   -0.7673   -1.3393 C.1     1  LIG1       -0.0696
     11 C          -1.3871   -1.6152   -1.9306 C.1     1  LIG1       -0.1139
     12 H          -1.9295   -2.3660   -2.4563 H       1  LIG1        0.1232
     13 C           2.1751    3.2892    1.5233 C.3     1  LIG1       -0.0391
     14 H           1.5202    3.7802    2.2425 H       1  LIG1        0.0278
     15 H           2.5659    4.0366    0.8301 H       1  LIG1        0.0278
     16 H           3.0168    2.8423    2.0543 H       1  LIG1        0.0278
     17 C           4.2987    2.1696   -0.7764 C.ar    1  LIG1        0.0324
     18 C           5.6949    2.0976   -0.8138 C.ar    1  LIG1       -0.0455
     19 C           3.5728    1.2124   -0.0519 C.ar    1  LIG1       -0.0020
     20 C           6.3629    1.0837   -0.1415 C.ar    1  LIG1       -0.0576
     21 H           6.2421    2.8414   -1.3769 H       1  LIG1        0.0630
     22 C           4.2645    0.1998    0.6121 C.ar    1  LIG1       -0.0499
     23 C           5.6565    0.1183    0.5789 C.ar    1  LIG1       -0.0498
     24 H           3.6938   -0.5336    1.1705 H       1  LIG1        0.0627
     25 H           7.4448    1.0392   -0.1774 H       1  LIG1        0.0621
     26 C           3.6201    3.2214   -1.4982 C.1     1  LIG1       -0.0691
     27 C           3.0688    4.1040   -2.1002 C.1     1  LIG1       -0.1139
     28 H           2.5736    4.8790   -2.6375 H       1  LIG1        0.1232
     29 C           6.3863   -1.0084    1.2865 C.3     1  LIG1       -0.0397
     30 H           7.3348   -0.6546    1.6905 H       1  LIG1        0.0278
     31 H           6.5921   -1.8189    0.5842 H       1  LIG1        0.0278
     32 H           5.7833   -1.4044    2.1029 H       1  LIG1        0.0278
@<TRIPOS>BOND
     1    28    27    1
     2    12    11    1
     3    27    26    3
     4    11    10    3
     5    26    17    1
     6    21    18    1
     7    10     1    1
     8     5     2    1
     9    18    17   ar
    10    18    20   ar
    11    17    19   ar
    12     2     1   ar
    13     2     4   ar
    14     1     3   ar
    15    25    20    1
    16    20    23   ar
    17    19     4    1
    18    19    22   ar
    19     4     7   ar
    20     3     9    1
    21     3     6   ar
    22    23    22   ar
    23    23    29    1
    24    31    29    1
    25    22    24    1
    26     7     6   ar
    27     7    13    1
    28     6     8    1
    29    15    13    1
    30    29    30    1
    31    29    32    1
    32    13    16    1
    33    13    14    1
