@<TRIPOS>MOLECULE
mol_data/opt/m06hf/geoms/mol2/4ei4ei4ei4ei.out
 62 65 0 0 0
SMALL
GASTEIGER

@<TRIPOS>ATOM
      1 C          -0.2311    2.0697   -0.4224 C.ar    1  LIG1        0.0253
      2 C           1.1663    2.0709   -0.4086 C.ar    1  LIG1       -0.0383
      3 C          -0.9184    0.9073   -0.0671 C.ar    1  LIG1       -0.0461
      4 C           1.8707    0.9254   -0.0490 C.ar    1  LIG1       -0.0126
      5 H           1.7035    2.9679   -0.6881 H       1  LIG1        0.0636
      6 C          -0.2084   -0.2292    0.3009 C.ar    1  LIG1       -0.0571
      7 C           1.1868   -0.2443    0.3195 C.ar    1  LIG1       -0.0426
      8 H          -0.7478   -1.1239    0.5870 H       1  LIG1        0.0621
      9 H          -2.0000    0.9059   -0.0756 H       1  LIG1        0.0630
     10 C          -0.9541    3.2628   -0.7993 C.1     1  LIG1       -0.0696
     11 C          -1.5516    4.2573   -1.1131 C.1     1  LIG1       -0.1139
     12 H          -2.0777    5.1401   -1.3925 H       1  LIG1        0.1232
     13 C           1.9401   -1.4927    0.7374 C.3     1  LIG1       -0.0391
     14 H           1.2651   -2.1879    1.2359 H       1  LIG1        0.0278
     15 H           2.7547   -1.2355    1.4160 H       1  LIG1        0.0278
     16 H           2.3684   -1.9800   -0.1406 H       1  LIG1        0.0278
     17 C           4.1353    0.2928   -0.9824 C.ar    1  LIG1        0.0330
     18 C           5.5294    0.3705   -0.9302 C.ar    1  LIG1       -0.0377
     19 C           3.3668    0.9783   -0.0309 C.ar    1  LIG1       -0.0019
     20 C           6.1662    1.1209    0.0531 C.ar    1  LIG1       -0.0126
     21 H           6.1181   -0.1619   -1.6661 H       1  LIG1        0.0636
     22 C           4.0202    1.7404    0.9368 C.ar    1  LIG1       -0.0494
     23 C           5.4103    1.8284    1.0006 C.ar    1  LIG1       -0.0421
     24 H           3.4182    2.2781    1.6604 H       1  LIG1        0.0627
     25 C           3.5051   -0.4737   -2.0329 C.1     1  LIG1       -0.0690
     26 C           2.9940   -1.1142   -2.9132 C.1     1  LIG1       -0.1139
     27 H           2.5352   -1.6718   -3.6968 H       1  LIG1        0.1232
     28 C           6.0807    2.6732    2.0669 C.3     1  LIG1       -0.0391
     29 H           5.3594    3.3593    2.5097 H       1  LIG1        0.0278
     30 H           6.9038    3.2451    1.6365 H       1  LIG1        0.0278
     31 H           6.4857    2.0287    2.8497 H       1  LIG1        0.0278
     32 C           8.4204    0.5514    1.0464 C.ar    1  LIG1        0.0330
     33 C           9.8144    0.6450    1.0148 C.ar    1  LIG1       -0.0377
     34 C           7.6613    1.1892    0.0561 C.ar    1  LIG1       -0.0019
     35 C          10.4592    1.3655    0.0143 C.ar    1  LIG1       -0.0126
     36 H          10.3964    0.1540    1.7840 H       1  LIG1        0.0636
     37 C           8.3233    1.8903   -0.9514 C.ar    1  LIG1       -0.0494
     38 C           9.7131    1.9925   -0.9955 C.ar    1  LIG1       -0.0421
     39 H           7.7286    2.3700   -1.7202 H       1  LIG1        0.0627
     40 C           7.7816   -0.2155    2.0914 C.1     1  LIG1       -0.0690
     41 C           7.2654   -0.8569    2.9676 C.1     1  LIG1       -0.1139
     42 H           6.8048   -1.4301    3.7384 H       1  LIG1        0.1232
     43 C          10.3925    2.7590   -2.1141 C.3     1  LIG1       -0.0391
     44 H           9.6875    2.9427   -2.9241 H       1  LIG1        0.0278
     45 H          11.2421    2.1939   -2.4999 H       1  LIG1        0.0278
     46 H          10.7600    3.7156   -1.7384 H       1  LIG1        0.0278
     47 C          12.6356    2.6115    0.3353 C.ar    1  LIG1        0.0324
     48 C          14.0346    2.6271    0.3380 C.ar    1  LIG1       -0.0455
     49 C          11.9550    1.4256    0.0225 C.ar    1  LIG1       -0.0020
     50 C          14.7482    1.4760    0.0369 C.ar    1  LIG1       -0.0576
     51 H          14.5465    3.5481    0.5811 H       1  LIG1        0.0630
     52 C          12.6930    0.2783   -0.2711 C.ar    1  LIG1       -0.0499
     53 C          14.0872    0.2834   -0.2680 C.ar    1  LIG1       -0.0498
     54 H          12.1573   -0.6326   -0.5125 H       1  LIG1        0.0627
     55 H          15.8316    1.5010    0.0396 H       1  LIG1        0.0621
     56 C          11.9096    3.8150    0.6716 C.1     1  LIG1       -0.0691
     57 C          11.3237    4.8268    0.9514 C.1     1  LIG1       -0.1139
     58 H          10.8013    5.7192    1.2070 H       1  LIG1        0.1232
     59 C          14.8743   -0.9790   -0.5678 C.3     1  LIG1       -0.0397
     60 H          14.2434   -1.7184   -1.0596 H       1  LIG1        0.0278
     61 H          15.2562   -1.4103    0.3594 H       1  LIG1        0.0278
     62 H          15.7216   -0.7534   -1.2160 H       1  LIG1        0.0278
@<TRIPOS>BOND
     1    27    26    1
     2    44    43    1
     3    26    25    3
     4    45    43    1
     5    43    46    1
     6    43    38    1
     7    25    17    1
     8    39    37    1
     9    21    18    1
    10    12    11    1
    11    62    59    1
    12    11    10    3
    13    60    59    1
    14    38    37   ar
    15    38    35   ar
    16    17    18   ar
    17    17    19   ar
    18    37    34   ar
    19    18    20   ar
    20    10     1    1
    21     5     2    1
    22    59    53    1
    23    59    61    1
    24    54    52    1
    25     1     2   ar
    26     1     3   ar
    27     2     4   ar
    28    52    53   ar
    29    52    49   ar
    30    53    50   ar
    31    16    13    1
    32     9     3    1
    33     3     6   ar
    34     4    19    1
    35     4     7   ar
    36    19    22   ar
    37    35    49    1
    38    35    33   ar
    39    49    47   ar
    40    50    55    1
    41    50    48   ar
    42    20    34    1
    43    20    23   ar
    44    34    32   ar
    45     6     7   ar
    46     6     8    1
    47     7    13    1
    48    47    48   ar
    49    47    56    1
    50    48    51    1
    51    56    57    3
    52    13    14    1
    53    13    15    1
    54    22    23   ar
    55    22    24    1
    56    57    58    1
    57    23    28    1
    58    33    32   ar
    59    33    36    1
    60    32    40    1
    61    30    28    1
    62    28    29    1
    63    28    31    1
    64    40    41    3
    65    41    42    1
