@<TRIPOS>MOLECULE
mol_data/opt/m06hf/geoms/mol2/4ei6if6ee-4fe-.out
 56 59 0 0 0
SMALL
GASTEIGER

@<TRIPOS>ATOM
      1 C           0.1679   -2.3542    1.2638 C.ar    1  LIG1        0.0253
      2 C           1.3370   -1.7680    0.7707 C.ar    1  LIG1       -0.0383
      3 C          -1.0650   -1.9862    0.7216 C.ar    1  LIG1       -0.0461
      4 C           1.2753   -0.8267   -0.2525 C.ar    1  LIG1       -0.0120
      5 H           2.2958   -2.0480    1.1886 H       1  LIG1        0.0636
      6 C          -1.1185   -1.0467   -0.3012 C.ar    1  LIG1       -0.0571
      7 C           0.0404   -0.4540   -0.8041 C.ar    1  LIG1       -0.0426
      8 H          -2.0788   -0.7669   -0.7168 H       1  LIG1        0.0621
      9 H          -1.9700   -2.4372    1.1061 H       1  LIG1        0.0630
     10 C           0.2374   -3.3284    2.3286 C.1     1  LIG1       -0.0696
     11 C           0.2978   -4.1364    3.2159 C.1     1  LIG1       -0.1139
     12 H           0.3527   -4.8519    4.0031 H       1  LIG1        0.1232
     13 C          -0.0266    0.5623   -1.9288 C.3     1  LIG1       -0.0391
     14 H          -1.0617    0.8343   -2.1314 H       1  LIG1        0.0278
     15 H           0.4136    0.1490   -2.8384 H       1  LIG1        0.0278
     16 H           0.5349    1.4616   -1.6692 H       1  LIG1        0.0278
     17 C           3.0630    0.9482   -0.1310 C.ar    1  LIG1        0.0468
     18 C           2.5433   -0.2050   -0.7515 C.ar    1  LIG1        0.0069
     19 C           3.2206   -0.7494   -1.8312 C.ar    1  LIG1       -0.0086
     20 C           4.3965   -0.1437   -2.2680 C.ar    1  LIG1        0.1434
     21 C           4.8459    0.9890   -1.5869 C.ar    1  LIG1        0.1152
     22 N           4.1865    1.5126   -0.5551 N.ar    1  LIG1       -0.2475
     23 H           2.8529   -1.6298   -2.3434 H       1  LIG1        0.0661
     24 C           2.3674    1.5900    1.0524 C.3     1  LIG1       -0.0217
     25 H           2.3579    0.9094    1.9056 H       1  LIG1        0.0293
     26 H           1.3311    1.8300    0.8070 H       1  LIG1        0.0293
     27 H           2.9086    2.4971    1.3107 H       1  LIG1        0.0293
     28 O           5.0481   -0.6811   -3.3297 O.3     1  LIG1       -0.5046
     29 H           5.7461   -0.0860   -3.6323 H       1  LIG1        0.2922
     30 C           6.1513    2.9898   -2.4334 C.ar    1  LIG1        0.1232
     31 C           6.1161    1.6513   -2.0112 C.ar    1  LIG1        0.0389
     32 C           7.3215    0.9567   -1.9839 C.ar    1  LIG1       -0.0323
     33 C           8.4995    1.5881   -2.3820 C.ar    1  LIG1        0.0514
     34 C           8.4176    2.9227   -2.8220 C.ar    1  LIG1        0.0913
     35 N           7.2727    3.5963   -2.8228 N.ar    1  LIG1       -0.2364
     36 H           7.3543   -0.0668   -1.6301 H       1  LIG1        0.0638
     37 C           4.9345    3.7734   -2.4908 C.1     1  LIG1       -0.0491
     38 C           3.9230    4.4157   -2.5543 C.1     1  LIG1       -0.1124
     39 H           3.0293    4.9928   -2.6074 H       1  LIG1        0.1232
     40 C           9.7564    0.8933   -2.2724 C.1     1  LIG1       -0.0675
     41 C          10.7876    0.2927   -2.1349 C.1     1  LIG1       -0.1138
     42 H          11.7055   -0.2332   -2.0093 H       1  LIG1        0.1232
     43 C          10.4424    3.1866   -4.2933 C.ar    1  LIG1        0.1261
     44 C          11.5748    3.8990   -4.6864 C.ar    1  LIG1       -0.0184
     45 C           9.6264    3.6761   -3.2674 C.ar    1  LIG1        0.0441
     46 C          11.8839    5.1043   -4.0730 C.ar    1  LIG1       -0.0429
     47 H          12.2023    3.5148   -5.4820 H       1  LIG1        0.0655
     48 C           9.9254    4.9005   -2.6821 C.ar    1  LIG1       -0.0336
     49 C          11.0569    5.6209   -3.0715 C.ar    1  LIG1        0.0255
     50 H           9.2702    5.2912   -1.9149 H       1  LIG1        0.0637
     51 H          12.7614    5.6602   -4.3744 H       1  LIG1        0.0631
     52 O          10.0657    2.0338   -4.8990 O.3     1  LIG1       -0.5061
     53 H          10.7462    1.7250   -5.5063 H       1  LIG1        0.2922
     54 C          11.3710    6.8840   -2.4470 C.1     1  LIG1       -0.0696
     55 C          11.6371    7.9350   -1.9290 C.1     1  LIG1       -0.1139
     56 H          11.8686    8.8670   -1.4683 H       1  LIG1        0.1232
@<TRIPOS>BOND
     1    53    52    1
     2    47    44    1
     3    52    43    1
     4    44    43   ar
     5    44    46   ar
     6    51    46    1
     7    43    45   ar
     8    46    49   ar
     9    29    28    1
    10    28    20    1
    11    45    34    1
    12    45    48   ar
    13    49    48   ar
    14    49    54    1
    15    15    13    1
    16    35    34   ar
    17    35    30   ar
    18    34    33   ar
    19    48    50    1
    20    39    38    1
    21    38    37    3
    22    37    30    1
    23    54    55    3
    24    30    31   ar
    25    33    40    1
    26    33    32   ar
    27    23    19    1
    28    40    41    3
    29    20    19   ar
    30    20    21   ar
    31    41    42    1
    32    14    13    1
    33    31    32   ar
    34    31    21    1
    35    32    36    1
    36    55    56    1
    37    13    16    1
    38    13     7    1
    39    19    18   ar
    40    21    22   ar
    41     7     6   ar
    42     7     4   ar
    43    18     4    1
    44    18    17   ar
    45     8     6    1
    46    22    17   ar
    47     6     3   ar
    48     4     2   ar
    49    17    24    1
    50     3     9    1
    51     3     1   ar
    52     2     5    1
    53     2     1   ar
    54    26    24    1
    55    24    27    1
    56    24    25    1
    57     1    10    1
    58    10    11    3
    59    11    12    1
