@<TRIPOS>MOLECULE
mol_data/opt/m06hf/geoms/mol2/4el.out
 18 18 0 0 0
SMALL
GASTEIGER

@<TRIPOS>ATOM
      1 C           0.0607   -0.0175    0.0003 C.ar    1  LIG1        0.0249
      2 C           1.4531   -0.0787   -0.0000 C.ar    1  LIG1       -0.0429
      3 C          -0.5673    1.2366    0.0002 C.ar    1  LIG1       -0.0429
      4 C           2.2210    1.0835   -0.0005 C.ar    1  LIG1       -0.0188
      5 H           1.9389   -1.0448    0.0000 H       1  LIG1        0.0631
      6 C           0.1860    2.3952   -0.0002 C.ar    1  LIG1       -0.0188
      7 C           1.5848    2.3248   -0.0006 C.ar    1  LIG1        0.1202
      8 H          -0.2753    3.3730   -0.0003 H       1  LIG1        0.0654
      9 H           3.2988    1.0052   -0.0007 H       1  LIG1        0.0654
     10 H          -1.6477    1.2876    0.0004 H       1  LIG1        0.0631
     11 C          -0.7235   -1.2300    0.0007 C.1     1  LIG1       -0.0697
     12 C          -1.3740   -2.2410    0.0011 C.1     1  LIG1       -0.1139
     13 H          -1.9489   -3.1378    0.0017 H       1  LIG1        0.1232
     14 O           2.2350    3.5129   -0.0010 O.3     1  LIG1       -0.4951
     15 C           3.6498    3.5023   -0.0013 C.3     1  LIG1        0.0788
     16 H           3.9537    4.5453   -0.0016 H       1  LIG1        0.0660
     17 H           4.0332    3.0057    0.8939 H       1  LIG1        0.0660
     18 H           4.0327    3.0054   -0.8965 H       1  LIG1        0.0660
@<TRIPOS>BOND
     1    18    15    1
     2    16    15    1
     3    15    14    1
     4    15    17    1
     5    14     7    1
     6     9     4    1
     7     7     4   ar
     8     7     6   ar
     9     4     2   ar
    10     8     6    1
    11     6     3   ar
    12     2     5    1
    13     2     1   ar
    14     3     1   ar
    15     3    10    1
    16     1    11    1
    17    11    12    3
    18    12    13    1
