@<TRIPOS>MOLECULE
mol_data/opt/m06hf/geoms/mol2/4el13af-4ae6dd-.out
 50 53 0 0 0
SMALL
GASTEIGER

@<TRIPOS>ATOM
      1 C          -1.1961    0.8830    0.1675 C.ar    1  LIG1        0.0255
      2 C           0.1410    0.4835    0.1223 C.ar    1  LIG1       -0.0337
      3 C          -1.5127    2.2296   -0.0043 C.ar    1  LIG1       -0.0428
      4 C           1.1701    1.3942   -0.1034 C.ar    1  LIG1        0.0412
      5 H           0.3787   -0.5595    0.2788 H       1  LIG1        0.0637
      6 C          -0.5028    3.1602   -0.2160 C.ar    1  LIG1       -0.0181
      7 C           0.8291    2.7521   -0.2649 C.ar    1  LIG1        0.1292
      8 H          -0.7628    4.2011   -0.3418 H       1  LIG1        0.0655
      9 H          -2.5457    2.5455    0.0342 H       1  LIG1        0.0631
     10 C          -2.2376   -0.0896    0.4015 C.1     1  LIG1       -0.0696
     11 C          -3.1070   -0.8958    0.5958 C.1     1  LIG1       -0.1139
     12 H          -3.8788   -1.6094    0.7683 H       1  LIG1        0.1232
     13 O           1.8537    3.6286   -0.4651 O.3     1  LIG1       -0.4945
     14 C           1.5495    4.9904   -0.7271 C.3     1  LIG1        0.0788
     15 H           2.5035    5.4756   -0.9129 H       1  LIG1        0.0660
     16 H           0.9141    5.0732   -1.6105 H       1  LIG1        0.0660
     17 H           1.0619    5.4464    0.1366 H       1  LIG1        0.0660
     18 C           2.5594    0.8983   -0.1697 C.ar    1  LIG1        0.0540
     19 C           3.0164   -0.4060   -0.2981 C.ar    1  LIG1        0.0059
     20 C           4.4238   -0.3423   -0.3085 C.ar    1  LIG1        0.1426
     21 C           4.8019    0.9847   -0.1867 C.ar    1  LIG1        0.0890
     22 N           3.6488    1.7104   -0.0903 N.ar    1  LIG1       -0.3511
     23 H           3.5718    2.7175   -0.0944 H       1  LIG1        0.1660
     24 H           2.4297   -1.3038   -0.3918 H       1  LIG1        0.0675
     25 O           5.2644   -1.4208   -0.4348 O.3     1  LIG1       -0.5046
     26 H           5.8819   -1.4309    0.3064 H       1  LIG1        0.2922
     27 C           7.2019    0.9670   -0.8225 C.ar    1  LIG1       -0.0519
     28 C           8.4663    1.5410   -0.8080 C.ar    1  LIG1       -0.0522
     29 C           6.1388    1.5864   -0.1518 C.ar    1  LIG1        0.0031
     30 C           8.6981    2.7431   -0.1405 C.ar    1  LIG1        0.0003
     31 H           9.2790    1.0712   -1.3483 H       1  LIG1        0.0624
     32 C           6.3752    2.7754    0.5435 C.ar    1  LIG1       -0.0365
     33 C           7.6414    3.3592    0.5491 C.ar    1  LIG1        0.0331
     34 H           5.5851    3.2477    1.1125 H       1  LIG1        0.0636
     35 H           7.0180    0.0526   -1.3714 H       1  LIG1        0.0624
     36 C           7.8619    4.5732    1.3007 C.1     1  LIG1       -0.0690
     37 C           8.0447    5.5804    1.9297 C.1     1  LIG1       -0.1139
     38 H           8.2075    6.4798    2.4776 H       1  LIG1        0.1232
     39 C          10.3249    4.5968   -0.7224 C.ar    1  LIG1        0.1478
     40 C          10.0608    3.3435   -0.1505 C.ar    1  LIG1        0.0204
     41 C          11.1473    2.6646    0.3933 C.ar    1  LIG1       -0.0324
     42 C          12.4043    3.2614    0.3514 C.ar    1  LIG1        0.0705
     43 C          12.5466    4.5232   -0.2323 C.ar    1  LIG1        0.0464
     44 N          11.5218    5.1735   -0.7632 N.ar    1  LIG1       -0.2427
     45 H          11.0105    1.6946    0.8532 H       1  LIG1        0.0638
     46 H          13.5142    5.0070   -0.2702 H       1  LIG1        0.0843
     47 N           8.3872    5.9085   -1.8692 N.1     1  LIG1       -0.1893
     48 C           9.2409    5.3388   -1.3585 C.1     1  LIG1        0.1197
     49 N          14.4680    2.0641    1.3690 N.1     1  LIG1       -0.1908
     50 C          13.5569    2.5941    0.9167 C.1     1  LIG1        0.1007
@<TRIPOS>BOND
     1    47    48    3
     2    16    14    1
     3    35    27    1
     4    48    39    1
     5    31    28    1
     6    15    14    1
     7    27    28   ar
     8    27    29   ar
     9    28    30   ar
    10    44    39   ar
    11    44    43   ar
    12    14    13    1
    13    14    17    1
    14    39    40   ar
    15    13     7    1
    16    25    20    1
    17    25    26    1
    18    24    19    1
    19     8     6    1
    20    20    19   ar
    21    20    21   ar
    22    19    18   ar
    23    46    43    1
    24     7     6   ar
    25     7     4   ar
    26    43    42   ar
    27     6     3   ar
    28    21    29    1
    29    21    22   ar
    30    18     4    1
    31    18    22   ar
    32    29    32   ar
    33    40    30    1
    34    40    41   ar
    35    30    33   ar
    36     4     2   ar
    37    23    22    1
    38     3     9    1
    39     3     1   ar
    40     2     1   ar
    41     2     5    1
    42     1    10    1
    43    42    41   ar
    44    42    50    1
    45    41    45    1
    46    10    11    3
    47    32    33   ar
    48    32    34    1
    49    33    36    1
    50    11    12    1
    51    50    49    3
    52    36    37    3
    53    37    38    1
