@<TRIPOS>MOLECULE
mol_data/opt/m06hf/geoms/mol2/4el12lh6ff-4ld.out
 57 60 0 0 0
SMALL
GASTEIGER

@<TRIPOS>ATOM
      1 C           1.2188   -0.8100    0.3107 C.ar    1  LIG1        0.0256
      2 C           1.3461   -0.0612   -0.8603 C.ar    1  LIG1       -0.0320
      3 C           1.8249   -0.3538    1.4808 C.ar    1  LIG1       -0.0428
      4 C           2.0728    1.1277   -0.8804 C.ar    1  LIG1        0.0637
      5 H           0.8585   -0.3946   -1.7668 H       1  LIG1        0.0638
      6 C           2.5370    0.8392    1.4839 C.ar    1  LIG1       -0.0181
      7 C           2.6636    1.5923    0.3158 C.ar    1  LIG1        0.1309
      8 H           2.9890    1.1818    2.4029 H       1  LIG1        0.0655
      9 H           1.7320   -0.9319    2.3898 H       1  LIG1        0.0631
     10 C           0.4654   -2.0419    0.3068 C.1     1  LIG1       -0.0696
     11 C          -0.1605   -3.0675    0.3053 C.1     1  LIG1       -0.1139
     12 H          -0.7185   -3.9747    0.3035 H       1  LIG1        0.1232
     13 O           3.3307    2.7704    0.2784 O.3     1  LIG1       -0.4944
     14 C           3.9474    3.2599    1.4608 C.3     1  LIG1        0.0788
     15 H           4.4186    4.1947    1.1687 H       1  LIG1        0.0660
     16 H           3.1988    3.4428    2.2341 H       1  LIG1        0.0660
     17 H           4.6992    2.5535    1.8184 H       1  LIG1        0.0660
     18 C           2.1725    1.8653   -2.1454 C.ar    1  LIG1        0.1825
     19 C           1.6186    1.6815   -3.3808 C.ar    1  LIG1        0.1871
     20 C           2.0241    2.7848   -4.2112 C.ar    1  LIG1        0.1141
     21 C           2.8286    3.5563   -3.4245 C.ar    1  LIG1        0.1652
     22 O           2.9074    2.9927   -2.1903 O.2     1  LIG1       -0.4488
     23 O           0.8167    0.6696   -3.8150 O.3     1  LIG1       -0.4896
     24 C           1.5444   -0.3209   -4.5542 C.3     1  LIG1        0.0791
     25 H           0.8107   -1.0485   -4.8915 H       1  LIG1        0.0660
     26 H           2.0436    0.1439   -5.4066 H       1  LIG1        0.0660
     27 H           2.2826   -0.7962   -3.9063 H       1  LIG1        0.0660
     28 N           1.6263    2.9387   -5.5429 N.pl3   1  LIG1       -0.3522
     29 H           0.7857    2.3995   -5.7240 H       1  LIG1        0.1425
     30 H           1.4825    3.9083   -5.8030 H       1  LIG1        0.1425
     31 C           4.0102    5.5950   -2.5260 C.ar    1  LIG1        0.2241
     32 C           3.5641    4.8011   -3.6195 C.ar    1  LIG1        0.0840
     33 C           3.8511    5.2608   -4.8956 C.ar    1  LIG1       -0.0022
     34 C           4.5035    6.4783   -5.0877 C.ar    1  LIG1        0.1437
     35 C           4.8868    7.1924   -3.9498 C.ar    1  LIG1        0.1196
     36 N           4.6355    6.7323   -2.7179 N.ar    1  LIG1       -0.2086
     37 H           3.5873    4.6789   -5.7702 H       1  LIG1        0.0663
     38 O           3.8209    5.2555   -1.2371 O.3     1  LIG1       -0.4919
     39 H           3.4475    4.3642   -1.1379 H       1  LIG1        0.2938
     40 O           4.6776    6.9092   -6.3626 O.3     1  LIG1       -0.5046
     41 H           5.5377    7.3633   -6.4173 H       1  LIG1        0.2922
     42 C           6.5173    8.9591   -4.8667 C.ar    1  LIG1        0.1294
     43 C           7.0591   10.2445   -4.8111 C.ar    1  LIG1       -0.0181
     44 C           5.5093    8.5551   -3.9772 C.ar    1  LIG1        0.0469
     45 C           6.6096   11.1419   -3.8535 C.ar    1  LIG1       -0.0409
     46 H           7.8326   10.5497   -5.5005 H       1  LIG1        0.0655
     47 C           5.0885    9.4623   -3.0078 C.ar    1  LIG1       -0.0315
     48 C           5.6259   10.7464   -2.9489 C.ar    1  LIG1        0.0526
     49 H           4.3441    9.1399   -2.2923 H       1  LIG1        0.0638
     50 H           7.0214   12.1402   -3.8020 H       1  LIG1        0.0631
     51 O           6.9538    8.0296   -5.7669 O.3     1  LIG1       -0.4944
     52 C           8.0915    8.3180   -6.5727 C.3     1  LIG1        0.0788
     53 H           8.2861    7.4096   -7.1348 H       1  LIG1        0.0660
     54 H           7.8789    9.1429   -7.2548 H       1  LIG1        0.0660
     55 H           8.9438    8.5562   -5.9354 H       1  LIG1        0.0660
     56 N           4.7992   12.4366   -1.1600 N.1     1  LIG1       -0.1909
     57 C           5.1616   11.6826   -1.9456 C.1     1  LIG1        0.0992
@<TRIPOS>BOND
     1    54    52    1
     2    53    52    1
     3    52    55    1
     4    52    51    1
     5    41    40    1
     6    40    34    1
     7    30    28    1
     8    37    33    1
     9    51    42    1
    10    29    28    1
    11    28    20    1
    12    46    43    1
    13    26    24    1
    14    34    33   ar
    15    34    35   ar
    16    33    32   ar
    17    25    24    1
    18    42    43   ar
    19    42    44   ar
    20    43    45   ar
    21    24    27    1
    22    24    23    1
    23    20    21   ar
    24    20    19   ar
    25    44    35    1
    26    44    47   ar
    27    35    36   ar
    28    45    50    1
    29    45    48   ar
    30    23    19    1
    31    32    21    1
    32    32    31   ar
    33    21    22   ar
    34    19    18   ar
    35    47    48   ar
    36    47    49    1
    37    48    57    1
    38    36    31   ar
    39    31    38    1
    40    22    18   ar
    41    18     4    1
    42    57    56    3
    43     5     2    1
    44    38    39    1
    45     4     2   ar
    46     4     7   ar
    47     2     1   ar
    48    13     7    1
    49    13    14    1
    50    12    11    1
    51    11    10    3
    52    10     1    1
    53     1     3   ar
    54     7     6   ar
    55    15    14    1
    56    14    17    1
    57    14    16    1
    58     3     6   ar
    59     3     9    1
    60     6     8    1
