@<TRIPOS>MOLECULE
mol_data/opt/m06hf/geoms/mol2/4fa.out
 13 13 0 0 0
SMALL
GASTEIGER

@<TRIPOS>ATOM
      1 C           0.1138    0.0698    0.0004 C.ar    1  LIG1        0.1169
      2 C           1.5064    0.0524    0.0000 C.ar    1  LIG1       -0.0202
      3 C          -0.5757    1.2814    0.0003 C.ar    1  LIG1       -0.0202
      4 C           2.2087    1.2552   -0.0005 C.ar    1  LIG1       -0.0583
      5 H           2.0374   -0.8927    0.0001 H       1  LIG1        0.0654
      6 C           0.1363    2.4740   -0.0002 C.ar    1  LIG1       -0.0583
      7 C           1.5309    2.4697   -0.0006 C.ar    1  LIG1       -0.0615
      8 H          -0.4023    3.4126   -0.0002 H       1  LIG1        0.0619
      9 H           3.2905    1.2359   -0.0008 H       1  LIG1        0.0619
     10 H          -1.6567    1.2615    0.0006 H       1  LIG1        0.0654
     11 O          -0.6323   -1.0707    0.0009 O.3     1  LIG1       -0.5068
     12 H          -0.0629   -1.8466    0.0009 H       1  LIG1        0.2921
     13 H           2.0803    3.4010   -0.0009 H       1  LIG1        0.0618
@<TRIPOS>BOND
     1    13     7    1
     2     9     4    1
     3     7     4   ar
     4     7     6   ar
     5     4     2   ar
     6     8     6    1
     7     6     3   ar
     8     2     5    1
     9     2     1   ar
    10     3     1   ar
    11     3    10    1
    12     1    11    1
    13    11    12    1
