@<TRIPOS>MOLECULE
mol_data/opt/m06hf/geoms/mol2/4fa13ee-13de-12hh-.out
 47 50 0 0 0
SMALL
GASTEIGER

@<TRIPOS>ATOM
      1 C           0.0039   -0.1439   -0.8114 C.ar    1  LIG1        0.1175
      2 C           1.3677   -0.1154   -0.5412 C.ar    1  LIG1       -0.0110
      3 C          -0.7536    1.0273   -0.7649 C.ar    1  LIG1       -0.0201
      4 C           1.9783    1.0948   -0.2063 C.ar    1  LIG1        0.0030
      5 H           1.9614   -1.0207   -0.5899 H       1  LIG1        0.0661
      6 C          -0.1371    2.2253   -0.4314 C.ar    1  LIG1       -0.0577
      7 C           1.2252    2.2687   -0.1442 C.ar    1  LIG1       -0.0524
      8 H          -0.7253    3.1320   -0.3806 H       1  LIG1        0.0619
      9 H          -1.8102    0.9691   -0.9864 H       1  LIG1        0.0654
     10 O          -0.6465   -1.2916   -1.1387 O.3     1  LIG1       -0.5067
     11 H          -0.0395   -2.0394   -1.1331 H       1  LIG1        0.2921
     12 H           1.6884    3.1985    0.1595 H       1  LIG1        0.0624
     13 C           3.4274    1.1202    0.0652 C.ar    1  LIG1        0.0639
     14 C           4.2613    0.1844    0.6525 C.ar    1  LIG1        0.0659
     15 C           5.5874    0.7272    0.6463 C.ar    1  LIG1        0.0673
     16 C           5.5089    1.9679    0.0483 C.ar    1  LIG1        0.0814
     17 N           4.1992    2.1905   -0.2810 N.ar    1  LIG1       -0.3510
     18 H           3.8782    2.9463   -0.8687 H       1  LIG1        0.1660
     19 C           3.8791   -1.0776    1.2082 C.1     1  LIG1       -0.0663
     20 C           3.5689   -2.1408    1.6745 C.1     1  LIG1       -0.1138
     21 H           3.3034   -3.0804    2.1000 H       1  LIG1        0.1232
     22 C           6.7674    0.1239    1.1816 C.1     1  LIG1       -0.0662
     23 C           7.7664   -0.3785    1.6196 C.1     1  LIG1       -0.1138
     24 H           8.6597   -0.8267    1.9883 H       1  LIG1        0.1232
     25 C           6.5461    2.9590   -0.2146 C.ar    1  LIG1        0.0834
     26 C           7.8081    2.8299   -0.7547 C.ar    1  LIG1        0.0945
     27 C           8.3951    4.1356   -0.8110 C.ar    1  LIG1        0.0710
     28 C           7.4621    5.0139   -0.2864 C.ar    1  LIG1        0.1013
     29 N           6.3623    4.2841    0.0568 N.ar    1  LIG1       -0.3485
     30 H           5.5641    4.6788    0.5333 H       1  LIG1        0.1661
     31 N           8.8933    0.6663   -1.6470 N.1     1  LIG1       -0.1908
     32 C           8.4027    1.6222   -1.2436 C.1     1  LIG1        0.1026
     33 C           9.6659    4.4583   -1.3784 C.1     1  LIG1       -0.0661
     34 C          10.7341    4.7072   -1.8733 C.1     1  LIG1       -0.1138
     35 H          11.6746    4.9081   -2.3331 H       1  LIG1        0.1232
     36 C           7.4754    6.4450   -0.0535 C.ar    1  LIG1        0.1745
     37 C           8.4522    7.3735    0.1511 C.ar    1  LIG1        0.0934
     38 C           7.7568    8.6216    0.3877 C.ar    1  LIG1        0.0845
     39 C           6.4350    8.3436    0.3167 C.ar    1  LIG1        0.1151
     40 O           6.2416    7.0334    0.0442 O.2     1  LIG1       -0.4576
     41 H           5.5558    8.9552    0.4186 H       1  LIG1        0.1049
     42 N           9.8280    7.2772    0.2423 N.pl3   1  LIG1       -0.3536
     43 H          10.2314    6.4543   -0.1875 H       1  LIG1        0.1425
     44 H          10.2793    8.1377   -0.0474 H       1  LIG1        0.1425
     45 N           8.4604    9.8259    0.5953 N.pl3   1  LIG1       -0.3541
     46 H           7.8702   10.6457    0.5219 H       1  LIG1        0.1425
     47 H           8.9377    9.8254    1.4922 H       1  LIG1        0.1425
@<TRIPOS>BOND
     1    35    34    1
     2    34    33    3
     3    31    32    3
     4    33    27    1
     5    32    26    1
     6    10    11    1
     7    10     1    1
     8     9     3    1
     9    18    17    1
    10     1     3   ar
    11     1     2   ar
    12    27    26   ar
    13    27    28   ar
    14     3     6   ar
    15    26    25   ar
    16     5     2    1
    17     2     4   ar
    18     6     8    1
    19     6     7   ar
    20    28    36    1
    21    28    29   ar
    22    17    16   ar
    23    17    13   ar
    24    25    16    1
    25    25    29   ar
    26     4     7   ar
    27     4    13    1
    28    43    42    1
    29     7    12    1
    30    36    40   ar
    31    36    37   ar
    32    44    42    1
    33    40    39   ar
    34    16    15   ar
    35    29    30    1
    36    13    14   ar
    37    37    42    1
    38    37    38   ar
    39    39    38   ar
    40    39    41    1
    41    38    45    1
    42    46    45    1
    43    45    47    1
    44    15    14   ar
    45    15    22    1
    46    14    19    1
    47    22    23    3
    48    19    20    3
    49    23    24    1
    50    20    21    1
