@<TRIPOS>MOLECULE
mol_data/opt/m06hf/geoms/mol2/4fa4fa4fa.out
 35 37 0 0 0
SMALL
GASTEIGER

@<TRIPOS>ATOM
      1 C          -0.1699    0.4081    0.6395 C.ar    1  LIG1        0.1174
      2 C           1.2166    0.3293    0.7072 C.ar    1  LIG1       -0.0124
      3 C          -0.7900    1.2814   -0.2533 C.ar    1  LIG1       -0.0201
      4 C           2.0018    1.1304   -0.1258 C.ar    1  LIG1       -0.0110
      5 H           1.6938   -0.3543    1.3991 H       1  LIG1        0.0660
      6 C          -0.0061    2.0706   -1.0831 C.ar    1  LIG1       -0.0577
      7 C           1.3842    2.0002   -1.0259 C.ar    1  LIG1       -0.0537
      8 H          -0.4814    2.7422   -1.7863 H       1  LIG1        0.0619
      9 H          -1.8706    1.3159   -0.2804 H       1  LIG1        0.0654
     10 O          -0.9801   -0.3479    1.4338 O.3     1  LIG1       -0.5067
     11 H          -0.4540   -0.9339    1.9880 H       1  LIG1        0.2921
     12 H           1.9911    2.5998   -1.6916 H       1  LIG1        0.0624
     13 C           4.2054   -0.1126   -0.0017 C.ar    1  LIG1        0.1251
     14 C           5.5956   -0.1192    0.0379 C.ar    1  LIG1       -0.0117
     15 C           3.4916    1.0935   -0.0414 C.ar    1  LIG1        0.0237
     16 C           6.3124    1.0779    0.0445 C.ar    1  LIG1       -0.0109
     17 H           6.1299   -1.0616    0.0563 H       1  LIG1        0.0660
     18 C           4.2236    2.2814   -0.0298 C.ar    1  LIG1       -0.0500
     19 C           5.6132    2.2852    0.0103 C.ar    1  LIG1       -0.0531
     20 H           3.6824    3.2191   -0.0453 H       1  LIG1        0.0625
     21 O           3.4975   -1.2793   -0.0027 O.3     1  LIG1       -0.5061
     22 H           4.0928   -2.0246   -0.1340 H       1  LIG1        0.2922
     23 H           6.1549    3.2219   -0.0032 H       1  LIG1        0.0624
     24 C           8.5901    0.2264   -0.6543 C.ar    1  LIG1        0.1245
     25 C           9.9799    0.2681   -0.5723 C.ar    1  LIG1       -0.0196
     26 C           7.8025    1.0809    0.1304 C.ar    1  LIG1        0.0237
     27 C          10.6043    1.1598    0.2933 C.ar    1  LIG1       -0.0583
     28 H          10.5706   -0.3991   -1.1902 H       1  LIG1        0.0654
     29 C           8.4531    1.9614    0.9964 C.ar    1  LIG1       -0.0505
     30 C           9.8409    2.0108    1.0848 C.ar    1  LIG1       -0.0610
     31 H           7.8476    2.6047    1.6228 H       1  LIG1        0.0625
     32 H          11.6847    1.1812    0.3491 H       1  LIG1        0.0619
     33 O           7.9558   -0.6377   -1.4982 O.3     1  LIG1       -0.5062
     34 H           8.5962   -1.0742   -2.0694 H       1  LIG1        0.2922
     35 H          10.3172    2.7001    1.7683 H       1  LIG1        0.0618
@<TRIPOS>BOND
     1    34    33    1
     2     8     6    1
     3    12     7    1
     4    33    24    1
     5    28    25    1
     6     6     7   ar
     7     6     3   ar
     8     7     4   ar
     9    24    25   ar
    10    24    26   ar
    11    25    27   ar
    12     9     3    1
    13     3     1   ar
    14    22    21    1
    15     4    15    1
    16     4     2   ar
    17    20    18    1
    18    15    18   ar
    19    15    13   ar
    20    18    19   ar
    21    23    19    1
    22    21    13    1
    23    13    14   ar
    24    19    16   ar
    25    14    16   ar
    26    14    17    1
    27    16    26    1
    28    26    29   ar
    29    27    32    1
    30    27    30   ar
    31     1     2   ar
    32     1    10    1
    33     2     5    1
    34    29    30   ar
    35    29    31    1
    36    30    35    1
    37    10    11    1
