@<TRIPOS>MOLECULE
mol_data/opt/m06hf/geoms/mol2/4fa4fa-4fa-4fa-.out
 46 49 0 0 0
SMALL
GASTEIGER

@<TRIPOS>ATOM
      1 C          -0.2452    0.2247    0.4316 C.ar    1  LIG1        0.1174
      2 C           1.1452    0.1659    0.4370 C.ar    1  LIG1       -0.0124
      3 C          -0.9031    1.3442   -0.0808 C.ar    1  LIG1       -0.0201
      4 C           1.8917    1.2262   -0.0840 C.ar    1  LIG1       -0.0110
      5 H           1.6572   -0.6925    0.8581 H       1  LIG1        0.0660
      6 C          -0.1591    2.3961   -0.5937 C.ar    1  LIG1       -0.0577
      7 C           1.2355    2.3460   -0.6030 C.ar    1  LIG1       -0.0537
      8 H          -0.6666    3.2609   -0.9999 H       1  LIG1        0.0619
      9 H          -1.9842    1.3608   -0.0643 H       1  LIG1        0.0654
     10 O          -1.0192   -0.7765    0.9256 O.3     1  LIG1       -0.5067
     11 H          -0.4767   -1.4986    1.2590 H       1  LIG1        0.2921
     12 H           1.8119    3.1542   -1.0368 H       1  LIG1        0.0624
     13 C           4.1375    2.1815    0.5017 C.ar    1  LIG1        0.1251
     14 C           5.5303    2.1185    0.5106 C.ar    1  LIG1       -0.0117
     15 C           3.3837    1.1529   -0.0800 C.ar    1  LIG1        0.0237
     16 C           6.1913    1.0275   -0.0579 C.ar    1  LIG1       -0.0109
     17 H           6.0767    2.9129    1.0051 H       1  LIG1        0.0660
     18 C           4.0579    0.0614   -0.6310 C.ar    1  LIG1       -0.0500
     19 C           5.4448   -0.0072   -0.6311 C.ar    1  LIG1       -0.0531
     20 H           3.4748   -0.7267   -1.0919 H       1  LIG1        0.0625
     21 O           3.5623    3.2577    1.0916 O.3     1  LIG1       -0.5061
     22 H           2.6042    3.1372    1.1374 H       1  LIG1        0.2922
     23 H           5.9544   -0.8439   -1.0901 H       1  LIG1        0.0624
     24 C           8.4401    2.0245   -0.5662 C.ar    1  LIG1        0.1251
     25 C           9.8331    1.9648   -0.5641 C.ar    1  LIG1       -0.0117
     26 C           7.6832    0.9651   -0.0482 C.ar    1  LIG1        0.0237
     27 C          10.4925    0.8488   -0.0446 C.ar    1  LIG1       -0.0109
     28 H          10.3826    2.7848   -1.0112 H       1  LIG1        0.0660
     29 C           8.3551   -0.1521    0.4523 C.ar    1  LIG1       -0.0500
     30 C           9.7418   -0.2157    0.4660 C.ar    1  LIG1       -0.0531
     31 H           7.7690   -0.9659    0.8618 H       1  LIG1        0.0625
     32 O           7.8690    3.1302   -1.1046 O.3     1  LIG1       -0.5061
     33 H           6.9120    3.0120   -1.1683 H       1  LIG1        0.2922
     34 H          10.2491   -1.0735    0.8868 H       1  LIG1        0.0624
     35 C          12.7357    1.8288    0.5232 C.ar    1  LIG1        0.1245
     36 C          14.1285    1.7720    0.5246 C.ar    1  LIG1       -0.0196
     37 C          11.9850    0.7891   -0.0419 C.ar    1  LIG1        0.0237
     38 C          14.7779    0.6775   -0.0297 C.ar    1  LIG1       -0.0583
     39 H          14.6707    2.5931    0.9732 H       1  LIG1        0.0654
     40 C          12.6584   -0.3083   -0.5833 C.ar    1  LIG1       -0.0505
     41 C          14.0462   -0.3721   -0.5835 C.ar    1  LIG1       -0.0610
     42 H          12.0729   -1.1057   -1.0250 H       1  LIG1        0.0625
     43 H          15.8597    0.6421   -0.0254 H       1  LIG1        0.0619
     44 O          12.1563    2.9156    1.0971 O.3     1  LIG1       -0.5062
     45 H          11.1998    2.7910    1.1505 H       1  LIG1        0.2922
     46 H          14.5503   -1.2255   -1.0154 H       1  LIG1        0.0618
@<TRIPOS>BOND
     1    33    32    1
     2    32    24    1
     3    20    18    1
     4    23    19    1
     5    12     7    1
     6    42    40    1
     7    46    41    1
     8    28    25    1
     9     8     6    1
    10    19    18   ar
    11    19    16   ar
    12    18    15   ar
    13     7     6   ar
    14     7     4   ar
    15     6     3   ar
    16    41    40   ar
    17    41    38   ar
    18    40    37   ar
    19    24    25   ar
    20    24    26   ar
    21    25    27   ar
    22     4    15    1
    23     4     2   ar
    24     3     9    1
    25     3     1   ar
    26    15    13   ar
    27    16    26    1
    28    16    14   ar
    29    26    29   ar
    30    27    37    1
    31    27    30   ar
    32    37    35   ar
    33    38    43    1
    34    38    36   ar
    35     1     2   ar
    36     1    10    1
    37     2     5    1
    38    29    30   ar
    39    29    31    1
    40    30    34    1
    41    13    14   ar
    42    13    21    1
    43    14    17    1
    44    35    36   ar
    45    35    44    1
    46    36    39    1
    47    10    11    1
    48    21    22    1
    49    44    45    1
