@<TRIPOS>MOLECULE
mol_data/opt/m06hf/geoms/mol2/4fa4fa-.out
 24 25 0 0 0
SMALL
GASTEIGER

@<TRIPOS>ATOM
      1 C          -0.0059    0.1879    0.4271 C.ar    1  LIG1        0.1174
      2 C           1.3852    0.1527    0.4224 C.ar    1  LIG1       -0.0124
      3 C          -0.6869    1.2791   -0.1149 C.ar    1  LIG1       -0.0201
      4 C           2.1104    1.2086   -0.1371 C.ar    1  LIG1       -0.0110
      5 H           1.9171   -0.6829    0.8641 H       1  LIG1        0.0660
      6 C           0.0356    2.3269   -0.6667 C.ar    1  LIG1       -0.0577
      7 C           1.4307    2.3002   -0.6851 C.ar    1  LIG1       -0.0537
      8 H          -0.4907    3.1696   -1.0952 H       1  LIG1        0.0619
      9 H          -1.7678    1.2790   -0.0907 H       1  LIG1        0.0654
     10 O          -0.7580   -0.8110    0.9612 O.3     1  LIG1       -0.5067
     11 H          -0.1969   -1.5202    1.2915 H       1  LIG1        0.2921
     12 H           1.9925    3.1044   -1.1445 H       1  LIG1        0.0624
     13 C           4.3351    2.1980    0.4620 C.ar    1  LIG1        0.1245
     14 C           5.7283    2.1585    0.4771 C.ar    1  LIG1       -0.0196
     15 C           3.6042    1.1625   -0.1358 C.ar    1  LIG1        0.0237
     16 C           6.3972    1.0889   -0.1025 C.ar    1  LIG1       -0.0583
     17 H           6.2567    2.9728    0.9538 H       1  LIG1        0.0654
     18 C           4.2961    0.0909   -0.7043 C.ar    1  LIG1       -0.0505
     19 C           5.6849    0.0468   -0.6953 C.ar    1  LIG1       -0.0610
     20 H           3.7244   -0.7012   -1.1730 H       1  LIG1        0.0625
     21 H           7.4790    1.0662   -0.0877 H       1  LIG1        0.0619
     22 O           3.7332    3.2625    1.0538 O.3     1  LIG1       -0.5062
     23 H           2.7766    3.1277    1.0775 H       1  LIG1        0.2922
     24 H           6.2054   -0.7852   -1.1489 H       1  LIG1        0.0618
@<TRIPOS>BOND
     1    20    18    1
     2    24    19    1
     3    12     7    1
     4     8     6    1
     5    18    19   ar
     6    18    15   ar
     7    19    16   ar
     8     7     6   ar
     9     7     4   ar
    10     6     3   ar
    11     4    15    1
    12     4     2   ar
    13    15    13   ar
    14     3     9    1
    15     3     1   ar
    16    16    21    1
    17    16    14   ar
    18     2     1   ar
    19     2     5    1
    20     1    10    1
    21    13    14   ar
    22    13    22    1
    23    14    17    1
    24    10    11    1
    25    22    23    1
