@<TRIPOS>MOLECULE
mol_data/opt/m06hf/geoms/mol2/4fa4fa4fa4fa.out
 46 49 0 0 0
SMALL
GASTEIGER

@<TRIPOS>ATOM
      1 C          -0.2897    0.7455    0.7863 C.ar    1  LIG1        0.1174
      2 C           1.0958    0.6634    0.8719 C.ar    1  LIG1       -0.0124
      3 C          -0.9026    1.2684   -0.3515 C.ar    1  LIG1       -0.0201
      4 C           1.8889    1.1057   -0.1894 C.ar    1  LIG1       -0.0110
      5 H           1.5658    0.2492    1.7558 H       1  LIG1        0.0660
      6 C          -0.1111    1.7026   -1.4059 C.ar    1  LIG1       -0.0577
      7 C           1.2778    1.6234   -1.3333 C.ar    1  LIG1       -0.0537
      8 H          -0.5803    2.0995   -2.2968 H       1  LIG1        0.0619
      9 H          -1.9824    1.3168   -0.3853 H       1  LIG1        0.0654
     10 O          -1.1022    0.3282    1.7993 O.3     1  LIG1       -0.5067
     11 H          -0.5739   -0.0137    2.5276 H       1  LIG1        0.2921
     12 H           1.8873    1.9377   -2.1705 H       1  LIG1        0.0624
     13 C           4.0636   -0.0604    0.3876 C.ar    1  LIG1        0.1251
     14 C           5.4534   -0.0912    0.4226 C.ar    1  LIG1       -0.0117
     15 C           3.3786    1.0599   -0.1044 C.ar    1  LIG1        0.0237
     16 C           6.2017    0.9954   -0.0306 C.ar    1  LIG1       -0.0109
     17 H           5.9624   -0.9721    0.7955 H       1  LIG1        0.0660
     18 C           4.1425    2.1403   -0.5476 C.ar    1  LIG1       -0.0500
     19 C           5.5319    2.1182   -0.5194 C.ar    1  LIG1       -0.0531
     20 H           3.6265    3.0187   -0.9147 H       1  LIG1        0.0625
     21 O           3.3290   -1.1225    0.8298 O.3     1  LIG1       -0.5061
     22 H           3.9080   -1.8706    1.0102 H       1  LIG1        0.2922
     23 H           6.0969    2.9619   -0.8934 H       1  LIG1        0.0624
     24 C           8.4450   -0.1294   -0.3661 C.ar    1  LIG1        0.1251
     25 C           9.8348   -0.1040   -0.3292 C.ar    1  LIG1       -0.0117
     26 C           7.6921    0.9845    0.0334 C.ar    1  LIG1        0.0237
     27 C          10.5142    1.0319    0.1118 C.ar    1  LIG1       -0.0109
     28 H          10.3975   -0.9715   -0.6535 H       1  LIG1        0.0660
     29 C           8.3873    2.1118    0.4728 C.ar    1  LIG1       -0.0500
     30 C           9.7763    2.1466    0.5131 C.ar    1  LIG1       -0.0531
     31 H           7.8189    2.9741    0.7985 H       1  LIG1        0.0625
     32 O           7.7761   -1.2399   -0.7927 O.3     1  LIG1       -0.5061
     33 H           8.3975   -1.8739   -1.1658 H       1  LIG1        0.2922
     34 H          10.2883    3.0422    0.8393 H       1  LIG1        0.0624
     35 C          12.8172    0.5581   -0.8261 C.ar    1  LIG1        0.1245
     36 C          14.2050    0.6171   -0.7240 C.ar    1  LIG1       -0.0196
     37 C          12.0038    1.0533    0.2032 C.ar    1  LIG1        0.0237
     38 C          14.8016    1.1641    0.4069 C.ar    1  LIG1       -0.0583
     39 H          14.8160    0.2347   -1.5342 H       1  LIG1        0.0654
     40 C          12.6273    1.5906    1.3308 C.ar    1  LIG1       -0.0505
     41 C          14.0127    1.6509    1.4432 C.ar    1  LIG1       -0.0610
     42 H          12.0027    1.9494    2.1395 H       1  LIG1        0.0625
     43 H          15.8810    1.2025    0.4752 H       1  LIG1        0.0619
     44 O          12.2093    0.0252   -1.9246 O.3     1  LIG1       -0.5062
     45 H          12.8666   -0.2044   -2.5897 H       1  LIG1        0.2922
     46 H          14.4679    2.0676    2.3310 H       1  LIG1        0.0618
@<TRIPOS>BOND
     1    45    44    1
     2     8     6    1
     3    12     7    1
     4    44    35    1
     5    39    36    1
     6     6     7   ar
     7     6     3   ar
     8     7     4   ar
     9    33    32    1
    10    20    18    1
    11    23    19    1
    12    35    36   ar
    13    35    37   ar
    14    32    24    1
    15    36    38   ar
    16    28    25    1
    17    18    19   ar
    18    18    15   ar
    19    19    16   ar
    20     9     3    1
    21    24    25   ar
    22    24    26   ar
    23     3     1   ar
    24    25    27   ar
    25     4    15    1
    26     4     2   ar
    27    15    13   ar
    28    16    26    1
    29    16    14   ar
    30    26    29   ar
    31    27    37    1
    32    27    30   ar
    33    37    40   ar
    34    13    14   ar
    35    13    21    1
    36    38    43    1
    37    38    41   ar
    38    14    17    1
    39    29    30   ar
    40    29    31    1
    41    30    34    1
    42     1     2   ar
    43     1    10    1
    44    21    22    1
    45     2     5    1
    46    40    41   ar
    47    40    42    1
    48    41    46    1
    49    10    11    1
