@<TRIPOS>MOLECULE
mol_data/opt/m06hf/geoms/mol2/4fa4fa4fa-4fa-.out
 46 49 0 0 0
SMALL
GASTEIGER

@<TRIPOS>ATOM
      1 C          -0.2636    0.0880    0.0874 C.ar    1  LIG1        0.1174
      2 C           1.1246    0.0085    0.1048 C.ar    1  LIG1       -0.0124
      3 C          -0.9031    1.3140   -0.0932 C.ar    1  LIG1       -0.0201
      4 C           1.8902    1.1659   -0.0587 C.ar    1  LIG1       -0.0110
      5 H           1.6168   -0.9456    0.2485 H       1  LIG1        0.0660
      6 C          -0.1380    2.4610   -0.2499 C.ar    1  LIG1       -0.0577
      7 C           1.2536    2.3954   -0.2318 C.ar    1  LIG1       -0.0537
      8 H          -0.6288    3.4165   -0.3791 H       1  LIG1        0.0619
      9 H          -1.9842    1.3396   -0.0998 H       1  LIG1        0.0654
     10 O          -1.0554   -1.0101    0.2379 O.3     1  LIG1       -0.5067
     11 H          -0.5182   -1.7928    0.3981 H       1  LIG1        0.2921
     12 H           1.8438    3.2975   -0.3282 H       1  LIG1        0.0624
     13 C           4.1138    0.3427    0.8398 C.ar    1  LIG1        0.1251
     14 C           5.5052    0.3353    0.8122 C.ar    1  LIG1       -0.0117
     15 C           3.3813    1.1002   -0.0881 C.ar    1  LIG1        0.0237
     16 C           6.2035    1.0680   -0.1487 C.ar    1  LIG1       -0.0109
     17 H           6.0581   -0.2309    1.5546 H       1  LIG1        0.0660
     18 C           4.0946    1.8200   -1.0467 C.ar    1  LIG1       -0.0500
     19 C           5.4863    1.8132   -1.0886 C.ar    1  LIG1       -0.0531
     20 H           3.5379    2.3768   -1.7902 H       1  LIG1        0.0625
     21 O           3.4255   -0.3684    1.7737 O.3     1  LIG1       -0.5061
     22 H           4.0299   -0.7429    2.4234 H       1  LIG1        0.2922
     23 H           6.0145    2.3515   -1.8662 H       1  LIG1        0.0624
     24 C           8.4125    2.2513   -0.0901 C.ar    1  LIG1        0.1251
     25 C           9.8069    2.2429   -0.0899 C.ar    1  LIG1       -0.0117
     26 C           7.6964    1.0490   -0.1596 C.ar    1  LIG1        0.0237
     27 C          10.5069    1.0363   -0.1512 C.ar    1  LIG1       -0.0109
     28 H          10.3267    3.1931   -0.0628 H       1  LIG1        0.0660
     29 C           8.4088   -0.1508   -0.2164 C.ar    1  LIG1       -0.0500
     30 C           9.7972   -0.1679   -0.2098 C.ar    1  LIG1       -0.0531
     31 H           7.8537   -1.0792   -0.2766 H       1  LIG1        0.0625
     32 O           7.7996    3.4583   -0.0135 O.3     1  LIG1       -0.5061
     33 H           6.8450    3.3392    0.0807 H       1  LIG1        0.2922
     34 H          10.3373   -1.1046   -0.2423 H       1  LIG1        0.0624
     35 C          12.7036    1.6758    0.8813 C.ar    1  LIG1        0.1245
     36 C          14.0974    1.6756    0.8890 C.ar    1  LIG1       -0.0196
     37 C          12.0010    1.0345   -0.1475 C.ar    1  LIG1        0.0237
     38 C          14.7947    1.0352   -0.1262 C.ar    1  LIG1       -0.0583
     39 H          14.6024    2.1774    1.7029 H       1  LIG1        0.0654
     40 C          12.7216    0.3850   -1.1520 C.ar    1  LIG1       -0.0505
     41 C          14.1111    0.3824   -1.1511 C.ar    1  LIG1       -0.0610
     42 H          12.1724   -0.1026   -1.9483 H       1  LIG1        0.0625
     43 H          15.8770    1.0417   -0.1144 H       1  LIG1        0.0619
     44 O          12.0738    2.3046    1.9084 O.3     1  LIG1       -0.5062
     45 H          11.1220    2.1472    1.8576 H       1  LIG1        0.2922
     46 H          14.6534   -0.1158   -1.9427 H       1  LIG1        0.0618
@<TRIPOS>BOND
     1    42    40    1
     2    46    41    1
     3    23    19    1
     4    20    18    1
     5    40    41   ar
     6    40    37   ar
     7    41    38   ar
     8    19    18   ar
     9    19    16   ar
    10    18    15   ar
    11     8     6    1
    12    12     7    1
    13    31    29    1
    14     6     7   ar
    15     6     3   ar
    16    34    30    1
    17     7     4   ar
    18    29    30   ar
    19    29    26   ar
    20    30    27   ar
    21    26    16    1
    22    26    24   ar
    23    27    37    1
    24    27    25   ar
    25    16    14   ar
    26    37    35   ar
    27    38    43    1
    28    38    36   ar
    29     9     3    1
    30     3     1   ar
    31    24    25   ar
    32    24    32    1
    33    25    28    1
    34    15     4    1
    35    15    13   ar
    36     4     2   ar
    37    32    33    1
    38     1     2   ar
    39     1    10    1
    40     2     5    1
    41    10    11    1
    42    14    13   ar
    43    14    17    1
    44    13    21    1
    45    35    36   ar
    46    35    44    1
    47    36    39    1
    48    21    22    1
    49    45    44    1
