@<TRIPOS>MOLECULE
mol_data/opt/m06hf/geoms/mol2/4fa4fa-4fa.out
 35 37 0 0 0
SMALL
GASTEIGER

@<TRIPOS>ATOM
      1 C          -0.1397    0.1952    0.3007 C.ar    1  LIG1        0.1174
      2 C           1.2504    0.1344    0.3134 C.ar    1  LIG1       -0.0124
      3 C          -0.7930    1.3386   -0.1617 C.ar    1  LIG1       -0.0201
      4 C           2.0023    1.2194   -0.1459 C.ar    1  LIG1       -0.0110
      5 H           1.7609   -0.7451    0.6909 H       1  LIG1        0.0660
      6 C          -0.0440    2.4151   -0.6138 C.ar    1  LIG1       -0.0577
      7 C           1.3505    2.3653   -0.6107 C.ar    1  LIG1       -0.0537
      8 H          -0.5483    3.2995   -0.9806 H       1  LIG1        0.0619
      9 H          -1.8741    1.3546   -0.1550 H       1  LIG1        0.0654
     10 O          -0.9185   -0.8302    0.7388 O.3     1  LIG1       -0.5067
     11 H          -0.3757   -1.5578    1.0598 H       1  LIG1        0.2921
     12 H           1.9335    3.1949   -0.9915 H       1  LIG1        0.0624
     13 C           4.2370    2.1052    0.5679 C.ar    1  LIG1        0.1251
     14 C           5.6275    2.0337    0.5991 C.ar    1  LIG1       -0.0117
     15 C           3.4943    1.1457   -0.1296 C.ar    1  LIG1        0.0237
     16 C           6.2998    1.0117   -0.0680 C.ar    1  LIG1       -0.0109
     17 H           6.1640    2.7747    1.1771 H       1  LIG1        0.0660
     18 C           4.1789    0.1161   -0.7803 C.ar    1  LIG1       -0.0500
     19 C           5.5637    0.0422   -0.7595 C.ar    1  LIG1       -0.0531
     20 H           3.6034   -0.6200   -1.3284 H       1  LIG1        0.0625
     21 O           3.6490    3.1229    1.2514 O.3     1  LIG1       -0.5061
     22 H           2.6901    3.0040    1.2519 H       1  LIG1        0.2922
     23 H           6.0786   -0.7567   -1.2734 H       1  LIG1        0.0624
     24 C           8.5195   -0.1850    0.1434 C.ar    1  LIG1        0.1245
     25 C           9.9123   -0.1667    0.1630 C.ar    1  LIG1       -0.0196
     26 C           7.7931    0.9969   -0.0602 C.ar    1  LIG1        0.0237
     27 C          10.6010    1.0274   -0.0211 C.ar    1  LIG1       -0.0583
     28 H          10.4543   -1.0915    0.3267 H       1  LIG1        0.0654
     29 C           8.5080    2.1812   -0.2479 C.ar    1  LIG1       -0.0505
     30 C           9.8992    2.2093   -0.2294 C.ar    1  LIG1       -0.0610
     31 H           7.9520    3.0927   -0.4294 H       1  LIG1        0.0625
     32 H          11.6830    1.0270   -0.0041 H       1  LIG1        0.0619
     33 O           7.8251   -1.3434    0.3283 O.3     1  LIG1       -0.5062
     34 H           8.4301   -2.0636    0.5336 H       1  LIG1        0.2922
     35 H          10.4253    3.1411   -0.3828 H       1  LIG1        0.0618
@<TRIPOS>BOND
     1    20    18    1
     2    23    19    1
     3    12     7    1
     4     8     6    1
     5    18    19   ar
     6    18    15   ar
     7    19    16   ar
     8     6     7   ar
     9     6     3   ar
    10     7     4   ar
    11    31    29    1
    12    35    30    1
    13    29    30   ar
    14    29    26   ar
    15    30    27   ar
    16     3     9    1
    17     3     1   ar
    18     4    15    1
    19     4     2   ar
    20    15    13   ar
    21    16    26    1
    22    16    14   ar
    23    26    24   ar
    24    27    32    1
    25    27    25   ar
    26    24    25   ar
    27    24    33    1
    28    25    28    1
    29     1     2   ar
    30     1    10    1
    31     2     5    1
    32    33    34    1
    33    13    14   ar
    34    13    21    1
    35    14    17    1
    36    10    11    1
    37    21    22    1
