@<TRIPOS>MOLECULE
mol_data/opt/m06hf/geoms/mol2/4fa4fa4fa-4fa.out
 46 49 0 0 0
SMALL
GASTEIGER

@<TRIPOS>ATOM
      1 C          -0.2767    0.2147   -0.4028 C.ar    1  LIG1        0.1174
      2 C           1.1097    0.1080   -0.3861 C.ar    1  LIG1       -0.0124
      3 C          -0.9028    1.4054   -0.0356 C.ar    1  LIG1       -0.0201
      4 C           1.8877    1.2008    0.0051 C.ar    1  LIG1       -0.0110
      5 H           1.5911   -0.8190   -0.6727 H       1  LIG1        0.0660
      6 C          -0.1260    2.4856    0.3586 C.ar    1  LIG1       -0.0577
      7 C           1.2638    2.3906    0.3831 C.ar    1  LIG1       -0.0537
      8 H          -0.6064    3.4082    0.6567 H       1  LIG1        0.0619
      9 H          -1.9828    1.4529   -0.0602 H       1  LIG1        0.0654
     10 O          -1.0789   -0.8199   -0.7813 O.3     1  LIG1       -0.5067
     11 H          -0.5508   -1.6061   -0.9540 H       1  LIG1        0.2921
     12 H           1.8627    3.2282    0.7159 H       1  LIG1        0.0624
     13 C           4.0818    0.0248    0.4912 C.ar    1  LIG1        0.1251
     14 C           5.4733    0.0039    0.4886 C.ar    1  LIG1       -0.0117
     15 C           3.3788    1.1281   -0.0174 C.ar    1  LIG1        0.0237
     16 C           6.2030    1.0726   -0.0347 C.ar    1  LIG1       -0.0109
     17 H           6.0021   -0.8432    0.9127 H       1  LIG1        0.0660
     18 C           4.1221    2.1858   -0.5408 C.ar    1  LIG1       -0.0500
     19 C           5.5137    2.1711   -0.5571 C.ar    1  LIG1       -0.0531
     20 H           3.5897    3.0260   -0.9688 H       1  LIG1        0.0625
     21 O           3.3625   -1.0135    0.9998 O.3     1  LIG1       -0.5061
     22 H           3.9477   -1.6534    1.4189 H       1  LIG1        0.2922
     23 H           6.0646    2.9894   -1.0048 H       1  LIG1        0.0624
     24 C           8.4339    2.0887    0.4980 C.ar    1  LIG1        0.1251
     25 C           9.8259    2.0548    0.4875 C.ar    1  LIG1       -0.0117
     26 C           7.6949    1.0296   -0.0422 C.ar    1  LIG1        0.0237
     27 C          10.5040    0.9666   -0.0567 C.ar    1  LIG1       -0.0109
     28 H          10.3596    2.8809    0.9391 H       1  LIG1        0.0660
     29 C           8.3872   -0.0648   -0.5675 C.ar    1  LIG1       -0.0500
     30 C           9.7735   -0.1066   -0.5796 C.ar    1  LIG1       -0.0531
     31 H           7.8166   -0.8799   -0.9961 H       1  LIG1        0.0625
     32 O           7.8422    3.1744    1.0649 O.3     1  LIG1       -0.5061
     33 H           6.8925    3.0207    1.1520 H       1  LIG1        0.2922
     34 H          10.2939   -0.9577   -0.9944 H       1  LIG1        0.0624
     35 C          12.7661   -0.1273    0.2463 C.ar    1  LIG1        0.1245
     36 C          14.1575   -0.0684    0.2110 C.ar    1  LIG1       -0.0196
     37 C          11.9961    0.9911   -0.1047 C.ar    1  LIG1        0.0237
     38 C          14.8000    1.1023   -0.1776 C.ar    1  LIG1       -0.0583
     39 H          14.7350   -0.9421    0.4925 H       1  LIG1        0.0654
     40 C          12.6648    2.1520   -0.4965 C.ar    1  LIG1       -0.0505
     41 C          14.0541    2.2199   -0.5354 C.ar    1  LIG1       -0.0610
     42 H          12.0728    3.0095   -0.7919 H       1  LIG1        0.0625
     43 H          15.8814    1.1336   -0.2027 H       1  LIG1        0.0619
     44 O          12.1146   -1.2611    0.6314 O.3     1  LIG1       -0.5062
     45 H          12.7500   -1.9354    0.8929 H       1  LIG1        0.2922
     46 H          14.5447    3.1313   -0.8476 H       1  LIG1        0.0618
@<TRIPOS>BOND
     1    23    19    1
     2    31    29    1
     3    34    30    1
     4    20    18    1
     5    11    10    1
     6    46    41    1
     7    42    40    1
     8    10     1    1
     9     5     2    1
    10    30    29   ar
    11    30    27   ar
    12    29    26   ar
    13    19    18   ar
    14    19    16   ar
    15    18    15   ar
    16    41    40   ar
    17    41    38   ar
    18    40    37   ar
    19     1     2   ar
    20     1     3   ar
    21     2     4   ar
    22    43    38    1
    23    38    36   ar
    24    37    27    1
    25    37    35   ar
    26     9     3    1
    27    27    25   ar
    28    26    16    1
    29    26    24   ar
    30     3     6   ar
    31    16    14   ar
    32    15     4    1
    33    15    13   ar
    34     4     7   ar
    35    36    35   ar
    36    36    39    1
    37    35    44    1
    38     6     7   ar
    39     6     8    1
    40     7    12    1
    41    25    24   ar
    42    25    28    1
    43    14    13   ar
    44    14    17    1
    45    13    21    1
    46    24    32    1
    47    44    45    1
    48    21    22    1
    49    32    33    1
