@<TRIPOS>MOLECULE
mol_data/opt/m06hf/geoms/mol2/4fa4fa.out
 24 25 0 0 0
SMALL
GASTEIGER

@<TRIPOS>ATOM
      1 C          -0.0302    0.1483    0.3662 C.ar    1  LIG1        0.1174
      2 C           1.3587    0.0956    0.4047 C.ar    1  LIG1       -0.0124
      3 C          -0.6853    1.2796   -0.1189 C.ar    1  LIG1       -0.0201
      4 C           2.1114    1.1824   -0.0466 C.ar    1  LIG1       -0.0110
      5 H           1.8635   -0.7877    0.7772 H       1  LIG1        0.0660
      6 C           0.0666    2.3549   -0.5715 C.ar    1  LIG1       -0.0577
      7 C           1.4590    2.3131   -0.5406 C.ar    1  LIG1       -0.0537
      8 H          -0.4360    3.2310   -0.9597 H       1  LIG1        0.0619
      9 H          -1.7666    1.2872   -0.1365 H       1  LIG1        0.0654
     10 O          -0.8067   -0.8864    0.7971 O.3     1  LIG1       -0.5067
     11 H          -0.2537   -1.6150    1.0969 H       1  LIG1        0.2921
     12 H           2.0401    3.1442   -0.9179 H       1  LIG1        0.0624
     13 C           4.3485    0.0479   -0.3840 C.ar    1  LIG1        0.1245
     14 C           5.7401    0.0644   -0.3247 C.ar    1  LIG1       -0.0196
     15 C           3.6026    1.1614    0.0288 C.ar    1  LIG1        0.0237
     16 C           6.4075    1.1880    0.1510 C.ar    1  LIG1       -0.0583
     17 H           6.2981   -0.8055   -0.6529 H       1  LIG1        0.0654
     18 C           4.2962    2.2737    0.5081 C.ar    1  LIG1       -0.0505
     19 C           5.6862    2.2994    0.5720 C.ar    1  LIG1       -0.0610
     20 H           3.7225    3.1255    0.8518 H       1  LIG1        0.0625
     21 H           7.4889    1.1867    0.1952 H       1  LIG1        0.0619
     22 O           3.6718   -1.0423   -0.8466 O.3     1  LIG1       -0.5062
     23 H           4.2883   -1.6959   -1.1928 H       1  LIG1        0.2922
     24 H           6.1959    3.1737    0.9526 H       1  LIG1        0.0618
@<TRIPOS>BOND
     1    23    22    1
     2     8     6    1
     3    12     7    1
     4    22    13    1
     5    17    14    1
     6     6     7   ar
     7     6     3   ar
     8     7     4   ar
     9    13    14   ar
    10    13    15   ar
    11    14    16   ar
    12     9     3    1
    13     3     1   ar
    14     4    15    1
    15     4     2   ar
    16    15    18   ar
    17    16    21    1
    18    16    19   ar
    19     1     2   ar
    20     1    10    1
    21     2     5    1
    22    18    19   ar
    23    18    20    1
    24    19    24    1
    25    10    11    1
