@<TRIPOS>MOLECULE
mol_data/opt/m06hf/geoms/mol2/4fa4fa-4fa4fa-.out
 46 49 0 0 0
SMALL
GASTEIGER

@<TRIPOS>ATOM
      1 C          -0.2515    0.2479    0.3977 C.ar    1  LIG1        0.1174
      2 C           1.1383    0.1840    0.4139 C.ar    1  LIG1       -0.0124
      3 C          -0.9025    1.3477   -0.1636 C.ar    1  LIG1       -0.0201
      4 C           1.8944    1.2174   -0.1467 C.ar    1  LIG1       -0.0110
      5 H           1.6442   -0.6574    0.8749 H       1  LIG1        0.0660
      6 C          -0.1500    2.3734   -0.7161 C.ar    1  LIG1       -0.0577
      7 C           1.2442    2.3164   -0.7169 C.ar    1  LIG1       -0.0537
      8 H          -0.6512    3.2228   -1.1612 H       1  LIG1        0.0619
      9 H          -1.9835    1.3699   -0.1535 H       1  LIG1        0.0654
     10 O          -1.0315   -0.7308    0.9290 O.3     1  LIG1       -0.5067
     11 H          -0.4902   -1.4438    1.2831 H       1  LIG1        0.2921
     12 H           1.8267    3.1020   -1.1828 H       1  LIG1        0.0624
     13 C           4.1477    2.1920    0.3795 C.ar    1  LIG1        0.1251
     14 C           5.5383    2.1136    0.3983 C.ar    1  LIG1       -0.0117
     15 C           3.3854    1.1345   -0.1310 C.ar    1  LIG1        0.0237
     16 C           6.1887    0.9804   -0.0832 C.ar    1  LIG1       -0.0109
     17 H           6.0908    2.9415    0.8236 H       1  LIG1        0.0660
     18 C           4.0514   -0.0022   -0.5974 C.ar    1  LIG1       -0.0500
     19 C           5.4354   -0.0902   -0.5772 C.ar    1  LIG1       -0.0531
     20 H           3.4624   -0.8157   -1.0031 H       1  LIG1        0.0625
     21 O           3.5821    3.3191    0.8871 O.3     1  LIG1       -0.5061
     22 H           2.6254    3.2018    0.9570 H       1  LIG1        0.2922
     23 H           5.9367   -0.9747   -0.9434 H       1  LIG1        0.0624
     24 C           8.3973   -0.1678    0.3665 C.ar    1  LIG1        0.1251
     25 C           9.7887   -0.1653    0.3727 C.ar    1  LIG1       -0.0117
     26 C           7.6808    0.9475   -0.0948 C.ar    1  LIG1        0.0237
     27 C          10.5023    0.9381   -0.0987 C.ar    1  LIG1       -0.0109
     28 H          10.3294   -1.0215    0.7622 H       1  LIG1        0.0660
     29 C           8.4065    2.0426   -0.5606 C.ar    1  LIG1       -0.0500
     30 C           9.7988    2.0494   -0.5725 C.ar    1  LIG1       -0.0531
     31 H           7.8610    2.8950   -0.9464 H       1  LIG1        0.0625
     32 O           7.6878   -1.2354    0.8215 O.3     1  LIG1       -0.5061
     33 H           8.2783   -1.9040    1.1850 H       1  LIG1        0.2922
     34 H          10.3383    2.8961   -0.9792 H       1  LIG1        0.0624
     35 C          12.7193    1.9602    0.4880 C.ar    1  LIG1        0.1245
     36 C          14.1129    1.9446    0.4803 C.ar    1  LIG1       -0.0196
     37 C          11.9956    0.9148   -0.1022 C.ar    1  LIG1        0.0237
     38 C          14.7908    0.8847   -0.1063 C.ar    1  LIG1       -0.0583
     39 H          14.6338    2.7687    0.9483 H       1  LIG1        0.0654
     40 C          12.6978   -0.1471   -0.6772 C.ar    1  LIG1       -0.0505
     41 C          14.0868   -0.1709   -0.6844 C.ar    1  LIG1       -0.0610
     42 H          12.1341   -0.9472   -1.1420 H       1  LIG1        0.0625
     43 H          15.8731    0.8810   -0.1087 H       1  LIG1        0.0619
     44 O          12.1108    3.0125    1.0953 O.3     1  LIG1       -0.5062
     45 H          11.1611    2.8490    1.1647 H       1  LIG1        0.2922
     46 H          14.6134   -0.9968   -1.1424 H       1  LIG1        0.0618
@<TRIPOS>BOND
     1    12     7    1
     2     8     6    1
     3    46    41    1
     4    42    40    1
     5    20    18    1
     6    34    30    1
     7    31    29    1
     8    23    19    1
     9     7     6   ar
    10     7     4   ar
    11     6     3   ar
    12    41    40   ar
    13    41    38   ar
    14    40    37   ar
    15    18    19   ar
    16    18    15   ar
    17    19    16   ar
    18    30    29   ar
    19    30    27   ar
    20    29    26   ar
    21     3     9    1
    22     3     1   ar
    23     4    15    1
    24     4     2   ar
    25    15    13   ar
    26    43    38    1
    27    38    36   ar
    28    37    27    1
    29    37    35   ar
    30    27    25   ar
    31    26    16    1
    32    26    24   ar
    33    16    14   ar
    34    24    25   ar
    35    24    32    1
    36    25    28    1
    37    13    14   ar
    38    13    21    1
    39     1     2   ar
    40     1    10    1
    41    14    17    1
    42     2     5    1
    43    36    35   ar
    44    36    39    1
    45    35    44    1
    46    32    33    1
    47    21    22    1
    48    10    11    1
    49    44    45    1
