@<TRIPOS>MOLECULE
mol_data/opt/m06hf/geoms/mol2/4fa4fa-4fa4fa.out
 46 49 0 0 0
SMALL
GASTEIGER

@<TRIPOS>ATOM
      1 C          -0.2740    0.2921    0.3447 C.ar    1  LIG1        0.1174
      2 C           1.1141    0.2080    0.3872 C.ar    1  LIG1       -0.0124
      3 C          -0.8983    1.4073   -0.2164 C.ar    1  LIG1       -0.0201
      4 C           1.8959    1.2367   -0.1458 C.ar    1  LIG1       -0.0110
      5 H           1.5994   -0.6460    0.8477 H       1  LIG1        0.0660
      6 C          -0.1206    2.4285   -0.7417 C.ar    1  LIG1       -0.0577
      7 C           1.2723    2.3515   -0.7155 C.ar    1  LIG1       -0.0537
      8 H          -0.6009    3.2900   -1.1869 H       1  LIG1        0.0619
      9 H          -1.9789    1.4446   -0.2278 H       1  LIG1        0.0654
     10 O          -1.0786   -0.6814    0.8494 O.3     1  LIG1       -0.5067
     11 H          -0.5542   -1.4051    1.2075 H       1  LIG1        0.2921
     12 H           1.8756    3.1341   -1.1593 H       1  LIG1        0.0624
     13 C           4.1503    2.1728    0.4410 C.ar    1  LIG1        0.1251
     14 C           5.5391    2.0781    0.4825 C.ar    1  LIG1       -0.0117
     15 C           3.3851    1.1343   -0.1025 C.ar    1  LIG1        0.0237
     16 C           6.1873    0.9492   -0.0130 C.ar    1  LIG1       -0.0109
     17 H           6.0930    2.8905    0.9343 H       1  LIG1        0.0660
     18 C           4.0471   -0.0003   -0.5800 C.ar    1  LIG1       -0.0500
     19 C           5.4295   -0.1027   -0.5406 C.ar    1  LIG1       -0.0531
     20 H           3.4564   -0.7997   -1.0110 H       1  LIG1        0.0625
     21 O           3.5874    3.2972    0.9605 O.3     1  LIG1       -0.5061
     22 H           2.6281    3.1908    1.0068 H       1  LIG1        0.2922
     23 H           5.9272   -0.9844   -0.9181 H       1  LIG1        0.0624
     24 C           8.3869   -0.2350    0.3999 C.ar    1  LIG1        0.1251
     25 C           9.7777   -0.2460    0.4093 C.ar    1  LIG1       -0.0117
     26 C           7.6791    0.9053   -0.0060 C.ar    1  LIG1        0.0237
     27 C          10.5005    0.8779    0.0085 C.ar    1  LIG1       -0.0109
     28 H          10.3064   -1.1360    0.7295 H       1  LIG1        0.0660
     29 C           8.4169    2.0183   -0.4098 C.ar    1  LIG1       -0.0500
     30 C           9.8071    2.0151   -0.4083 C.ar    1  LIG1       -0.0531
     31 H           7.8811    2.8930   -0.7572 H       1  LIG1        0.0625
     32 O           7.6727   -1.3258    0.7993 O.3     1  LIG1       -0.5061
     33 H           8.2722   -2.0317    1.0625 H       1  LIG1        0.2922
     34 H          10.3535    2.8812   -0.7577 H       1  LIG1        0.0624
     35 C          12.7545   -0.1812   -0.4434 C.ar    1  LIG1        0.1245
     36 C          14.1463   -0.1247   -0.4314 C.ar    1  LIG1       -0.0196
     37 C          11.9925    0.8896    0.0452 C.ar    1  LIG1        0.0237
     38 C          14.7982    0.9960    0.0716 C.ar    1  LIG1       -0.0583
     39 H          14.7168   -0.9619   -0.8180 H       1  LIG1        0.0654
     40 C          12.6709    1.9989    0.5534 C.ar    1  LIG1       -0.0505
     41 C          14.0607    2.0636    0.5712 C.ar    1  LIG1       -0.0610
     42 H          12.0856    2.8169    0.9547 H       1  LIG1        0.0625
     43 H          15.8799    1.0269    0.0762 H       1  LIG1        0.0619
     44 O          12.0954   -1.2716   -0.9310 O.3     1  LIG1       -0.5062
     45 H          12.7162   -1.8700   -1.3595 H       1  LIG1        0.2922
     46 H          14.5586    2.9342    0.9747 H       1  LIG1        0.0618
@<TRIPOS>BOND
     1    45    44    1
     2     8     6    1
     3    12     7    1
     4    20    18    1
     5    44    35    1
     6    23    19    1
     7    39    36    1
     8    34    30    1
     9    31    29    1
    10     6     7   ar
    11     6     3   ar
    12     7     4   ar
    13    18    19   ar
    14    18    15   ar
    15    19    16   ar
    16    35    36   ar
    17    35    37   ar
    18    36    38   ar
    19    29    30   ar
    20    29    26   ar
    21    30    27   ar
    22     9     3    1
    23     3     1   ar
    24     4    15    1
    25     4     2   ar
    26    15    13   ar
    27    16    26    1
    28    16    14   ar
    29    26    24   ar
    30    27    37    1
    31    27    25   ar
    32    37    40   ar
    33    38    43    1
    34    38    41   ar
    35     1     2   ar
    36     1    10    1
    37     2     5    1
    38    24    25   ar
    39    24    32    1
    40    25    28    1
    41    13    14   ar
    42    13    21    1
    43    14    17    1
    44    40    41   ar
    45    40    42    1
    46    41    46    1
    47    32    33    1
    48    10    11    1
    49    21    22    1
