@<TRIPOS>MOLECULE
mol_data/opt/m06hf/geoms/mol2/4fa4fa4fa4fa-.out
 46 49 0 0 0
SMALL
GASTEIGER

@<TRIPOS>ATOM
      1 C          -0.2426    0.7470    0.9006 C.ar    1  LIG1        0.1174
      2 C           1.1464    0.6893    0.9324 C.ar    1  LIG1       -0.0124
      3 C          -0.9094    1.2023   -0.2361 C.ar    1  LIG1       -0.0201
      4 C           1.8871    1.0876   -0.1832 C.ar    1  LIG1       -0.0110
      5 H           1.6594    0.3284    1.8155 H       1  LIG1        0.0660
      6 C          -0.1697    1.5933   -1.3435 C.ar    1  LIG1       -0.0577
      7 C           1.2225    1.5372   -1.3255 C.ar    1  LIG1       -0.0537
      8 H          -0.6815    1.9372   -2.2326 H       1  LIG1        0.0619
      9 H          -1.9903    1.2336   -0.2269 H       1  LIG1        0.0654
     10 O          -1.0076    0.3689    1.9638 O.3     1  LIG1       -0.5067
     11 H          -0.4474    0.0616    2.6836 H       1  LIG1        0.2921
     12 H           1.7919    1.8172   -2.2022 H       1  LIG1        0.0624
     13 C           4.1005   -0.0193    0.3604 C.ar    1  LIG1        0.1251
     14 C           5.4910   -0.0232    0.3522 C.ar    1  LIG1       -0.0117
     15 C           3.3796    1.0684   -0.1540 C.ar    1  LIG1        0.0237
     16 C           6.2017    1.0599   -0.1653 C.ar    1  LIG1       -0.0109
     17 H           6.0294   -0.8780    0.7443 H       1  LIG1        0.0660
     18 C           4.1072    2.1433   -0.6658 C.ar    1  LIG1       -0.0500
     19 C           5.4975    2.1493   -0.6788 C.ar    1  LIG1       -0.0531
     20 H           3.5624    2.9961   -1.0510 H       1  LIG1        0.0625
     21 O           3.4005   -1.0729    0.8709 O.3     1  LIG1       -0.5061
     22 H           3.9975   -1.8024    1.0682 H       1  LIG1        0.2922
     23 H           6.0346    2.9889   -1.1002 H       1  LIG1        0.0624
     24 C           8.4619   -0.0267   -0.5192 C.ar    1  LIG1        0.1251
     25 C           9.8523    0.0258   -0.4912 C.ar    1  LIG1       -0.0117
     26 C           7.6936    1.0831   -0.1324 C.ar    1  LIG1        0.0237
     27 C          10.5137    1.1853   -0.0834 C.ar    1  LIG1       -0.0109
     28 H          10.4333   -0.8455   -0.7746 H       1  LIG1        0.0660
     29 C           8.3694    2.2314    0.2796 C.ar    1  LIG1       -0.0500
     30 C           9.7600    2.2965    0.3048 C.ar    1  LIG1       -0.0531
     31 H           7.7859    3.0875    0.5944 H       1  LIG1        0.0625
     32 O           7.8056   -1.1520   -0.9138 O.3     1  LIG1       -0.5061
     33 H           8.4291   -1.8098   -1.2393 H       1  LIG1        0.2922
     34 H          10.2614    3.2085    0.6047 H       1  LIG1        0.0624
     35 C          12.6715    1.5283    1.1431 C.ar    1  LIG1        0.1245
     36 C          14.0643    1.5598    1.1853 C.ar    1  LIG1       -0.0196
     37 C          12.0068    1.2222   -0.0519 C.ar    1  LIG1        0.0237
     38 C          14.7978    1.2866    0.0388 C.ar    1  LIG1       -0.0583
     39 H          14.5410    1.7934    2.1273 H       1  LIG1        0.0654
     40 C          12.7632    0.9393   -1.1912 C.ar    1  LIG1       -0.0505
     41 C          14.1519    0.9723   -1.1566 C.ar    1  LIG1       -0.0610
     42 H          12.2424    0.7131   -2.1138 H       1  LIG1        0.0625
     43 H          15.8789    1.3162    0.0796 H       1  LIG1        0.0619
     44 O          12.0037    1.7913    2.2968 O.3     1  LIG1       -0.5062
     45 H          11.0587    1.6329    2.1736 H       1  LIG1        0.2922
     46 H          14.7230    0.7617   -2.0504 H       1  LIG1        0.0618
@<TRIPOS>BOND
     1     8     6    1
     2    12     7    1
     3    42    40    1
     4    46    41    1
     5     6     7   ar
     6     6     3   ar
     7     7     4   ar
     8    33    32    1
     9    40    41   ar
    10    40    37   ar
    11    41    38   ar
    12    23    19    1
    13    20    18    1
    14    32    24    1
    15    28    25    1
    16    19    18   ar
    17    19    16   ar
    18    18    15   ar
    19    24    25   ar
    20    24    26   ar
    21    25    27   ar
    22     3     9    1
    23     3     1   ar
    24     4    15    1
    25     4     2   ar
    26    16    26    1
    27    16    14   ar
    28    15    13   ar
    29    26    29   ar
    30    27    37    1
    31    27    30   ar
    32    37    35   ar
    33    38    43    1
    34    38    36   ar
    35    29    30   ar
    36    29    31    1
    37    30    34    1
    38    14    13   ar
    39    14    17    1
    40    13    21    1
    41    21    22    1
    42     1     2   ar
    43     1    10    1
    44     2     5    1
    45    35    36   ar
    46    35    44    1
    47    36    39    1
    48    10    11    1
    49    45    44    1
