@<TRIPOS>MOLECULE
mol_data/opt/m06hf/geoms/mol2/4fa4fa-4fa-4fa.out
 46 49 0 0 0
SMALL
GASTEIGER

@<TRIPOS>ATOM
      1 C          -0.2474    0.6281    0.8112 C.ar    1  LIG1        0.1174
      2 C           1.1426    0.5656    0.8419 C.ar    1  LIG1       -0.0124
      3 C          -0.9019    1.3061   -0.2186 C.ar    1  LIG1       -0.0201
      4 C           1.8912    1.1746   -0.1688 C.ar    1  LIG1       -0.0110
      5 H           1.6533    0.0582    1.6531 H       1  LIG1        0.0660
      6 C          -0.1554    1.9122   -1.2179 C.ar    1  LIG1       -0.0577
      7 C           1.2386    1.8502   -1.2038 C.ar    1  LIG1       -0.0537
      8 H          -0.6608    2.4292   -2.0230 H       1  LIG1        0.0619
      9 H          -1.9827    1.3390   -0.2099 H       1  LIG1        0.0654
     10 O          -1.0251    0.0531    1.7658 O.3     1  LIG1       -0.5067
     11 H          -0.4851   -0.3827    2.4332 H       1  LIG1        0.2921
     12 H           1.8188    2.2950   -2.0032 H       1  LIG1        0.0624
     13 C           4.1423    2.2791   -0.1417 C.ar    1  LIG1        0.1251
     14 C           5.5354    2.2215   -0.1210 C.ar    1  LIG1       -0.0117
     15 C           3.3834    1.1013   -0.1366 C.ar    1  LIG1        0.0237
     16 C           6.1905    0.9886   -0.0857 C.ar    1  LIG1       -0.0109
     17 H           6.0900    3.1513   -0.1597 H       1  LIG1        0.0660
     18 C           4.0504   -0.1244   -0.0927 C.ar    1  LIG1       -0.0500
     19 C           5.4370   -0.1905   -0.0645 C.ar    1  LIG1       -0.0531
     20 H           3.4615   -1.0335   -0.0930 H       1  LIG1        0.0625
     21 O           3.5703    3.5085   -0.1629 O.3     1  LIG1       -0.5061
     22 H           2.6096    3.4260   -0.0936 H       1  LIG1        0.2922
     23 H           5.9426   -1.1457   -0.0195 H       1  LIG1        0.0624
     24 C           8.4148    1.6302    0.8919 C.ar    1  LIG1        0.1251
     25 C           9.8060    1.5658    0.9048 C.ar    1  LIG1       -0.0117
     26 C           7.6825    0.9281   -0.0722 C.ar    1  LIG1        0.0237
     27 C          10.4889    0.8044   -0.0409 C.ar    1  LIG1       -0.0109
     28 H          10.3343    2.0995    1.6841 H       1  LIG1        0.0660
     29 C           8.3788    0.1515   -1.0027 C.ar    1  LIG1       -0.0500
     30 C           9.7640    0.0844   -0.9975 C.ar    1  LIG1       -0.0531
     31 H           7.8117   -0.3846   -1.7538 H       1  LIG1        0.0625
     32 O           7.8187    2.3823    1.8557 O.3     1  LIG1       -0.5061
     33 H           6.8618    2.2545    1.8270 H       1  LIG1        0.2922
     34 H          10.2890   -0.5154   -1.7271 H       1  LIG1        0.0624
     35 C          12.7249   -0.3726   -0.1888 C.ar    1  LIG1        0.1245
     36 C          14.1174   -0.3409   -0.1676 C.ar    1  LIG1       -0.0196
     37 C          11.9820    0.8073   -0.0364 C.ar    1  LIG1        0.0237
     38 C          14.7888    0.8651    0.0019 C.ar    1  LIG1       -0.0583
     39 H          14.6729   -1.2654   -0.2816 H       1  LIG1        0.0654
     40 C          12.6797    2.0047    0.1287 C.ar    1  LIG1       -0.0505
     41 C          14.0706    2.0463    0.1505 C.ar    1  LIG1       -0.0610
     42 H          12.1098    2.9210    0.2228 H       1  LIG1        0.0625
     43 H          15.8709    0.8757    0.0148 H       1  LIG1        0.0619
     44 O          12.0456   -1.5437   -0.3479 O.3     1  LIG1       -0.5062
     45 H          12.6626   -2.2813   -0.3927 H       1  LIG1        0.2922
     46 H          14.5839    2.9896    0.2749 H       1  LIG1        0.0618
@<TRIPOS>BOND
     1     8     6    1
     2    12     7    1
     3    31    29    1
     4    34    30    1
     5     6     7   ar
     6     6     3   ar
     7     7     4   ar
     8    29    30   ar
     9    29    26   ar
    10    30    27   ar
    11    45    44    1
    12    44    35    1
    13    39    36    1
    14     3     9    1
    15     3     1   ar
    16    35    36   ar
    17    35    37   ar
    18     4    15    1
    19     4     2   ar
    20    36    38   ar
    21    21    13    1
    22    21    22    1
    23    17    14    1
    24    13    15   ar
    25    13    14   ar
    26    15    18   ar
    27    14    16   ar
    28    20    18    1
    29    18    19   ar
    30    16    26    1
    31    16    19   ar
    32    26    24   ar
    33    19    23    1
    34    27    37    1
    35    27    25   ar
    36    37    40   ar
    37    38    43    1
    38    38    41   ar
    39    40    41   ar
    40    40    42    1
    41    41    46    1
    42     1     2   ar
    43     1    10    1
    44     2     5    1
    45    24    25   ar
    46    24    32    1
    47    25    28    1
    48    10    11    1
    49    33    32    1
