@<TRIPOS>MOLECULE
mol_data/opt/m06hf/geoms/mol2/4fd12id-13lh-4lf-.out
 54 57 0 0 0
SMALL
GASTEIGER

@<TRIPOS>ATOM
      1 C          -0.2319    0.3651    0.8851 C.ar    1  LIG1        0.1176
      2 C           1.1495    0.2157    0.7962 C.ar    1  LIG1       -0.0083
      3 C          -0.8446    1.5624    0.5077 C.ar    1  LIG1       -0.0189
      4 C           1.9479    1.2534    0.3113 C.ar    1  LIG1        0.0384
      5 H           1.6142   -0.7001    1.1377 H       1  LIG1        0.0661
      6 C          -0.0602    2.6018    0.0468 C.ar    1  LIG1       -0.0402
      7 C           1.3289    2.4610   -0.0590 C.ar    1  LIG1        0.0626
      8 H          -0.5133    3.5405   -0.2418 H       1  LIG1        0.0632
      9 H          -1.9179    1.6519    0.5960 H       1  LIG1        0.0654
     10 O          -1.0376   -0.6145    1.3497 O.3     1  LIG1       -0.5067
     11 H          -0.5394   -1.4070    1.5764 H       1  LIG1        0.2921
     12 N           2.5704    4.5622   -0.9449 N.1     1  LIG1       -0.1908
     13 C           2.0605    3.6088   -0.5558 C.1     1  LIG1        0.0999
     14 C           3.3975    1.0607    0.2134 C.ar    1  LIG1        0.1413
     15 C           4.2086   -0.0316    0.1350 C.ar    1  LIG1        0.0134
     16 C           5.5475    0.5010    0.0349 C.ar    1  LIG1        0.1025
     17 C           5.4430    1.8696    0.0438 C.ar    1  LIG1        0.1730
     18 O           4.1472    2.1916    0.1649 O.2     1  LIG1       -0.4516
     19 C           3.8696   -1.4998    0.0979 C.3     1  LIG1       -0.0349
     20 H           4.6872   -2.0414   -0.3763 H       1  LIG1        0.0279
     21 H           2.9567   -1.6668   -0.4740 H       1  LIG1        0.0279
     22 H           3.7434   -1.8937    1.1084 H       1  LIG1        0.0279
     23 N           7.6092   -1.0244   -0.2212 N.1     1  LIG1       -0.1907
     24 C           6.7226   -0.3045   -0.0988 C.1     1  LIG1        0.1033
     25 C           6.3271    3.0004   -0.0769 C.ar    1  LIG1        0.1279
     26 C           7.7059    3.1246   -0.1144 C.ar    1  LIG1        0.1695
     27 C           8.0208    4.5050   -0.2045 C.ar    1  LIG1        0.0933
     28 C           6.8022    5.1891   -0.2351 C.ar    1  LIG1        0.0752
     29 N           5.8047    4.2534   -0.1469 N.ar    1  LIG1       -0.3472
     30 H           4.8158    4.4612   -0.0850 H       1  LIG1        0.1662
     31 O           8.6095    2.1073   -0.0926 O.3     1  LIG1       -0.4910
     32 C           8.9961    1.6559   -1.3930 C.3     1  LIG1        0.0790
     33 H           9.6575    0.8082   -1.2362 H       1  LIG1        0.0660
     34 H           8.1182    1.3392   -1.9583 H       1  LIG1        0.0660
     35 H           9.5100    2.4533   -1.9348 H       1  LIG1        0.0660
     36 N           9.3222    4.9909   -0.1891 N.pl3   1  LIG1       -0.3535
     37 H          10.0089    4.3608   -0.5742 H       1  LIG1        0.1425
     38 H           9.4251    5.9628   -0.4448 H       1  LIG1        0.1425
     39 C           7.2199    7.6817   -0.0301 C.ar    1  LIG1        0.1295
     40 C           6.7757    8.9893   -0.2090 C.ar    1  LIG1       -0.0159
     41 C           6.4189    6.6023   -0.4171 C.ar    1  LIG1        0.0453
     42 C           5.5278    9.2542   -0.7537 C.ar    1  LIG1       -0.0167
     43 H           7.4345    9.7905    0.0997 H       1  LIG1        0.0655
     44 C           5.1690    6.8792   -0.9885 C.ar    1  LIG1       -0.0075
     45 C           4.7184    8.1842   -1.1341 C.ar    1  LIG1        0.1177
     46 H           4.5434    6.0706   -1.3480 H       1  LIG1        0.0662
     47 H           5.1652   10.2632   -0.8904 H       1  LIG1        0.0655
     48 O           8.4661    7.4869    0.5211 O.3     1  LIG1       -0.4944
     49 C           8.4400    7.1079    1.9003 C.3     1  LIG1        0.0788
     50 H           9.4748    6.9498    2.1910 H       1  LIG1        0.0660
     51 H           7.9906    7.9109    2.4879 H       1  LIG1        0.0660
     52 H           7.8772    6.1817    2.0269 H       1  LIG1        0.0660
     53 O           3.4955    8.4628   -1.6648 O.3     1  LIG1       -0.5067
     54 H           2.9964    7.6469   -1.7900 H       1  LIG1        0.2921
@<TRIPOS>BOND
     1    34    32    1
     2    35    32    1
     3    54    53    1
     4    53    45    1
     5    32    33    1
     6    32    31    1
     7    46    44    1
     8    45    44   ar
     9    45    42   ar
    10    44    41   ar
    11    12    13    3
    12    47    42    1
    13    42    40   ar
    14    37    36    1
    15    13     7    1
    16    21    19    1
    17    38    36    1
    18    41    28    1
    19    41    39   ar
    20    20    19    1
    21     8     6    1
    22    28    27   ar
    23    28    29   ar
    24    23    24    3
    25    40    39   ar
    26    40    43    1
    27    27    36    1
    28    27    26   ar
    29    29    30    1
    30    29    25   ar
    31    26    31    1
    32    26    25   ar
    33    24    16    1
    34    25    17    1
    35     7     6   ar
    36     7     4   ar
    37    39    48    1
    38    16    17   ar
    39    16    15   ar
    40    17    18   ar
    41     6     3   ar
    42    19    15    1
    43    19    22    1
    44    15    14   ar
    45    18    14   ar
    46    14     4    1
    47     4     2   ar
    48     3     9    1
    49     3     1   ar
    50    48    49    1
    51     2     1   ar
    52     2     5    1
    53     1    10    1
    54    10    11    1
    55    49    52    1
    56    49    50    1
    57    49    51    1
