@<TRIPOS>MOLECULE
mol_data/opt/m06hf/geoms/mol2/4fd12ei6ff6ii-.out
 52 55 0 0 0
SMALL
GASTEIGER

@<TRIPOS>ATOM
      1 C          -0.0506   -0.3610    0.2974 C.ar    1  LIG1        0.1176
      2 C           1.3317   -0.2233    0.2245 C.ar    1  LIG1       -0.0082
      3 C          -0.8876    0.7516    0.1866 C.ar    1  LIG1       -0.0189
      4 C           1.9101    1.0336    0.0360 C.ar    1  LIG1        0.0393
      5 H           1.9671   -1.0947    0.3192 H       1  LIG1        0.0661
      6 C          -0.3220    1.9989    0.0071 C.ar    1  LIG1       -0.0402
      7 C           1.0673    2.1530   -0.0697 C.ar    1  LIG1        0.0627
      8 H          -0.9468    2.8776   -0.0770 H       1  LIG1        0.0632
      9 H          -1.9574    0.6115    0.2491 H       1  LIG1        0.0654
     10 O          -0.6453   -1.5613    0.4823 O.3     1  LIG1       -0.5067
     11 H           0.0076   -2.2647    0.5667 H       1  LIG1        0.2921
     12 N           1.8963    4.5914   -0.3805 N.1     1  LIG1       -0.1908
     13 C           1.5607    3.5007   -0.2495 C.1     1  LIG1        0.0999
     14 C           3.3738    1.1390   -0.0394 C.ar    1  LIG1        0.1526
     15 C           4.3864    0.2161   -0.0955 C.ar    1  LIG1        0.0739
     16 C           5.6267    0.9532   -0.1421 C.ar    1  LIG1        0.0115
     17 C           5.2651    2.2661   -0.1267 C.ar    1  LIG1        0.1450
     18 O           3.9147    2.3703   -0.0593 O.2     1  LIG1       -0.4531
     19 C           4.3105   -1.2136   -0.1064 C.1     1  LIG1       -0.0656
     20 C           4.3106   -2.4162   -0.1192 C.1     1  LIG1       -0.1138
     21 H           4.3205   -3.4819   -0.1388 H       1  LIG1        0.1232
     22 C           7.0010    0.3392   -0.1579 C.3     1  LIG1       -0.0349
     23 H           7.7272    1.0314    0.2666 H       1  LIG1        0.0279
     24 H           7.3010    0.0844   -1.1760 H       1  LIG1        0.0279
     25 H           6.9899   -0.5756    0.4342 H       1  LIG1        0.0279
     26 C           5.6714    4.6699    0.5378 C.ar    1  LIG1        0.2240
     27 C           6.0506    3.5057   -0.1706 C.ar    1  LIG1        0.0823
     28 C           7.2335    3.5458   -0.8994 C.ar    1  LIG1       -0.0022
     29 C           8.0327    4.6814   -0.8536 C.ar    1  LIG1        0.1437
     30 C           7.6091    5.7535   -0.0634 C.ar    1  LIG1        0.1178
     31 N           6.4454    5.7337    0.5858 N.ar    1  LIG1       -0.2087
     32 H           7.5411    2.7123   -1.5175 H       1  LIG1        0.0663
     33 O           4.5304    4.7467    1.2490 O.3     1  LIG1       -0.4919
     34 H           3.7971    4.2936    0.8109 H       1  LIG1        0.2938
     35 O           9.1824    4.6984   -1.5819 O.3     1  LIG1       -0.5046
     36 H           9.5236    5.6012   -1.6242 H       1  LIG1        0.2922
     37 C           7.9272    8.2603   -0.2070 C.ar    1  LIG1        0.0475
     38 C           8.4550    6.9794    0.0530 C.ar    1  LIG1        0.0253
     39 C           9.7905    6.8699    0.4309 C.ar    1  LIG1       -0.0464
     40 C          10.5831    8.0120    0.5493 C.ar    1  LIG1       -0.0317
     41 C           9.9619    9.2243    0.2692 C.ar    1  LIG1        0.0308
     42 N           8.6854    9.3470   -0.0962 N.ar    1  LIG1       -0.2592
     43 H          10.2068    5.8913    0.6526 H       1  LIG1        0.0628
     44 H          10.5227   10.1503    0.3434 H       1  LIG1        0.0832
     45 C           6.4866    8.4697   -0.6232 C.3     1  LIG1       -0.0217
     46 H           5.8242    8.2569    0.2155 H       1  LIG1        0.0293
     47 H           6.2194    7.7940   -1.4374 H       1  LIG1        0.0293
     48 H           6.3788    9.5037   -0.9414 H       1  LIG1        0.0293
     49 C          12.0375    7.9350    0.9673 C.3     1  LIG1       -0.0383
     50 H          12.4709    8.9333    1.0168 H       1  LIG1        0.0278
     51 H          12.6097    7.3429    0.2516 H       1  LIG1        0.0278
     52 H          12.1258    7.4682    1.9491 H       1  LIG1        0.0278
@<TRIPOS>BOND
     1    36    35    1
     2    35    29    1
     3    32    28    1
     4    47    45    1
     5    24    22    1
     6    48    45    1
     7    28    29   ar
     8    28    27   ar
     9    29    30   ar
    10    45    37    1
    11    45    46    1
    12    12    13    3
    13    13     7    1
    14    37    42   ar
    15    37    38   ar
    16    27    17    1
    17    27    26   ar
    18    22    16    1
    19    22    23    1
    20    22    25    1
    21    16    17   ar
    22    16    15   ar
    23    21    20    1
    24    17    18   ar
    25    20    19    3
    26    19    15    1
    27    42    41   ar
    28    15    14   ar
    29     8     6    1
    30     7     6   ar
    31     7     4   ar
    32    30    38    1
    33    30    31   ar
    34    18    14   ar
    35    14     4    1
    36     6     3   ar
    37     4     2   ar
    38    38    39   ar
    39     3     9    1
    40     3     1   ar
    41     2     1   ar
    42     2     5    1
    43    51    49    1
    44    41    44    1
    45    41    40   ar
    46     1    10    1
    47    39    40   ar
    48    39    43    1
    49    10    11    1
    50    26    31   ar
    51    26    33    1
    52    40    49    1
    53    34    33    1
    54    49    50    1
    55    49    52    1
