@<TRIPOS>MOLECULE
mol_data/opt/m06hf/geoms/mol2/4fd4af4da6ei-13hl13ef13ia-6li-.out
 102 109 0 0 0
SMALL
GASTEIGER

@<TRIPOS>ATOM
      1 C          -1.0203   -3.3541    1.1552 C.ar    1  LIG1        0.1175
      2 C           0.2127   -2.7564    0.9021 C.ar    1  LIG1       -0.0112
      3 C          -1.3550   -3.7706    2.4458 C.ar    1  LIG1       -0.0189
      4 C           1.1359   -2.5662    1.9291 C.ar    1  LIG1        0.0030
      5 H           0.4772   -2.4557   -0.1053 H       1  LIG1        0.0660
      6 C          -0.4446   -3.5888    3.4705 C.ar    1  LIG1       -0.0403
      7 C           0.7962   -2.9914    3.2208 C.ar    1  LIG1        0.0597
      8 H          -0.6848   -3.8997    4.4779 H       1  LIG1        0.0632
      9 H          -2.3194   -4.2292    2.6133 H       1  LIG1        0.0654
     10 O          -1.9358   -3.5638    0.1817 O.3     1  LIG1       -0.5067
     11 H          -1.6104   -3.2616   -0.6729 H       1  LIG1        0.2921
     12 N           2.4108   -2.7032    5.2331 N.1     1  LIG1       -0.1909
     13 C           1.7052   -2.8122    4.3335 C.1     1  LIG1        0.0998
     14 C           2.4584   -0.7346    0.8643 C.ar    1  LIG1       -0.0532
     15 C           3.6726   -0.1356    0.5527 C.ar    1  LIG1       -0.0499
     16 C           2.4393   -1.9079    1.6189 C.ar    1  LIG1       -0.0131
     17 C           4.8820   -0.6813    0.9823 C.ar    1  LIG1        0.0248
     18 H           3.6845    0.7828   -0.0197 H       1  LIG1        0.0625
     19 C           3.6386   -2.4650    2.0595 C.ar    1  LIG1       -0.0118
     20 C           4.8496   -1.8522    1.7528 C.ar    1  LIG1        0.1251
     21 H           3.6354   -3.3845    2.6333 H       1  LIG1        0.0660
     22 H           1.5299   -0.2794    0.5468 H       1  LIG1        0.0624
     23 O           6.0345   -2.3719    2.1691 O.3     1  LIG1       -0.5061
     24 H           5.8877   -3.1291    2.7464 H       1  LIG1        0.2922
     25 C           6.4901    0.3632   -0.6596 C.ar    1  LIG1        0.0601
     26 C           7.6888    1.0134   -0.9610 C.ar    1  LIG1       -0.0360
     27 C           6.1796   -0.0268    0.6499 C.ar    1  LIG1        0.0030
     28 C           8.6096    1.2838    0.0466 C.ar    1  LIG1       -0.0140
     29 H           7.8872    1.3146   -1.9813 H       1  LIG1        0.0637
     30 C           7.1204    0.2413    1.6481 C.ar    1  LIG1       -0.0521
     31 C           8.3141    0.8849    1.3550 C.ar    1  LIG1       -0.0533
     32 H           6.9060   -0.0703    2.6607 H       1  LIG1        0.0624
     33 N           4.8768   -0.1039   -2.6431 N.1     1  LIG1       -0.1908
     34 C           5.5782    0.0896   -1.7552 C.1     1  LIG1        0.0998
     35 H           9.0279    1.0791    2.1444 H       1  LIG1        0.0624
     36 C          10.4001    3.0535    0.4133 C.ar    1  LIG1        0.1216
     37 C           9.8980    1.9489   -0.2943 C.ar    1  LIG1        0.0163
     38 C          10.6842    1.4714   -1.3412 C.ar    1  LIG1       -0.0464
     39 C          11.8912    2.0721   -1.6854 C.ar    1  LIG1       -0.0223
     40 C          12.2545    3.2162   -0.9497 C.ar    1  LIG1        0.0933
     41 N          11.5357    3.6598    0.0852 N.ar    1  LIG1       -0.2360
     42 H          10.3670    0.5779   -1.8682 H       1  LIG1        0.0628
     43 C           9.6782    3.6227    1.5375 C.1     1  LIG1       -0.0492
     44 C           9.0862    4.1018    2.4663 C.1     1  LIG1       -0.1124
     45 H           8.5615    4.5371    3.2857 H       1  LIG1        0.1232
     46 C          12.7908    1.4382   -2.7272 C.3     1  LIG1       -0.0376
     47 H          13.8342    1.6540   -2.4994 H       1  LIG1        0.0278
     48 H          12.5882    1.8214   -3.7274 H       1  LIG1        0.0278
     49 H          12.6306    0.3601   -2.7255 H       1  LIG1        0.0278
     50 C          13.4869    3.9813   -1.1983 C.ar    1  LIG1        0.0903
     51 C          14.1731    4.3409   -2.3520 C.ar    1  LIG1        0.0947
     52 C          15.2693    5.1277   -1.9297 C.ar    1  LIG1        0.1679
     53 C          15.2127    5.2533   -0.5528 C.ar    1  LIG1        0.1088
     54 N          14.1242    4.5688   -0.1361 N.ar    1  LIG1       -0.3474
     55 H          13.7861    4.5260    0.8176 H       1  LIG1        0.1662
     56 N          13.8845    4.0590   -3.7031 N.pl3   1  LIG1       -0.3534
     57 H          12.8892    4.1205   -3.8917 H       1  LIG1        0.1425
     58 H          14.3710    4.7270   -4.2935 H       1  LIG1        0.1425
     59 O          16.2238    5.6799   -2.7507 O.3     1  LIG1       -0.4911
     60 C          17.2440    4.7406   -3.1042 C.3     1  LIG1        0.0790
     61 H          17.9319    5.2642   -3.7654 H       1  LIG1        0.0660
     62 H          17.7604    4.4007   -2.2038 H       1  LIG1        0.0660
     63 H          16.8007    3.8854   -3.6179 H       1  LIG1        0.0660
     64 C          16.1145    5.9859    0.3155 C.ar    1  LIG1        0.0863
     65 C          16.1688    6.0851    1.7007 C.ar    1  LIG1        0.0935
     66 C          17.2620    6.9495    1.9941 C.ar    1  LIG1        0.1595
     67 C          17.8212    7.3524    0.8029 C.ar    1  LIG1        0.1069
     68 N          17.1101    6.7416   -0.2070 N.ar    1  LIG1       -0.3479
     69 H          17.1991    6.9179   -1.1998 H       1  LIG1        0.1661
     70 C          15.2868    5.4346    2.6182 C.1     1  LIG1       -0.0638
     71 C          14.5208    4.8801    3.3629 C.1     1  LIG1       -0.1137
     72 H          13.8503    4.3983    4.0358 H       1  LIG1        0.1232
     73 O          17.6708    7.2785    3.2438 O.3     1  LIG1       -0.5034
     74 H          18.5260    7.7241    3.1769 H       1  LIG1        0.2923
     75 C          18.9815    8.2113    0.5897 C.ar    1  LIG1        0.0699
     76 C          19.2912    9.4424    1.1467 C.ar    1  LIG1       -0.0231
     77 C          20.5538    9.8142    0.6171 C.ar    1  LIG1       -0.0327
     78 C          20.9673    8.8148   -0.2484 C.ar    1  LIG1        0.0523
     79 N          20.0003    7.8529   -0.2429 N.ar    1  LIG1       -0.3526
     80 H          20.0875    6.9816   -0.7463 H       1  LIG1        0.1660
     81 C          18.4146   10.2440    2.0801 C.3     1  LIG1       -0.0376
     82 H          18.3482   11.2756    1.7332 H       1  LIG1        0.0278
     83 H          18.8141   10.2565    3.0966 H       1  LIG1        0.0278
     84 H          17.4105    9.8191    2.1063 H       1  LIG1        0.0278
     85 H          21.0834   10.7258    0.8409 H       1  LIG1        0.0642
     86 C          22.5154    7.5965   -1.8612 C.ar    1  LIG1        0.2238
     87 C          22.1893    8.7199   -1.0646 C.ar    1  LIG1        0.0600
     88 C          23.1098    9.7578   -1.0928 C.ar    1  LIG1       -0.0432
     89 C          24.2797    9.6815   -1.8564 C.ar    1  LIG1       -0.0315
     90 C          24.4733    8.5195   -2.5837 C.ar    1  LIG1        0.0343
     91 N          23.6053    7.5013   -2.5841 N.ar    1  LIG1       -0.2205
     92 H          22.9160   10.6505   -0.5097 H       1  LIG1        0.0629
     93 H          25.3575    8.3894   -3.1968 H       1  LIG1        0.0833
     94 O          21.6477    6.5536   -1.8818 O.3     1  LIG1       -0.4792
     95 C          22.0138    5.4297   -2.6816 C.3     1  LIG1        0.0804
     96 H          21.1974    4.7209   -2.5692 H       1  LIG1        0.0660
     97 H          22.1306    5.7318   -3.7211 H       1  LIG1        0.0660
     98 H          22.9497    5.0044   -2.3228 H       1  LIG1        0.0660
     99 C          25.2800   10.8195   -1.8827 C.3     1  LIG1       -0.0383
    100 H          26.1325   10.5610   -2.5100 H       1  LIG1        0.0278
    101 H          25.6417   11.0311   -0.8757 H       1  LIG1        0.0278
    102 H          24.8178   11.7239   -2.2813 H       1  LIG1        0.0278
@<TRIPOS>BOND
     1    58    56    1
     2    57    56    1
     3    61    60    1
     4    48    46    1
     5    97    95    1
     6    56    51    1
     7    63    60    1
     8    93    90    1
     9    60    59    1
    10    60    62    1
    11    59    52    1
    12    46    49    1
    13    46    47    1
    14    46    39    1
    15    95    96    1
    16    95    98    1
    17    95    94    1
    18    33    34    3
    19    91    90   ar
    20    91    86   ar
    21    90    89   ar
    22   100    99    1
    23    51    52   ar
    24    51    50   ar
    25   102    99    1
    26    29    26    1
    27    52    53   ar
    28    99    89    1
    29    99   101    1
    30    94    86    1
    31    42    38    1
    32    86    87   ar
    33    89    88   ar
    34    34    25    1
    35    39    38   ar
    36    39    40   ar
    37    38    37   ar
    38    69    68    1
    39    50    40    1
    40    50    54   ar
    41    88    87   ar
    42    88    92    1
    43    87    78    1
    44    26    25   ar
    45    26    28   ar
    46    40    41   ar
    47    80    79    1
    48    11    10    1
    49    25    27   ar
    50    53    54   ar
    51    53    64    1
    52    37    28    1
    53    37    36   ar
    54    78    79   ar
    55    78    77   ar
    56    79    75   ar
    57    68    64   ar
    58    68    67   ar
    59    54    55    1
    60     5     2    1
    61    18    15    1
    62    28    31   ar
    63    41    36   ar
    64    10     1    1
    65    64    65   ar
    66    36    43    1
    67    22    14    1
    68    15    14   ar
    69    15    17   ar
    70    75    67    1
    71    75    76   ar
    72    77    85    1
    73    77    76   ar
    74    27    17    1
    75    27    30   ar
    76    67    66   ar
    77    14    16   ar
    78     2     1   ar
    79     2     4   ar
    80    17    20   ar
    81    76    81    1
    82     1     3   ar
    83    31    30   ar
    84    31    35    1
    85    43    44    3
    86    16     4    1
    87    16    19   ar
    88    30    32    1
    89    65    66   ar
    90    65    70    1
    91    82    81    1
    92    20    19   ar
    93    20    23    1
    94     4     7   ar
    95    66    73    1
    96    19    21    1
    97    81    84    1
    98    81    83    1
    99    23    24    1
   100     3     9    1
   101     3     6   ar
   102    44    45    1
   103    70    71    3
   104    74    73    1
   105     7     6   ar
   106     7    13    1
   107    71    72    1
   108     6     8    1
   109    13    12    3
