@<TRIPOS>MOLECULE
mol_data/opt/m06hf/geoms/mol2/4fd4ih12ei-13il-.out
 56 59 0 0 0
SMALL
GASTEIGER

@<TRIPOS>ATOM
      1 C          -0.1336    0.2001   -1.0328 C.ar    1  LIG1        0.1175
      2 C           1.2559    0.2139   -0.9353 C.ar    1  LIG1       -0.0112
      3 C          -0.9034    1.1302   -0.3297 C.ar    1  LIG1       -0.0189
      4 C           1.8999    1.1559   -0.1356 C.ar    1  LIG1        0.0032
      5 H           1.8539   -0.4981   -1.4933 H       1  LIG1        0.0660
      6 C          -0.2723    2.0688    0.4658 C.ar    1  LIG1       -0.0403
      7 C           1.1239    2.0846    0.5670 C.ar    1  LIG1        0.0597
      8 H          -0.8503    2.7958    1.0194 H       1  LIG1        0.0632
      9 H          -1.9792    1.0953   -0.4268 H       1  LIG1        0.0654
     10 O          -0.7987   -0.6935   -1.8034 O.3     1  LIG1       -0.5067
     11 H          -0.1877   -1.3004   -2.2343 H       1  LIG1        0.2921
     12 N           2.2202    3.8627    2.1082 N.1     1  LIG1       -0.1909
     13 C           1.7534    3.0692    1.4226 C.1     1  LIG1        0.0998
     14 C           4.0775    0.1030    0.5669 C.ar    1  LIG1       -0.0419
     15 C           5.4624    0.1733    0.5897 C.ar    1  LIG1       -0.0458
     16 C           3.3943    1.1632   -0.0520 C.ar    1  LIG1       -0.0119
     17 C           6.1786    1.2336    0.0216 C.ar    1  LIG1        0.0394
     18 H           6.0231   -0.6179    1.0720 H       1  LIG1        0.0628
     19 C           4.0801    2.2376   -0.5961 C.ar    1  LIG1       -0.0323
     20 C           5.4826    2.3074   -0.5732 C.ar    1  LIG1        0.0360
     21 H           3.5225    3.0511   -1.0457 H       1  LIG1        0.0642
     22 C           3.3463   -1.0513    1.2296 C.3     1  LIG1       -0.0391
     23 H           4.0377   -1.6066    1.8628 H       1  LIG1        0.0278
     24 H           2.9305   -1.7401    0.4917 H       1  LIG1        0.0278
     25 H           2.5259   -0.6821    1.8468 H       1  LIG1        0.0278
     26 N           6.1076    3.4100   -1.1039 N.pl3   1  LIG1       -0.3574
     27 H           7.1071    3.3978   -1.2206 H       1  LIG1        0.1423
     28 H           5.5806    3.9792   -1.7449 H       1  LIG1        0.1423
     29 C           7.6456    1.1802    0.0595 C.ar    1  LIG1        0.1531
     30 C           8.5404    0.1443    0.1119 C.ar    1  LIG1        0.0740
     31 C           9.8638    0.7262    0.1794 C.ar    1  LIG1        0.0128
     32 C           9.6693    2.0673    0.1283 C.ar    1  LIG1        0.1562
     33 O           8.3348    2.3451    0.0635 O.2     1  LIG1       -0.4518
     34 C           8.2697   -1.2615    0.1031 C.1     1  LIG1       -0.0656
     35 C           8.0863   -2.4501    0.0997 C.1     1  LIG1       -0.1138
     36 H           7.9193   -3.5021    0.0885 H       1  LIG1        0.1232
     37 C          11.1556   -0.0273    0.3359 C.3     1  LIG1       -0.0349
     38 H          11.9322    0.6491    0.6914 H       1  LIG1        0.0279
     39 H          11.4680   -0.4650   -0.6137 H       1  LIG1        0.0279
     40 H          11.0184   -0.8338    1.0566 H       1  LIG1        0.0279
     41 C          10.5682    3.2144    0.1402 C.ar    1  LIG1        0.0889
     42 C          11.7823    3.4153   -0.4869 C.ar    1  LIG1        0.0195
     43 C          12.1770    4.7390   -0.1400 C.ar    1  LIG1        0.1409
     44 C          11.2082    5.2939    0.6629 C.ar    1  LIG1        0.0447
     45 N          10.2355    4.3535    0.8228 N.ar    1  LIG1       -0.3550
     46 H           9.3817    4.4636    1.3470 H       1  LIG1        0.1655
     47 H          11.1459    6.2741    1.1010 H       1  LIG1        0.0844
     48 C          12.5056    2.5050   -1.4464 C.3     1  LIG1       -0.0341
     49 H          13.2666    1.9021   -0.9462 H       1  LIG1        0.0279
     50 H          12.9964    3.1148   -2.2057 H       1  LIG1        0.0279
     51 H          11.7953    1.8328   -1.9297 H       1  LIG1        0.0279
     52 O          13.3128    5.3629   -0.5786 O.3     1  LIG1       -0.4933
     53 C          14.4633    5.0363    0.1913 C.3     1  LIG1        0.0789
     54 H          15.3037    5.5515   -0.2684 H       1  LIG1        0.0660
     55 H          14.3342    5.3727    1.2224 H       1  LIG1        0.0660
     56 H          14.6367    3.9574    0.1827 H       1  LIG1        0.0660
@<TRIPOS>BOND
     1    11    10    1
     2    50    48    1
     3    51    48    1
     4    10     1    1
     5    28    26    1
     6     5     2    1
     7    48    49    1
     8    48    42    1
     9    27    26    1
    10    26    20    1
    11    21    19    1
    12     1     2   ar
    13     1     3   ar
    14     2     4   ar
    15    39    37    1
    16    19    20   ar
    17    19    16   ar
    18    52    43    1
    19    52    53    1
    20    20    17   ar
    21    42    43   ar
    22    42    41   ar
    23     9     3    1
    24     3     6   ar
    25    54    53    1
    26    43    44   ar
    27     4    16    1
    28     4     7   ar
    29    16    14   ar
    30    17    29    1
    31    17    15   ar
    32    29    33   ar
    33    29    30   ar
    34    33    32   ar
    35    36    35    1
    36    35    34    3
    37    34    30    1
    38    30    31   ar
    39    32    41    1
    40    32    31   ar
    41    41    45   ar
    42    31    37    1
    43    56    53    1
    44    53    55    1
    45    37    38    1
    46    37    40    1
    47     6     7   ar
    48     6     8    1
    49    24    22    1
    50    14    15   ar
    51    14    22    1
    52     7    13    1
    53    15    18    1
    54    44    45   ar
    55    44    47    1
    56    45    46    1
    57    22    25    1
    58    22    23    1
    59    13    12    3
