@<TRIPOS>MOLECULE
mol_data/opt/m06hf/geoms/mol2/4fd6hl12il6lh-.out
 58 61 0 0 0
SMALL
GASTEIGER

@<TRIPOS>ATOM
      1 C          -0.3853    1.1213   -0.8595 C.ar    1  LIG1        0.1175
      2 C           1.0094    1.1326   -0.8875 C.ar    1  LIG1       -0.0111
      3 C          -1.0691    1.1652    0.3568 C.ar    1  LIG1       -0.0189
      4 C           1.7381    1.1816    0.2992 C.ar    1  LIG1        0.0063
      5 H           1.5423    1.1111   -1.8315 H       1  LIG1        0.0660
      6 C          -0.3516    1.2153    1.5398 C.ar    1  LIG1       -0.0403
      7 C           1.0466    1.2235    1.5171 C.ar    1  LIG1        0.0598
      8 H          -0.8639    1.2424    2.4917 H       1  LIG1        0.0632
      9 H          -2.1501    1.1584    0.3462 H       1  LIG1        0.0654
     10 O          -1.1334    1.0731   -1.9872 O.3     1  LIG1       -0.5067
     11 H          -0.5784    1.0770   -2.7743 H       1  LIG1        0.2921
     12 N           2.3121    1.2337    3.7825 N.1     1  LIG1       -0.1909
     13 C           1.7725    1.2383    2.7699 C.1     1  LIG1        0.0998
     14 C           3.9472    2.3532    0.6063 C.ar    1  LIG1        0.1250
     15 C           3.2287    1.1925    0.2597 C.ar    1  LIG1        0.0265
     16 C           3.9425    0.0687   -0.1366 C.ar    1  LIG1       -0.0067
     17 C           5.3337    0.1039   -0.1554 C.ar    1  LIG1        0.1497
     18 C           5.9590    1.2931    0.2454 C.ar    1  LIG1        0.1499
     19 N           5.2751    2.3794    0.5890 N.ar    1  LIG1       -0.2250
     20 H           3.3970   -0.8226   -0.4185 H       1  LIG1        0.0662
     21 N           3.3084    3.4981    1.0161 N.pl3   1  LIG1       -0.3426
     22 H           3.9058    4.3061    1.1025 H       1  LIG1        0.1437
     23 H           2.3584    3.6542    0.7202 H       1  LIG1        0.1437
     24 O           6.1249   -0.9245   -0.5662 O.3     1  LIG1       -0.4928
     25 C           5.5350   -2.2072   -0.6503 C.3     1  LIG1        0.0789
     26 H           6.3491   -2.8985   -0.8524 H       1  LIG1        0.0660
     27 H           5.0495   -2.4687    0.2942 H       1  LIG1        0.0660
     28 H           4.8107   -2.2531   -1.4677 H       1  LIG1        0.0660
     29 C           7.4306    1.3940    0.2938 C.ar    1  LIG1        0.1640
     30 C           8.4003    0.5337    0.7201 C.ar    1  LIG1        0.0393
     31 C           9.6162    1.2810    0.5860 C.ar    1  LIG1        0.1693
     32 C           9.2975    2.5129    0.0898 C.ar    1  LIG1        0.1825
     33 O           7.9639    2.5770   -0.0768 O.2     1  LIG1       -0.4489
     34 C           8.2981   -0.8532    1.2963 C.3     1  LIG1       -0.0325
     35 H           9.1244   -1.0019    1.9922 H       1  LIG1        0.0280
     36 H           8.3534   -1.6022    0.5049 H       1  LIG1        0.0280
     37 H           7.3528   -0.9781    1.8244 H       1  LIG1        0.0280
     38 O          10.8632    0.8342    0.9198 O.3     1  LIG1       -0.4910
     39 C          11.4850    0.0939   -0.1301 C.3     1  LIG1        0.0790
     40 H          12.4416   -0.2491    0.2574 H       1  LIG1        0.0660
     41 H          10.8639   -0.7606   -0.4059 H       1  LIG1        0.0660
     42 H          11.6341    0.7363   -1.0001 H       1  LIG1        0.0660
     43 C           9.8484    4.6289   -1.1926 C.ar    1  LIG1        0.2256
     44 C          10.1595    3.6617   -0.2112 C.ar    1  LIG1        0.0841
     45 C          11.3593    3.8065    0.4695 C.ar    1  LIG1       -0.0236
     46 C          12.2137    4.8783    0.1803 C.ar    1  LIG1        0.0438
     47 C          11.7929    5.7721   -0.7955 C.ar    1  LIG1        0.0520
     48 N          10.6408    5.6426   -1.4597 N.ar    1  LIG1       -0.2189
     49 H          11.6222    3.0795    1.2291 H       1  LIG1        0.0645
     50 H          12.4030    6.6306   -1.0539 H       1  LIG1        0.0849
     51 O           8.7017    4.4917   -1.8818 O.3     1  LIG1       -0.4792
     52 C           8.4117    5.5033   -2.8367 C.3     1  LIG1        0.0804
     53 H           7.4493    5.2285   -3.2593 H       1  LIG1        0.0660
     54 H           8.3596    6.4785   -2.3528 H       1  LIG1        0.0660
     55 H           9.1821    5.5310   -3.6079 H       1  LIG1        0.0660
     56 N          13.4030    5.0765    0.8975 N.pl3   1  LIG1       -0.3568
     57 H          13.8081    4.2258    1.2642 H       1  LIG1        0.1424
     58 H          14.0938    5.6263    0.4048 H       1  LIG1        0.1424
@<TRIPOS>BOND
     1    55    52    1
     2    53    52    1
     3    52    54    1
     4    52    51    1
     5    11    10    1
     6    10     1    1
     7    51    43    1
     8     5     2    1
     9    28    25    1
    10    48    43   ar
    11    48    47   ar
    12    43    44   ar
    13    50    47    1
    14    42    39    1
    15     2     1   ar
    16     2     4   ar
    17     1     3   ar
    18    26    25    1
    19    47    46   ar
    20    25    24    1
    21    25    27    1
    22    24    17    1
    23    20    16    1
    24    41    39    1
    25    44    32    1
    26    44    45   ar
    27    17    16   ar
    28    17    18   ar
    29    16    15   ar
    30    39    40    1
    31    39    38    1
    32    33    32   ar
    33    33    29   ar
    34    32    31   ar
    35    46    45   ar
    36    46    56    1
    37    18    29    1
    38    18    19   ar
    39    15     4    1
    40    15    14   ar
    41    29    30   ar
    42     4     7   ar
    43     9     3    1
    44     3     6   ar
    45    58    56    1
    46    45    49    1
    47    36    34    1
    48    31    30   ar
    49    31    38    1
    50    19    14   ar
    51    14    21    1
    52    30    34    1
    53    23    21    1
    54    56    57    1
    55    21    22    1
    56    34    37    1
    57    34    35    1
    58     7     6   ar
    59     7    13    1
    60     6     8    1
    61    13    12    3
