@<TRIPOS>MOLECULE
mol_data/opt/m06hf/geoms/mol2/4fd6ee-6hl4il.out
 59 62 0 0 0
SMALL
GASTEIGER

@<TRIPOS>ATOM
      1 C          -0.1406    0.7039    1.2101 C.ar    1  LIG1        0.1175
      2 C           1.2540    0.7072    1.1959 C.ar    1  LIG1       -0.0112
      3 C          -0.8598    1.2579    0.1499 C.ar    1  LIG1       -0.0189
      4 C           1.9420    1.2677    0.1239 C.ar    1  LIG1        0.0056
      5 H           1.8131    0.2897    2.0256 H       1  LIG1        0.0660
      6 C          -0.1786    1.8124   -0.9198 C.ar    1  LIG1       -0.0403
      7 C           1.2188    1.8196   -0.9392 C.ar    1  LIG1        0.0598
      8 H          -0.7196    2.2386   -1.7534 H       1  LIG1        0.0632
      9 H          -1.9399    1.2405    0.1896 H       1  LIG1        0.0654
     10 O          -0.8545    0.1755    2.2309 O.3     1  LIG1       -0.5067
     11 H          -0.2782   -0.1657    2.9229 H       1  LIG1        0.2921
     12 N           2.4382    2.8099   -3.0045 N.1     1  LIG1       -0.1909
     13 C           1.9098    2.3752   -2.0832 C.1     1  LIG1        0.0998
     14 C           4.2028    2.4107    0.1866 C.ar    1  LIG1        0.1216
     15 C           3.4329    1.2403    0.1163 C.ar    1  LIG1        0.0185
     16 C           4.1202    0.0347    0.0851 C.ar    1  LIG1       -0.0338
     17 C           5.5149    0.0162    0.0891 C.ar    1  LIG1        0.0514
     18 C           6.2044    1.2497    0.0998 C.ar    1  LIG1        0.0911
     19 N           5.5323    2.3982    0.1728 N.ar    1  LIG1       -0.2365
     20 H           3.5765   -0.9012    0.0605 H       1  LIG1        0.0637
     21 C           3.5638    3.7050    0.3049 C.1     1  LIG1       -0.0492
     22 C           3.0264    4.7734    0.4067 C.1     1  LIG1       -0.1124
     23 H           2.5536    5.7252    0.4857 H       1  LIG1        0.1232
     24 C           6.1752   -1.2652    0.1401 C.1     1  LIG1       -0.0675
     25 C           6.6598   -2.3637    0.2032 C.1     1  LIG1       -0.1138
     26 H           7.0981   -3.3330    0.2723 H       1  LIG1        0.1232
     27 C           8.4058    2.3187    0.7567 C.ar    1  LIG1        0.1264
     28 C           7.6847    1.3390    0.0386 C.ar    1  LIG1        0.0446
     29 C           8.4080    0.4609   -0.7696 C.ar    1  LIG1       -0.0053
     30 C           9.7921    0.5225   -0.8054 C.ar    1  LIG1        0.1467
     31 C          10.4289    1.4652    0.0177 C.ar    1  LIG1        0.1150
     32 N           9.7417    2.3397    0.7390 N.ar    1  LIG1       -0.2281
     33 H           7.8708   -0.2548   -1.3765 H       1  LIG1        0.0662
     34 N           7.8009    3.2566    1.5524 N.pl3   1  LIG1       -0.3426
     35 H           8.4400    3.9602    1.8918 H       1  LIG1        0.1437
     36 H           6.8815    3.5599    1.2640 H       1  LIG1        0.1437
     37 O          10.5788   -0.2521   -1.6012 O.3     1  LIG1       -0.4929
     38 C           9.9661   -1.3511   -2.2441 C.3     1  LIG1        0.0789
     39 H          10.7705   -1.9025   -2.7246 H       1  LIG1        0.0660
     40 H           9.4581   -1.9884   -1.5133 H       1  LIG1        0.0660
     41 H           9.2518   -1.0142   -3.0000 H       1  LIG1        0.0660
     42 C          12.7478    0.4757    0.3636 C.ar    1  LIG1       -0.0409
     43 C          14.1195    0.7018    0.4080 C.ar    1  LIG1       -0.0548
     44 C          11.9213    1.5743    0.0660 C.ar    1  LIG1        0.0104
     45 C          14.6830    1.9542    0.1647 C.ar    1  LIG1       -0.0197
     46 H          14.7776   -0.1253    0.6487 H       1  LIG1        0.0622
     47 C          12.4645    2.8337   -0.1523 C.ar    1  LIG1       -0.0104
     48 C          13.8442    3.0306   -0.1143 C.ar    1  LIG1        0.1207
     49 H          11.8206    3.6798   -0.3515 H       1  LIG1        0.0661
     50 H          15.7567    2.0727    0.2095 H       1  LIG1        0.0654
     51 C          12.2083   -0.9113    0.6643 C.3     1  LIG1       -0.0391
     52 H          12.8326   -1.3921    1.4182 H       1  LIG1        0.0278
     53 H          12.2105   -1.5189   -0.2419 H       1  LIG1        0.0278
     54 H          11.1854   -0.8594    1.0395 H       1  LIG1        0.0278
     55 O          14.2743    4.2988   -0.3562 O.3     1  LIG1       -0.4951
     56 C          15.6641    4.5423   -0.3028 C.3     1  LIG1        0.0788
     57 H          15.7915    5.6001   -0.5170 H       1  LIG1        0.0660
     58 H          16.0604    4.3166    0.6911 H       1  LIG1        0.0660
     59 H          16.1925    3.9487   -1.0541 H       1  LIG1        0.0660
@<TRIPOS>BOND
     1    12    13    3
     2    41    38    1
     3    39    38    1
     4    38    37    1
     5    38    40    1
     6    13     7    1
     7     8     6    1
     8    37    30    1
     9    33    29    1
    10    59    56    1
    11     7     6   ar
    12     7     4   ar
    13     6     3   ar
    14    30    29   ar
    15    30    31   ar
    16    29    28   ar
    17    57    56    1
    18    55    56    1
    19    55    48    1
    20    49    47    1
    21    56    58    1
    22    53    51    1
    23    47    48   ar
    24    47    44   ar
    25    48    45   ar
    26    31    44    1
    27    31    32   ar
    28    28    18    1
    29    28    27   ar
    30    20    16    1
    31    44    42   ar
    32    16    17   ar
    33    16    15   ar
    34    17    18   ar
    35    17    24    1
    36    18    19   ar
    37    15     4    1
    38    15    14   ar
    39     4     2   ar
    40    24    25    3
    41     3     9    1
    42     3     1   ar
    43    45    50    1
    44    45    43   ar
    45    19    14   ar
    46    14    21    1
    47    25    26    1
    48    21    22    3
    49    42    43   ar
    50    42    51    1
    51    22    23    1
    52    43    46    1
    53    51    54    1
    54    51    52    1
    55    32    27   ar
    56    27    34    1
    57     2     1   ar
    58     2     5    1
    59     1    10    1
    60    36    34    1
    61    34    35    1
    62    10    11    1
