@<TRIPOS>MOLECULE
mol_data/opt/m06hf/geoms/mol2/4fe.out
 15 15 0 0 0
SMALL
GASTEIGER

@<TRIPOS>ATOM
      1 C           0.0897    0.0278    0.0004 C.ar    1  LIG1        0.1169
      2 C           1.4834    0.0075    0.0000 C.ar    1  LIG1       -0.0190
      3 C          -0.5976    1.2424    0.0003 C.ar    1  LIG1       -0.0190
      4 C           2.1895    1.2041   -0.0005 C.ar    1  LIG1       -0.0429
      5 H           2.0139   -0.9376    0.0001 H       1  LIG1        0.0654
      6 C           0.1117    2.4324   -0.0002 C.ar    1  LIG1       -0.0429
      7 C           1.5123    2.4254   -0.0006 C.ar    1  LIG1        0.0249
      8 H          -0.4116    3.3786   -0.0003 H       1  LIG1        0.0631
      9 H           3.2708    1.1973   -0.0008 H       1  LIG1        0.0631
     10 H          -1.6786    1.2253    0.0006 H       1  LIG1        0.0654
     11 O          -0.6576   -1.1070    0.0009 O.3     1  LIG1       -0.5068
     12 H          -0.0943   -1.8876    0.0010 H       1  LIG1        0.2921
     13 C           2.2489    3.6673   -0.0011 C.1     1  LIG1       -0.0697
     14 C           2.8618    4.7011   -0.0015 C.1     1  LIG1       -0.1139
     15 H           3.4046    5.6177   -0.0019 H       1  LIG1        0.1232
@<TRIPOS>BOND
     1    15    14    1
     2    14    13    3
     3    13     7    1
     4     9     4    1
     5     7     4   ar
     6     7     6   ar
     7     4     2   ar
     8     8     6    1
     9     6     3   ar
    10     2     5    1
    11     2     1   ar
    12     3     1   ar
    13     3    10    1
    14     1    11    1
    15    11    12    1
