@<TRIPOS>MOLECULE
mol_data/opt/m06hf/geoms/mol2/4fe12ll13if-6aa.out
 51 54 0 0 0
SMALL
GASTEIGER

@<TRIPOS>ATOM
      1 C          -0.3260    0.2523   -0.4125 C.ar    1  LIG1        0.1176
      2 C           1.0556    0.1910   -0.3010 C.ar    1  LIG1       -0.0082
      3 C          -0.9775    1.4866   -0.4613 C.ar    1  LIG1       -0.0190
      4 C           1.8176    1.3642   -0.2405 C.ar    1  LIG1        0.0399
      5 H           1.5668   -0.7643   -0.2727 H       1  LIG1        0.0661
      6 C          -0.2250    2.6436   -0.4088 C.ar    1  LIG1       -0.0422
      7 C           1.1756    2.6132   -0.3014 C.ar    1  LIG1        0.0357
      8 H          -0.7113    3.6084   -0.4540 H       1  LIG1        0.0631
      9 H          -2.0547    1.5098   -0.5468 H       1  LIG1        0.0654
     10 O          -1.0984   -0.8619   -0.4776 O.3     1  LIG1       -0.5067
     11 H          -0.5517   -1.6548   -0.4791 H       1  LIG1        0.2921
     12 C           1.8319    3.9039   -0.2821 C.1     1  LIG1       -0.0689
     13 C           2.2181    5.0451   -0.2948 C.1     1  LIG1       -0.1139
     14 H           2.5305    6.0657   -0.3227 H       1  LIG1        0.1232
     15 C           3.2680    1.2192   -0.1055 C.ar    1  LIG1        0.1823
     16 C           4.0939    0.1374    0.0020 C.ar    1  LIG1        0.2086
     17 C           5.4352    0.6444    0.1249 C.ar    1  LIG1        0.2100
     18 C           5.3341    2.0026    0.0701 C.ar    1  LIG1        0.1973
     19 O           4.0297    2.3347   -0.0666 O.2     1  LIG1       -0.4457
     20 O           3.7604   -1.1820    0.0004 O.3     1  LIG1       -0.4884
     21 C           3.9968   -1.8082    1.2689 C.3     1  LIG1        0.0791
     22 H           3.7579   -2.8603    1.1370 H       1  LIG1        0.0660
     23 H           5.0431   -1.6858    1.5512 H       1  LIG1        0.0660
     24 H           3.3469   -1.3591    2.0226 H       1  LIG1        0.0660
     25 O           6.5489   -0.1196    0.2821 O.3     1  LIG1       -0.4884
     26 C           6.9326   -0.7922   -0.9225 C.3     1  LIG1        0.0791
     27 H           7.8305   -1.3562   -0.6820 H       1  LIG1        0.0660
     28 H           6.1326   -1.4618   -1.2427 H       1  LIG1        0.0660
     29 H           7.1430   -0.0565   -1.7005 H       1  LIG1        0.0660
     30 C           6.2267    3.1480    0.1323 C.ar    1  LIG1        0.0929
     31 C           7.6037    3.2986    0.1772 C.ar    1  LIG1        0.0200
     32 C           7.8220    4.6970    0.1880 C.ar    1  LIG1        0.1456
     33 C           6.6029    5.3511    0.1533 C.ar    1  LIG1        0.0907
     34 N           5.6445    4.3814    0.1316 N.ar    1  LIG1       -0.3485
     35 H           4.6448    4.5188    0.0314 H       1  LIG1        0.1661
     36 C           8.6877    2.2516    0.1960 C.3     1  LIG1       -0.0341
     37 H           9.5540    2.6513    0.7222 H       1  LIG1        0.0279
     38 H           8.9967    2.0033   -0.8221 H       1  LIG1        0.0279
     39 H           8.3379    1.3461    0.6882 H       1  LIG1        0.0279
     40 O           9.0641    5.2832    0.2243 O.3     1  LIG1       -0.5044
     41 H           9.0987    5.9099    0.9569 H       1  LIG1        0.2922
     42 C           5.1260    7.2651    0.7668 C.ar    1  LIG1        0.0368
     43 C           6.2941    6.7845    0.1629 C.ar    1  LIG1        0.0200
     44 C           7.1467    7.7164   -0.4350 C.ar    1  LIG1       -0.0496
     45 C           6.7870    9.0576   -0.4164 C.ar    1  LIG1       -0.0430
     46 C           5.5818    9.4205    0.1810 C.ar    1  LIG1        0.0276
     47 N           4.7654    8.5439    0.7647 N.ar    1  LIG1       -0.2626
     48 H           8.0591    7.3784   -0.9106 H       1  LIG1        0.0625
     49 H           5.2625   10.4553    0.1959 H       1  LIG1        0.0829
     50 H           4.4646    6.5786    1.2858 H       1  LIG1        0.0836
     51 H           7.4162    9.8099   -0.8712 H       1  LIG1        0.0633
@<TRIPOS>BOND
     1    29    26    1
     2    28    26    1
     3    26    27    1
     4    26    25    1
     5    48    44    1
     6    51    45    1
     7    38    36    1
     8     9     3    1
     9    11    10    1
    10    10     1    1
    11     3     1   ar
    12     3     6   ar
    13     8     6    1
    14    44    45   ar
    15    44    43   ar
    16    45    46   ar
    17     1     2   ar
    18     6     7   ar
    19    14    13    1
    20     7    12    1
    21     7     4   ar
    22     2     5    1
    23     2     4   ar
    24    13    12    3
    25     4    15    1
    26    15    19   ar
    27    15    16   ar
    28    19    18   ar
    29    20    16    1
    30    20    21    1
    31    16    17   ar
    32    35    34    1
    33    18    17   ar
    34    18    30    1
    35    17    25    1
    36    34    30   ar
    37    34    33   ar
    38    30    31   ar
    39    33    43    1
    40    33    32   ar
    41    43    42   ar
    42    31    32   ar
    43    31    36    1
    44    46    49    1
    45    46    47   ar
    46    32    40    1
    47    36    39    1
    48    36    37    1
    49    40    41    1
    50    47    42   ar
    51    42    50    1
    52    22    21    1
    53    21    23    1
    54    21    24    1
