@<TRIPOS>MOLECULE
mol_data/opt/m06hf/geoms/mol2/4fe4fe-4fe.out
 41 43 0 0 0
SMALL
GASTEIGER

@<TRIPOS>ATOM
      1 C          -0.0920    0.0683    0.5506 C.ar    1  LIG1        0.1175
      2 C           1.2994    0.0912    0.5479 C.ar    1  LIG1       -0.0112
      3 C          -0.8161    1.2002    0.1677 C.ar    1  LIG1       -0.0190
      4 C           1.9908    1.2374    0.1519 C.ar    1  LIG1        0.0045
      5 H           1.8640   -0.7773    0.8682 H       1  LIG1        0.0660
      6 C          -0.1376    2.3390   -0.2245 C.ar    1  LIG1       -0.0423
      7 C           1.2649    2.3722   -0.2463 C.ar    1  LIG1        0.0327
      8 H          -0.6822    3.2205   -0.5336 H       1  LIG1        0.0631
      9 H          -1.8962    1.1570    0.1844 H       1  LIG1        0.0654
     10 O          -0.8019   -1.0246    0.9249 O.3     1  LIG1       -0.5067
     11 H          -0.2149   -1.7567    1.1419 H       1  LIG1        0.2921
     12 C           1.9396    3.5683   -0.6935 C.1     1  LIG1       -0.0690
     13 C           2.4938    4.5750   -1.0462 C.1     1  LIG1       -0.1139
     14 H           2.9923    5.4625   -1.3607 H       1  LIG1        0.1232
     15 C           4.2387    2.0867    0.9360 C.ar    1  LIG1        0.1252
     16 C           5.6307    1.9870    0.9551 C.ar    1  LIG1       -0.0106
     17 C           3.4846    1.2064    0.1482 C.ar    1  LIG1        0.0260
     18 C           6.2893    1.0242    0.2041 C.ar    1  LIG1        0.0045
     19 H           6.1848    2.6682    1.5872 H       1  LIG1        0.0661
     20 C           4.1531    0.2442   -0.6070 C.ar    1  LIG1       -0.0345
     21 C           5.5424    0.1405   -0.5959 C.ar    1  LIG1        0.0333
     22 H           3.5787   -0.4273   -1.2323 H       1  LIG1        0.0637
     23 O           3.6847    3.0279    1.7314 O.3     1  LIG1       -0.5061
     24 H           2.7426    3.1238    1.5460 H       1  LIG1        0.2922
     25 C           6.1888   -0.8447   -1.4294 C.1     1  LIG1       -0.0690
     26 C           6.7094   -1.6609   -2.1418 C.1     1  LIG1       -0.1139
     27 H           7.1757   -2.3773   -2.7769 H       1  LIG1        0.1232
     28 C           8.4500   -0.1690    0.6855 C.ar    1  LIG1        0.1246
     29 C           9.8430   -0.2164    0.6820 C.ar    1  LIG1       -0.0184
     30 C           7.7807    0.9716    0.2216 C.ar    1  LIG1        0.0260
     31 C          10.5772    0.8711    0.2280 C.ar    1  LIG1       -0.0429
     32 H          10.3505   -1.1019    1.0463 H       1  LIG1        0.0654
     33 C           8.5271    2.0586   -0.2167 C.ar    1  LIG1       -0.0351
     34 C           9.9255    2.0211   -0.2207 C.ar    1  LIG1        0.0255
     35 H           8.0149    2.9407   -0.5784 H       1  LIG1        0.0637
     36 H          11.6582    0.8364    0.2250 H       1  LIG1        0.0631
     37 O           7.6931   -1.1908    1.1527 O.3     1  LIG1       -0.5062
     38 H           8.2350   -1.9695    1.3149 H       1  LIG1        0.2922
     39 C          10.6827    3.1567   -0.6917 C.1     1  LIG1       -0.0696
     40 C          11.3116    4.1032   -1.0846 C.1     1  LIG1       -0.1139
     41 H          11.8654    4.9437   -1.4341 H       1  LIG1        0.1232
@<TRIPOS>BOND
     1    27    26    1
     2    26    25    3
     3    41    40    1
     4    25    21    1
     5    14    13    1
     6    22    20    1
     7    40    39    3
     8    13    12    3
     9    12     7    1
    10    39    34    1
    11    20    21   ar
    12    20    17   ar
    13    21    18   ar
    14    35    33    1
    15     8     6    1
    16     7     6   ar
    17     7     4   ar
    18     6     3   ar
    19    34    33   ar
    20    34    31   ar
    21    33    30   ar
    22    17     4    1
    23    17    15   ar
    24     4     2   ar
    25     3     9    1
    26     3     1   ar
    27    18    30    1
    28    18    16   ar
    29    30    28   ar
    30    36    31    1
    31    31    29   ar
    32     2     1   ar
    33     2     5    1
    34     1    10    1
    35    29    28   ar
    36    29    32    1
    37    28    37    1
    38    10    11    1
    39    15    16   ar
    40    15    23    1
    41    16    19    1
    42    37    38    1
    43    24    23    1
