@<TRIPOS>MOLECULE
mol_data/opt/m06hf/geoms/mol2/4fe4fe-4fe4fe-.out
 54 57 0 0 0
SMALL
GASTEIGER

@<TRIPOS>ATOM
      1 C          -0.1579    1.5656    1.2774 C.ar    1  LIG1        0.1175
      2 C           1.2288    1.4573    1.2255 C.ar    1  LIG1       -0.0112
      3 C          -0.8988    1.7012    0.1006 C.ar    1  LIG1       -0.0190
      4 C           1.8956    1.4693   -0.0002 C.ar    1  LIG1        0.0045
      5 H           1.8081    1.3756    2.1386 H       1  LIG1        0.0660
      6 C          -0.2439    1.7145   -1.1168 C.ar    1  LIG1       -0.0423
      7 C           1.1520    1.5929   -1.1857 C.ar    1  LIG1        0.0327
      8 H          -0.8029    1.8088   -2.0377 H       1  LIG1        0.0631
      9 H          -1.9740    1.7901    0.1711 H       1  LIG1        0.0654
     10 O          -0.8461    1.5567    2.4453 O.3     1  LIG1       -0.5067
     11 H          -0.2543    1.4272    3.1941 H       1  LIG1        0.2921
     12 C           1.8038    1.5812   -2.4744 C.1     1  LIG1       -0.0690
     13 C           2.3477    1.5933   -3.5460 C.1     1  LIG1       -0.1139
     14 H           2.8392    1.5993   -4.4911 H       1  LIG1        0.1232
     15 C           4.2048    2.3386   -0.5398 C.ar    1  LIG1        0.1252
     16 C           5.5926    2.1989   -0.4999 C.ar    1  LIG1       -0.0106
     17 C           3.3838    1.3323   -0.0133 C.ar    1  LIG1        0.0260
     18 C           6.1812    1.0720    0.0562 C.ar    1  LIG1        0.0045
     19 H           6.1984    2.9869   -0.9273 H       1  LIG1        0.0661
     20 C           3.9822    0.2090    0.5547 C.ar    1  LIG1       -0.0345
     21 C           5.3674    0.0621    0.6002 C.ar    1  LIG1        0.0333
     22 H           3.3556   -0.5718    0.9667 H       1  LIG1        0.0637
     23 O           3.7237    3.4808   -1.0763 O.3     1  LIG1       -0.5061
     24 H           2.7691    3.4248   -1.2073 H       1  LIG1        0.2922
     25 C           5.9375   -1.1002    1.2385 C.1     1  LIG1       -0.0690
     26 C           6.3905   -2.0666    1.7921 C.1     1  LIG1       -0.1139
     27 H           6.7921   -2.9231    2.2820 H       1  LIG1        0.1232
     28 C           8.3362   -0.0826   -0.5482 C.ar    1  LIG1        0.1252
     29 C           9.7237   -0.1740   -0.4910 C.ar    1  LIG1       -0.0106
     30 C           7.6693    0.9705    0.0975 C.ar    1  LIG1        0.0260
     31 C          10.4806    0.7842    0.1830 C.ar    1  LIG1        0.0045
     32 H          10.2335   -1.0001   -0.9745 H       1  LIG1        0.0661
     33 C           8.4237    1.9293    0.7571 C.ar    1  LIG1       -0.0345
     34 C           9.8220    1.8569    0.8056 C.ar    1  LIG1        0.0333
     35 H           7.9217    2.7515    1.2509 H       1  LIG1        0.0637
     36 O           7.5815   -0.9718   -1.2293 O.3     1  LIG1       -0.5061
     37 H           8.1129   -1.7105   -1.5443 H       1  LIG1        0.2922
     38 C          10.5642    2.8913    1.4878 C.1     1  LIG1       -0.0690
     39 C          11.1773    3.7444    2.0725 C.1     1  LIG1       -0.1139
     40 H          11.7280    4.5004    2.5836 H       1  LIG1        0.1232
     41 C          12.6742    0.5004    1.3992 C.ar    1  LIG1        0.1246
     42 C          14.0596    0.3267    1.3806 C.ar    1  LIG1       -0.0184
     43 C          11.9690    0.6510    0.1957 C.ar    1  LIG1        0.0260
     44 C          14.7441    0.3024    0.1778 C.ar    1  LIG1       -0.0429
     45 H          14.5691    0.2087    2.3267 H       1  LIG1        0.0654
     46 C          12.6705    0.6219   -1.0080 C.ar    1  LIG1       -0.0351
     47 C          14.0548    0.4511   -1.0319 C.ar    1  LIG1        0.0255
     48 H          12.1313    0.7465   -1.9383 H       1  LIG1        0.0637
     49 H          15.8173    0.1678    0.1618 H       1  LIG1        0.0631
     50 O          12.0706    0.4803    2.6077 O.3     1  LIG1       -0.5062
     51 H          11.1444    0.7414    2.5341 H       1  LIG1        0.2922
     52 C          14.7635    0.4279   -2.2893 C.1     1  LIG1       -0.0696
     53 C          15.3522    0.4079   -3.3371 C.1     1  LIG1       -0.1139
     54 H          15.8716    0.3921   -4.2667 H       1  LIG1        0.1232
@<TRIPOS>BOND
     1    14    13    1
     2    54    53    1
     3    13    12    3
     4    53    52    3
     5    12     7    1
     6    52    47    1
     7     8     6    1
     8    48    46    1
     9    37    36    1
    10    36    28    1
    11    24    23    1
    12     7     6   ar
    13     7     4   ar
    14     6     3   ar
    15    23    15    1
    16    47    46   ar
    17    47    44   ar
    18    46    43   ar
    19    32    29    1
    20    19    16    1
    21    28    29   ar
    22    28    30   ar
    23    15    16   ar
    24    15    17   ar
    25    16    18   ar
    26    29    31   ar
    27    17     4    1
    28    17    20   ar
    29     4     2   ar
    30    18    30    1
    31    18    21   ar
    32    30    33   ar
    33     3     9    1
    34     3     1   ar
    35    49    44    1
    36    44    42   ar
    37    31    43    1
    38    31    34   ar
    39    43    41   ar
    40    20    21   ar
    41    20    22    1
    42    21    25    1
    43    33    34   ar
    44    33    35    1
    45    34    38    1
    46     2     1   ar
    47     2     5    1
    48    25    26    3
    49     1    10    1
    50    42    41   ar
    51    42    45    1
    52    41    50    1
    53    38    39    3
    54    26    27    1
    55    39    40    1
    56    10    11    1
    57    51    50    1
