@<TRIPOS>MOLECULE
mol_data/opt/m06hf/geoms/mol2/4fe4fe4fe.out
 41 43 0 0 0
SMALL
GASTEIGER

@<TRIPOS>ATOM
      1 C           0.0059    0.4665    1.2866 C.ar    1  LIG1        0.1175
      2 C           1.3885    0.4587    1.1407 C.ar    1  LIG1       -0.0112
      3 C          -0.7861    1.2641    0.4598 C.ar    1  LIG1       -0.0190
      4 C           2.0047    1.2442    0.1671 C.ar    1  LIG1        0.0045
      5 H           2.0025   -0.1669    1.7780 H       1  LIG1        0.0660
      6 C          -0.1801    2.0385   -0.5131 C.ar    1  LIG1       -0.0423
      7 C           1.2121    2.0391   -0.6756 C.ar    1  LIG1        0.0327
      8 H          -0.7787    2.6547   -1.1698 H       1  LIG1        0.0631
      9 H          -1.8585    1.2547    0.5965 H       1  LIG1        0.0654
     10 O          -0.6289   -0.2837    2.2256 O.3     1  LIG1       -0.5067
     11 H           0.0070   -0.8032    2.7286 H       1  LIG1        0.2921
     12 C           1.7881    2.8436   -1.7280 C.1     1  LIG1       -0.0690
     13 C           2.2409    3.5199   -2.6129 C.1     1  LIG1       -0.1139
     14 H           2.6557    4.1119   -3.3952 H       1  LIG1        0.1232
     15 C           4.2144    0.0468   -0.0356 C.ar    1  LIG1        0.1252
     16 C           5.6025    0.0609   -0.1253 C.ar    1  LIG1       -0.0106
     17 C           3.4932    1.2445    0.0613 C.ar    1  LIG1        0.0260
     18 C           6.3117    1.2588   -0.1190 C.ar    1  LIG1        0.0045
     19 H           6.1468   -0.8725   -0.2094 H       1  LIG1        0.0661
     20 C           4.2054    2.4383    0.0657 C.ar    1  LIG1       -0.0345
     21 C           5.6000    2.4658   -0.0250 C.ar    1  LIG1        0.0333
     22 H           3.6674    3.3744    0.1328 H       1  LIG1        0.0637
     23 O           3.5185   -1.1226   -0.0310 O.3     1  LIG1       -0.5061
     24 H           4.1012   -1.8569   -0.2518 H       1  LIG1        0.2922
     25 C           6.2640    3.7489   -0.0441 C.1     1  LIG1       -0.0690
     26 C           6.7852    4.8320   -0.0569 C.1     1  LIG1       -0.1139
     27 H           7.2537    5.7885   -0.0694 H       1  LIG1        0.1232
     28 C           8.4739    0.4993   -1.1666 C.ar    1  LIG1        0.1246
     29 C           9.8677    0.4852   -1.2145 C.ar    1  LIG1       -0.0184
     30 C           7.8027    1.2355   -0.1798 C.ar    1  LIG1        0.0260
     31 C          10.6057    1.1949   -0.2795 C.ar    1  LIG1       -0.0429
     32 H          10.3712   -0.0843   -1.9872 H       1  LIG1        0.0654
     33 C           8.5585    1.9385    0.7548 C.ar    1  LIG1       -0.0351
     34 C           9.9548    1.9258    0.7173 C.ar    1  LIG1        0.0255
     35 H           8.0530    2.5061    1.5246 H       1  LIG1        0.0637
     36 H          11.6867    1.1835   -0.3135 H       1  LIG1        0.0631
     37 O           7.7266   -0.1965   -2.0654 O.3     1  LIG1       -0.5062
     38 H           8.2888   -0.5699   -2.7520 H       1  LIG1        0.2922
     39 C          10.7170    2.6586    1.7005 C.1     1  LIG1       -0.0696
     40 C          11.3528    3.2657    2.5198 C.1     1  LIG1       -0.1139
     41 H          11.9129    3.8039    3.2484 H       1  LIG1        0.1232
@<TRIPOS>BOND
     1    14    13    1
     2    38    37    1
     3    13    12    3
     4    37    28    1
     5    32    29    1
     6    12     7    1
     7    29    28   ar
     8    29    31   ar
     9     8     6    1
    10    28    30   ar
    11     7     6   ar
    12     7     4   ar
    13     6     3   ar
    14    36    31    1
    15    31    34   ar
    16    24    23    1
    17    19    16    1
    18    30    18    1
    19    30    33   ar
    20    16    18   ar
    21    16    15   ar
    22    18    21   ar
    23    27    26    1
    24    26    25    3
    25    25    21    1
    26    15    23    1
    27    15    17   ar
    28    21    20   ar
    29    17    20   ar
    30    17     4    1
    31    20    22    1
    32     4     2   ar
    33     3     9    1
    34     3     1   ar
    35    34    33   ar
    36    34    39    1
    37    33    35    1
    38     2     1   ar
    39     2     5    1
    40     1    10    1
    41    39    40    3
    42    10    11    1
    43    40    41    1
