@<TRIPOS>MOLECULE
mol_data/opt/m06hf/geoms/mol2/4fe4fe.out
 28 29 0 0 0
SMALL
GASTEIGER

@<TRIPOS>ATOM
      1 C           0.0468    0.1374    0.6905 C.ar    1  LIG1        0.1175
      2 C           1.4322    0.1296    0.5724 C.ar    1  LIG1       -0.0112
      3 C          -0.6905    1.2457    0.2718 C.ar    1  LIG1       -0.0190
      4 C           2.1060    1.2252    0.0331 C.ar    1  LIG1        0.0045
      5 H           2.0032   -0.7335    0.8937 H       1  LIG1        0.0660
      6 C          -0.0273    2.3324   -0.2689 C.ar    1  LIG1       -0.0423
      7 C           1.3684    2.3386   -0.3985 C.ar    1  LIG1        0.0327
      8 H          -0.5828    3.1961   -0.6071 H       1  LIG1        0.0631
      9 H          -1.7661    1.2278    0.3770 H       1  LIG1        0.0654
     10 O          -0.6437   -0.9093    1.2145 O.3     1  LIG1       -0.5067
     11 H          -0.0437   -1.6239    1.4515 H       1  LIG1        0.2921
     12 C           2.0024    3.4912   -0.9956 C.1     1  LIG1       -0.0690
     13 C           2.4989    4.4654   -1.4963 C.1     1  LIG1       -0.1139
     14 H           2.9505    5.3219   -1.9410 H       1  LIG1        0.1232
     15 C           4.2716    0.1300   -0.6463 C.ar    1  LIG1        0.1246
     16 C           5.6644    0.1212   -0.7208 C.ar    1  LIG1       -0.0184
     17 C           3.5970    1.2040   -0.0495 C.ar    1  LIG1        0.0260
     18 C           6.3984    1.1756   -0.1990 C.ar    1  LIG1       -0.0429
     19 H           6.1704   -0.7145   -1.1901 H       1  LIG1        0.0654
     20 C           4.3485    2.2524    0.4743 C.ar    1  LIG1       -0.0351
     21 C           5.7438    2.2504    0.4070 C.ar    1  LIG1        0.0255
     22 H           3.8411    3.0856    0.9411 H       1  LIG1        0.0637
     23 H           7.4783    1.1708   -0.2556 H       1  LIG1        0.0631
     24 O           3.5283   -0.8941   -1.1457 O.3     1  LIG1       -0.5062
     25 H           4.0936   -1.5258   -1.6019 H       1  LIG1        0.2922
     26 C           6.5010    3.3490    0.9591 C.1     1  LIG1       -0.0696
     27 C           7.1335    4.2629    1.4160 C.1     1  LIG1       -0.1139
     28 H           7.6927    5.0734    1.8219 H       1  LIG1        0.1232
@<TRIPOS>BOND
     1    14    13    1
     2    25    24    1
     3    13    12    3
     4    19    16    1
     5    24    15    1
     6    12     7    1
     7    16    15   ar
     8    16    18   ar
     9    15    17   ar
    10     8     6    1
    11     7     6   ar
    12     7     4   ar
    13     6     3   ar
    14    23    18    1
    15    18    21   ar
    16    17     4    1
    17    17    20   ar
    18     4     2   ar
    19     3     9    1
    20     3     1   ar
    21    21    20   ar
    22    21    26    1
    23    20    22    1
    24     2     1   ar
    25     2     5    1
    26     1    10    1
    27    26    27    3
    28    10    11    1
    29    27    28    1
