@<TRIPOS>MOLECULE
mol_data/opt/m06hf/geoms/mol2/4fe4fe4fe4fe.out
 54 57 0 0 0
SMALL
GASTEIGER

@<TRIPOS>ATOM
      1 C          -0.0875    0.9128    1.6265 C.ar    1  LIG1        0.1175
      2 C           1.2958    0.8985    1.4903 C.ar    1  LIG1       -0.0112
      3 C          -0.8976    1.3022    0.5595 C.ar    1  LIG1       -0.0190
      4 C           1.8964    1.2676    0.2864 C.ar    1  LIG1        0.0045
      5 H           1.9233    0.5878    2.3177 H       1  LIG1        0.0660
      6 C          -0.3077    1.6628   -0.6382 C.ar    1  LIG1       -0.0423
      7 C           1.0853    1.6491   -0.7938 C.ar    1  LIG1        0.0327
      8 H          -0.9187    1.9573   -1.4806 H       1  LIG1        0.0631
      9 H          -1.9704    1.3067    0.6932 H       1  LIG1        0.0654
     10 O          -0.7075    0.5614    2.7839 O.3     1  LIG1       -0.5067
     11 H          -0.0629    0.2725    3.4383 H       1  LIG1        0.2921
     12 C           1.6384    2.0078   -2.0794 C.1     1  LIG1       -0.0690
     13 C           2.0642    2.3115   -3.1620 C.1     1  LIG1       -0.1139
     14 H           2.4570    2.5762   -4.1161 H       1  LIG1        0.1232
     15 C           4.1474    0.1675    0.5855 C.ar    1  LIG1        0.1252
     16 C           5.5346    0.1885    0.4870 C.ar    1  LIG1       -0.0106
     17 C           3.3852    1.2730    0.1826 C.ar    1  LIG1        0.0260
     18 C           6.2062    1.3017   -0.0122 C.ar    1  LIG1        0.0045
     19 H           6.1080   -0.6792    0.7916 H       1  LIG1        0.0661
     20 C           4.0601    2.3834   -0.3121 C.ar    1  LIG1       -0.0345
     21 C           5.4533    2.4158   -0.4197 C.ar    1  LIG1        0.0333
     22 H           3.4939    3.2482   -0.6309 H       1  LIG1        0.0637
     23 O           3.4924   -0.9182    1.0795 O.3     1  LIG1       -0.5061
     24 H           4.1110   -1.6423    1.2227 H       1  LIG1        0.2922
     25 C           6.0689    3.5986   -0.9765 C.1     1  LIG1       -0.0690
     26 C           6.5467    4.5970   -1.4459 C.1     1  LIG1       -0.1139
     27 H           6.9805    5.4767   -1.8614 H       1  LIG1        0.1232
     28 C           8.3995    0.2222   -0.6358 C.ar    1  LIG1        0.1252
     29 C           9.7894    0.2338   -0.6894 C.ar    1  LIG1       -0.0106
     30 C           7.6967    1.2986   -0.0760 C.ar    1  LIG1        0.0260
     31 C          10.5213    1.3094   -0.1926 C.ar    1  LIG1        0.0045
     32 H          10.3170   -0.6004   -1.1364 H       1  LIG1        0.0661
     33 C           8.4322    2.3678    0.4237 C.ar    1  LIG1       -0.0345
     34 C           9.8288    2.3930    0.3720 C.ar    1  LIG1        0.0333
     35 H           7.9124    3.2111    0.8572 H       1  LIG1        0.0637
     36 O           7.6845   -0.8309   -1.1164 O.3     1  LIG1       -0.5061
     37 H           8.2620   -1.4391   -1.5897 H       1  LIG1        0.2922
     38 C          10.5113    3.5584    0.8856 C.1     1  LIG1       -0.0690
     39 C          11.0442    4.5431    1.3230 C.1     1  LIG1       -0.1139
     40 H          11.5236    5.4129    1.7076 H       1  LIG1        0.1232
     41 C          12.6880    0.9719   -1.4344 C.ar    1  LIG1        0.1246
     42 C          14.0821    0.9565   -1.4742 C.ar    1  LIG1       -0.0184
     43 C          12.0128    1.2785   -0.2446 C.ar    1  LIG1        0.0260
     44 C          14.8169    1.2384   -0.3328 C.ar    1  LIG1       -0.0429
     45 H          14.5882    0.7240   -2.4040 H       1  LIG1        0.0654
     46 C          12.7656    1.5505    0.8948 C.ar    1  LIG1       -0.0351
     47 C          14.1619    1.5335    0.8649 C.ar    1  LIG1        0.0255
     48 H          12.2587    1.7809    1.8219 H       1  LIG1        0.0637
     49 H          15.8980    1.2264   -0.3613 H       1  LIG1        0.0631
     50 O          11.9452    0.6918   -2.5391 O.3     1  LIG1       -0.5062
     51 H          12.5148    0.5837   -3.3081 H       1  LIG1        0.2922
     52 C          14.9192    1.8172    2.0613 C.1     1  LIG1       -0.0696
     53 C          15.5502    2.0548    3.0562 C.1     1  LIG1       -0.1139
     54 H          16.1047    2.2664    3.9406 H       1  LIG1        0.1232
@<TRIPOS>BOND
     1    14    13    1
     2    51    50    1
     3    13    12    3
     4    50    41    1
     5    45    42    1
     6    12     7    1
     7    27    26    1
     8    37    36    1
     9     8     6    1
    10    42    41   ar
    11    42    44   ar
    12    26    25    3
    13    41    43   ar
    14    32    29    1
    15    36    28    1
    16    25    21    1
    17     7     6   ar
    18     7     4   ar
    19    29    28   ar
    20    29    31   ar
    21     6     3   ar
    22    28    30   ar
    23    22    20    1
    24    21    20   ar
    25    21    18   ar
    26    49    44    1
    27    44    47   ar
    28    20    17   ar
    29    43    31    1
    30    43    46   ar
    31    31    34   ar
    32    30    18    1
    33    30    33   ar
    34    18    16   ar
    35    17     4    1
    36    17    15   ar
    37     4     2   ar
    38    34    33   ar
    39    34    38    1
    40    33    35    1
    41    16    15   ar
    42    16    19    1
    43     3     9    1
    44     3     1   ar
    45    15    23    1
    46    47    46   ar
    47    47    52    1
    48    38    39    3
    49    46    48    1
    50    23    24    1
    51    39    40    1
    52     2     1   ar
    53     2     5    1
    54     1    10    1
    55    52    53    3
    56    10    11    1
    57    53    54    1
