@<TRIPOS>MOLECULE
mol_data/opt/m06hf/geoms/mol2/4fe4fe4fe4fe-.out
 54 57 0 0 0
SMALL
GASTEIGER

@<TRIPOS>ATOM
      1 C          -0.2139    0.1520    0.5713 C.ar    1  LIG1        0.1175
      2 C           1.1763    0.1492    0.5547 C.ar    1  LIG1       -0.0112
      3 C          -0.9240    1.2335    0.0489 C.ar    1  LIG1       -0.0190
      4 C           1.8817    1.2242    0.0140 C.ar    1  LIG1        0.0045
      5 H           1.7273   -0.6950    0.9526 H       1  LIG1        0.0660
      6 C          -0.2291    2.2986   -0.4945 C.ar    1  LIG1       -0.0423
      7 C           1.1724    2.3093   -0.5236 C.ar    1  LIG1        0.0327
      8 H          -0.7618    3.1409   -0.9143 H       1  LIG1        0.0631
      9 H          -2.0045    1.2100    0.0757 H       1  LIG1        0.0654
     10 O          -0.9378   -0.8741    1.0908 O.3     1  LIG1       -0.5067
     11 H          -0.3570   -1.5783    1.3975 H       1  LIG1        0.2921
     12 C           1.8403    3.4337   -1.1374 C.1     1  LIG1       -0.0690
     13 C           2.3606    4.3843   -1.6579 C.1     1  LIG1       -0.1139
     14 H           2.8304    5.2225   -2.1174 H       1  LIG1        0.1232
     15 C           4.0997    0.1010   -0.4153 C.ar    1  LIG1        0.1252
     16 C           5.4906    0.1027   -0.3854 C.ar    1  LIG1       -0.0106
     17 C           3.3741    1.2100    0.0417 C.ar    1  LIG1        0.0260
     18 C           6.1967    1.1979    0.1039 C.ar    1  LIG1        0.0045
     19 H           6.0383   -0.7638   -0.7372 H       1  LIG1        0.0661
     20 C           4.0847    2.2956    0.5408 C.ar    1  LIG1       -0.0345
     21 C           5.4819    2.3077    0.5814 C.ar    1  LIG1        0.0333
     22 H           3.5452    3.1560    0.9135 H       1  LIG1        0.0637
     23 O           3.4045   -0.9687   -0.8864 O.3     1  LIG1       -0.5061
     24 H           4.0060   -1.6188   -1.2654 H       1  LIG1        0.2922
     25 C           6.1452    3.4611    1.1445 C.1     1  LIG1       -0.0690
     26 C           6.6651    4.4355    1.6193 C.1     1  LIG1       -0.1139
     27 H           7.1283    5.2962    2.0426 H       1  LIG1        0.1232
     28 C           8.4044    0.1038    0.6444 C.ar    1  LIG1        0.1252
     29 C           9.7964    0.1120    0.6536 C.ar    1  LIG1       -0.0106
     30 C           7.6885    1.1799    0.0988 C.ar    1  LIG1        0.0260
     31 C          10.5149    1.1743    0.1096 C.ar    1  LIG1        0.0045
     32 H          10.3394   -0.7115    1.1047 H       1  LIG1        0.0661
     33 C           8.4077    2.2348   -0.4498 C.ar    1  LIG1       -0.0345
     34 C           9.8064    2.2453   -0.4604 C.ar    1  LIG1        0.0333
     35 H           7.8752    3.0687   -0.8875 H       1  LIG1        0.0637
     36 O           7.6991   -0.9318    1.1676 O.3     1  LIG1       -0.5061
     37 H           8.2881   -1.5519    1.6110 H       1  LIG1        0.2922
     38 C          10.5003    3.3572   -1.0677 C.1     1  LIG1       -0.0690
     39 C          11.0772    4.2970   -1.5459 C.1     1  LIG1       -0.1139
     40 H          11.5947    5.1252   -1.9716 H       1  LIG1        0.1232
     41 C          12.7710    2.0998    0.7847 C.ar    1  LIG1        0.1246
     42 C          14.1609    1.9770    0.8468 C.ar    1  LIG1       -0.0184
     43 C          12.0077    1.1180    0.1341 C.ar    1  LIG1        0.0260
     44 C          14.7952    0.8897    0.2722 C.ar    1  LIG1       -0.0429
     45 H          14.7141    2.7509    1.3609 H       1  LIG1        0.0654
     46 C          12.6608    0.0290   -0.4415 C.ar    1  LIG1       -0.0351
     47 C          14.0480   -0.0977   -0.3823 C.ar    1  LIG1        0.0255
     48 H          12.0783   -0.7269   -0.9526 H       1  LIG1        0.0637
     49 H          15.8714    0.7933    0.3228 H       1  LIG1        0.0631
     50 O          12.2270    3.1676    1.4086 O.3     1  LIG1       -0.5062
     51 H          11.3004    3.2792    1.1641 H       1  LIG1        0.2922
     52 C          14.6997   -1.2360   -0.9858 C.1     1  LIG1       -0.0696
     53 C          15.2407   -2.1870   -1.4839 C.1     1  LIG1       -0.1139
     54 H          15.7196   -3.0306   -1.9237 H       1  LIG1        0.1232
@<TRIPOS>BOND
     1    14    13    1
     2    40    39    1
     3    54    53    1
     4    13    12    3
     5    39    38    3
     6    53    52    3
     7    24    23    1
     8    12     7    1
     9    38    34    1
    10    52    47    1
    11    48    46    1
    12     8     6    1
    13    35    33    1
    14    23    15    1
    15    19    16    1
    16     7     6   ar
    17     7     4   ar
    18     6     3   ar
    19    34    33   ar
    20    34    31   ar
    21    33    30   ar
    22    46    47   ar
    23    46    43   ar
    24    15    16   ar
    25    15    17   ar
    26    16    18   ar
    27    47    44   ar
    28     4    17    1
    29     4     2   ar
    30    17    20   ar
    31     3     9    1
    32     3     1   ar
    33    30    18    1
    34    30    28   ar
    35    18    21   ar
    36    31    43    1
    37    31    29   ar
    38    43    41   ar
    39    44    49    1
    40    44    42   ar
    41    20    21   ar
    42    20    22    1
    43     2     1   ar
    44     2     5    1
    45     1    10    1
    46    21    25    1
    47    28    29   ar
    48    28    36    1
    49    29    32    1
    50    41    42   ar
    51    41    50    1
    52    42    45    1
    53    10    11    1
    54    25    26    3
    55    51    50    1
    56    36    37    1
    57    26    27    1
