@<TRIPOS>MOLECULE
mol_data/opt/m06hf/geoms/mol2/4fe4ia13ef-4hd-.out
 52 55 0 0 0
SMALL
GASTEIGER

@<TRIPOS>ATOM
      1 C           0.1459    1.4349   -1.9230 C.ar    1  LIG1        0.1175
      2 C           1.5123    1.4448   -1.6514 C.ar    1  LIG1       -0.0113
      3 C          -0.7750    1.2776   -0.8870 C.ar    1  LIG1       -0.0190
      4 C           1.9750    1.2959   -0.3453 C.ar    1  LIG1        0.0012
      5 H           2.2319    1.5580   -2.4551 H       1  LIG1        0.0660
      6 C          -0.3184    1.1367    0.4127 C.ar    1  LIG1       -0.0423
      7 C           1.0528    1.1446    0.6998 C.ar    1  LIG1        0.0326
      8 H          -1.0210    1.0224    1.2269 H       1  LIG1        0.0631
      9 H          -1.8295    1.2721   -1.1248 H       1  LIG1        0.0654
     10 O          -0.3462    1.5685   -3.1816 O.3     1  LIG1       -0.5067
     11 H           0.3683    1.6794   -3.8173 H       1  LIG1        0.2921
     12 C           1.5023    1.0149    2.0654 C.1     1  LIG1       -0.0690
     13 C           1.8680    0.9033    3.2051 C.1     1  LIG1       -0.1139
     14 H           2.2020    0.8148    4.2127 H       1  LIG1        0.1232
     15 C           4.1306    0.1275    0.2462 C.ar    1  LIG1       -0.0421
     16 C           5.5083    0.1852    0.4402 C.ar    1  LIG1       -0.0491
     17 C           3.4501    1.3078   -0.0911 C.ar    1  LIG1       -0.0137
     18 C           6.2099    1.3873    0.3168 C.ar    1  LIG1       -0.0001
     19 H           6.0539   -0.7175    0.6857 H       1  LIG1        0.0627
     20 C           4.1476    2.5085   -0.2204 C.ar    1  LIG1       -0.0531
     21 C           5.5199    2.5568   -0.0085 C.ar    1  LIG1       -0.0520
     22 H           3.6009    3.4108   -0.4649 H       1  LIG1        0.0624
     23 C           3.3930   -1.1913    0.3842 C.3     1  LIG1       -0.0391
     24 H           4.1023   -2.0180    0.3807 H       1  LIG1        0.0278
     25 H           2.6858   -1.3222   -0.4360 H       1  LIG1        0.0278
     26 H           2.8359   -1.2051    1.3228 H       1  LIG1        0.0278
     27 H           6.0432    3.5038   -0.0614 H       1  LIG1        0.0624
     28 C           7.6712    1.4159    0.5088 C.ar    1  LIG1        0.0661
     29 C           8.4958    0.6729    1.3428 C.ar    1  LIG1        0.0919
     30 C           9.8346    1.1045    1.1006 C.ar    1  LIG1        0.1581
     31 C           9.7913    2.0844    0.1232 C.ar    1  LIG1        0.0920
     32 N           8.4608    2.2611   -0.2022 N.ar    1  LIG1       -0.3502
     33 H           8.1374    2.7832   -1.0024 H       1  LIG1        0.1660
     34 C           8.1015   -0.3062    2.3081 C.1     1  LIG1       -0.0639
     35 C           7.7753   -1.1339    3.1171 C.1     1  LIG1       -0.1137
     36 H           7.4940   -1.8575    3.8464 H       1  LIG1        0.1232
     37 O          10.8997    0.6434    1.7847 O.3     1  LIG1       -0.5035
     38 H          11.7032    0.7684    1.2411 H       1  LIG1        0.2923
     39 C          12.1211    2.3965   -0.7236 C.ar    1  LIG1        0.0340
     40 C          13.1450    3.2243   -1.1881 C.ar    1  LIG1       -0.0392
     41 C          10.8529    2.9349   -0.4304 C.ar    1  LIG1        0.0238
     42 C          12.9170    4.5743   -1.4061 C.ar    1  LIG1       -0.0426
     43 H          14.1202    2.8016   -1.3950 H       1  LIG1        0.0636
     44 C          10.6303    4.2913   -0.6628 C.ar    1  LIG1       -0.0334
     45 C          11.6499    5.1029   -1.1570 C.ar    1  LIG1        0.0525
     46 H           9.6691    4.7262   -0.4209 H       1  LIG1        0.0637
     47 H          13.7067    5.2150   -1.7727 H       1  LIG1        0.0631
     48 N          12.3400    1.0237   -0.5024 N.pl3   1  LIG1       -0.3575
     49 H          11.5627    0.4518   -0.8292 H       1  LIG1        0.1423
     50 H          13.2234    0.6859   -0.8643 H       1  LIG1        0.1423
     51 N          11.1912    7.6224   -1.5800 N.1     1  LIG1       -0.1909
     52 C          11.3952    6.5092   -1.3902 C.1     1  LIG1        0.0992
@<TRIPOS>BOND
     1    11    10    1
     2    10     1    1
     3     5     2    1
     4     1     2   ar
     5     1     3   ar
     6    47    42    1
     7     2     4   ar
     8    51    52    3
     9    42    40   ar
    10    42    45   ar
    11    43    40    1
    12    52    45    1
    13    40    39   ar
    14    45    44   ar
    15     9     3    1
    16    33    32    1
    17     3     6   ar
    18    50    48    1
    19    49    48    1
    20    39    48    1
    21    39    41   ar
    22    44    41   ar
    23    44    46    1
    24    22    20    1
    25    25    23    1
    26    41    31    1
    27     4    17    1
    28     4     7   ar
    29    20    17   ar
    30    20    21   ar
    31    32    31   ar
    32    32    28   ar
    33    17    15   ar
    34    27    21    1
    35    21    18   ar
    36    31    30   ar
    37    15    23    1
    38    15    16   ar
    39    18    16   ar
    40    18    28    1
    41    24    23    1
    42    23    26    1
    43     6     7   ar
    44     6     8    1
    45    16    19    1
    46    28    29   ar
    47     7    12    1
    48    30    29   ar
    49    30    37    1
    50    38    37    1
    51    29    34    1
    52    12    13    3
    53    34    35    3
    54    35    36    1
    55    13    14    1
