@<TRIPOS>MOLECULE
mol_data/opt/m06hf/geoms/mol2/4fe4fe-.out
 28 29 0 0 0
SMALL
GASTEIGER

@<TRIPOS>ATOM
      1 C          -0.0422    0.2234    0.6548 C.ar    1  LIG1        0.1175
      2 C           1.3488    0.2074    0.6992 C.ar    1  LIG1       -0.0112
      3 C          -0.7155    1.2958    0.0648 C.ar    1  LIG1       -0.0190
      4 C           2.0892    1.2549    0.1493 C.ar    1  LIG1        0.0045
      5 H           1.8749   -0.6152    1.1709 H       1  LIG1        0.0660
      6 C           0.0122    2.3384   -0.4779 C.ar    1  LIG1       -0.0423
      7 C           1.4148    2.3318   -0.4488 C.ar    1  LIG1        0.0327
      8 H          -0.4940    3.1727   -0.9440 H       1  LIG1        0.0631
      9 H          -1.7961    1.2843    0.0460 H       1  LIG1        0.0654
     10 O          -0.7999   -0.7731    1.1751 O.3     1  LIG1       -0.5067
     11 H          -0.2476   -1.4571    1.5682 H       1  LIG1        0.2921
     12 C           2.1455    3.4251   -1.0464 C.1     1  LIG1       -0.0690
     13 C           2.7511    4.3466   -1.5254 C.1     1  LIG1       -0.1139
     14 H           3.2988    5.1564   -1.9494 H       1  LIG1        0.1232
     15 C           4.3342    2.1440    0.8870 C.ar    1  LIG1        0.1246
     16 C           5.7236    2.0250    0.9589 C.ar    1  LIG1       -0.0184
     17 C           3.5815    1.1840    0.1953 C.ar    1  LIG1        0.0260
     18 C           6.3664    0.9643    0.3445 C.ar    1  LIG1       -0.0429
     19 H           6.2703    2.7810    1.5052 H       1  LIG1        0.0654
     20 C           4.2414    0.1197   -0.4167 C.ar    1  LIG1       -0.0351
     21 C           5.6294   -0.0008   -0.3526 C.ar    1  LIG1        0.0255
     22 H           3.6648   -0.6187   -0.9588 H       1  LIG1        0.0637
     23 H           7.4427    0.8730    0.3975 H       1  LIG1        0.0631
     24 O           3.7752    3.1910    1.5325 O.3     1  LIG1       -0.5062
     25 H           2.8358    3.2620    1.3230 H       1  LIG1        0.2922
     26 C           6.2950   -1.1081   -0.9975 C.1     1  LIG1       -0.0696
     27 C           6.8502   -2.0296   -1.5344 C.1     1  LIG1       -0.1139
     28 H           7.3423   -2.8445   -2.0128 H       1  LIG1        0.1232
@<TRIPOS>BOND
     1    28    27    1
     2    14    13    1
     3    27    26    3
     4    13    12    3
     5    12     7    1
     6    26    21    1
     7    22    20    1
     8     8     6    1
     9     6     7   ar
    10     6     3   ar
    11     7     4   ar
    12    20    21   ar
    13    20    17   ar
    14    21    18   ar
    15     9     3    1
    16     3     1   ar
    17     4    17    1
    18     4     2   ar
    19    17    15   ar
    20    18    23    1
    21    18    16   ar
    22     1     2   ar
    23     1    10    1
    24     2     5    1
    25    15    16   ar
    26    15    24    1
    27    16    19    1
    28    10    11    1
    29    25    24    1
