@<TRIPOS>MOLECULE
mol_data/opt/m06hf/geoms/mol2/4fe4fe4fe-4fe-.out
 54 57 0 0 0
SMALL
GASTEIGER

@<TRIPOS>ATOM
      1 C          -0.2322    0.1372    0.1243 C.ar    1  LIG1        0.1175
      2 C           1.1581    0.1287    0.1478 C.ar    1  LIG1       -0.0112
      3 C          -0.9292    1.3452    0.0616 C.ar    1  LIG1       -0.0190
      4 C           1.8747    1.3239    0.1102 C.ar    1  LIG1        0.0045
      5 H           1.6974   -0.8097    0.2028 H       1  LIG1        0.0660
      6 C          -0.2217    2.5332    0.0290 C.ar    1  LIG1       -0.0423
      7 C           1.1799    2.5422    0.0547 C.ar    1  LIG1        0.0327
      8 H          -0.7448    3.4789   -0.0106 H       1  LIG1        0.0631
      9 H          -2.0100    1.3228    0.0433 H       1  LIG1        0.0654
     10 O          -0.9657   -1.0053    0.1543 O.3     1  LIG1       -0.5067
     11 H          -0.3909   -1.7758    0.2094 H       1  LIG1        0.2921
     12 C           1.8664    3.8133    0.0501 C.1     1  LIG1       -0.0690
     13 C           2.4038    4.8890    0.0471 C.1     1  LIG1       -0.1139
     14 H           2.8848    5.8396    0.0487 H       1  LIG1        0.1232
     15 C           4.0771    0.5552    1.0701 C.ar    1  LIG1        0.1252
     16 C           5.4693    0.5335    1.0574 C.ar    1  LIG1       -0.0106
     17 C           3.3667    1.2842    0.1040 C.ar    1  LIG1        0.0260
     18 C           6.1899    1.2179    0.0814 C.ar    1  LIG1        0.0045
     19 H           6.0090   -0.0120    1.8237 H       1  LIG1        0.0661
     20 C           4.0891    1.9634   -0.8693 C.ar    1  LIG1       -0.0345
     21 C           5.4874    1.9361   -0.9003 C.ar    1  LIG1        0.0333
     22 H           3.5588    2.5206   -1.6299 H       1  LIG1        0.0637
     23 O           3.3659   -0.1154    2.0107 O.3     1  LIG1       -0.5061
     24 H           3.9513   -0.5029    2.6707 H       1  LIG1        0.2922
     25 C           6.1901    2.6343   -1.9513 C.1     1  LIG1       -0.0690
     26 C           6.7827    3.2345   -2.8076 C.1     1  LIG1       -0.1139
     27 H           7.3145    3.7591   -3.5675 H       1  LIG1        0.1232
     28 C           8.4821    2.2827    0.2198 C.ar    1  LIG1        0.1252
     29 C           9.8715    2.1575    0.2789 C.ar    1  LIG1       -0.0106
     30 C           7.6813    1.1376    0.0964 C.ar    1  LIG1        0.0260
     31 C          10.4895    0.9102    0.2199 C.ar    1  LIG1        0.0045
     32 H          10.4606    3.0640    0.3445 H       1  LIG1        0.0661
     33 C           8.3036   -0.1070    0.0364 C.ar    1  LIG1       -0.0345
     34 C           9.6907   -0.2425    0.1002 C.ar    1  LIG1        0.0333
     35 H           7.6948   -0.9959   -0.0670 H       1  LIG1        0.0637
     36 O           7.9809    3.5313    0.3155 O.3     1  LIG1       -0.5061
     37 H           7.0498    3.5528    0.0615 H       1  LIG1        0.2922
     38 C          10.2707   -1.5635    0.0527 C.1     1  LIG1       -0.0690
     39 C          10.7336   -2.6718    0.0107 C.1     1  LIG1       -0.1139
     40 H          11.1572   -3.6486   -0.0264 H       1  LIG1        0.1232
     41 C          12.6655    1.3784    1.3731 C.ar    1  LIG1        0.1246
     42 C          14.0587    1.3140    1.4349 C.ar    1  LIG1       -0.0184
     43 C          11.9790    0.8232    0.2850 C.ar    1  LIG1        0.0260
     44 C          14.7685    0.6979    0.4192 C.ar    1  LIG1       -0.0429
     45 H          14.5530    1.7498    2.2916 H       1  LIG1        0.0654
     46 C          12.7051    0.1969   -0.7263 C.ar    1  LIG1       -0.0351
     47 C          14.0964    0.1308   -0.6717 C.ar    1  LIG1        0.0255
     48 H          12.1801   -0.2395   -1.5656 H       1  LIG1        0.0637
     49 H          15.8482    0.6464    0.4605 H       1  LIG1        0.0631
     50 O          12.0280    1.9867    2.4028 O.3     1  LIG1       -0.5062
     51 H          11.0716    1.8892    2.3091 H       1  LIG1        0.2922
     52 C          14.8371   -0.5137   -1.7305 C.1     1  LIG1       -0.0696
     53 C          15.4558   -1.0508   -2.6098 C.1     1  LIG1       -0.1139
     54 H          16.0023   -1.5260   -3.3905 H       1  LIG1        0.1232
@<TRIPOS>BOND
     1    27    26    1
     2    54    53    1
     3    26    25    3
     4    53    52    3
     5    25    21    1
     6    52    47    1
     7    22    20    1
     8    48    46    1
     9    21    20   ar
    10    21    18   ar
    11    20    17   ar
    12    46    47   ar
    13    46    43   ar
    14    47    44   ar
    15    35    33    1
    16    40    39    1
    17     8     6    1
    18    39    38    3
    19     6     7   ar
    20     6     3   ar
    21    33    30   ar
    22    33    34   ar
    23     9     3    1
    24    13    14    1
    25    13    12    3
    26    12     7    1
    27    38    34    1
    28     7     4   ar
    29    37    36    1
    30     3     1   ar
    31    18    30    1
    32    18    16   ar
    33    30    28   ar
    34    34    31   ar
    35    17     4    1
    36    17    15   ar
    37     4     2   ar
    38     1     2   ar
    39     1    10    1
    40     2     5    1
    41    10    11    1
    42    28    29   ar
    43    28    36    1
    44    31    29   ar
    45    31    43    1
    46    29    32    1
    47    43    41   ar
    48    44    49    1
    49    44    42   ar
    50    16    15   ar
    51    16    19    1
    52    15    23    1
    53    41    42   ar
    54    41    50    1
    55    42    45    1
    56    23    24    1
    57    51    50    1
