@<TRIPOS>MOLECULE
mol_data/opt/m06hf/geoms/mol2/4fe4fe-4fe4fe.out
 54 57 0 0 0
SMALL
GASTEIGER

@<TRIPOS>ATOM
      1 C          -0.0242    1.2871    1.5842 C.ar    1  LIG1        0.1175
      2 C           1.3541    1.2698    1.3930 C.ar    1  LIG1       -0.0112
      3 C          -0.8864    1.3726    0.4884 C.ar    1  LIG1       -0.0190
      4 C           1.8952    1.3319    0.1078 C.ar    1  LIG1        0.0045
      5 H           2.0263    1.2199    2.2426 H       1  LIG1        0.0660
      6 C          -0.3573    1.4383   -0.7873 C.ar    1  LIG1       -0.0423
      7 C           1.0300    1.4153   -0.9952 C.ar    1  LIG1        0.0327
      8 H          -1.0105    1.5006   -1.6471 H       1  LIG1        0.0631
      9 H          -1.9526    1.3873    0.6656 H       1  LIG1        0.0654
     10 O          -0.5892    1.2312    2.8154 O.3     1  LIG1       -0.5067
     11 H           0.0857    1.2182    3.5024 H       1  LIG1        0.2921
     12 C           1.5504    1.4701   -2.3414 C.1     1  LIG1       -0.0690
     13 C           1.9870    1.5466   -3.4589 C.1     1  LIG1       -0.1139
     14 H           2.3866    1.6092   -4.4447 H       1  LIG1        0.1232
     15 C           4.0993    2.3392   -0.6217 C.ar    1  LIG1        0.1252
     16 C           5.4930    2.2873   -0.6753 C.ar    1  LIG1       -0.0106
     17 C           3.3815    1.2842   -0.0428 C.ar    1  LIG1        0.0260
     18 C           6.1892    1.2002   -0.1668 C.ar    1  LIG1        0.0045
     19 H           6.0184    3.1144   -1.1336 H       1  LIG1        0.0661
     20 C           4.0876    0.1970    0.4697 C.ar    1  LIG1       -0.0345
     21 C           5.4786    0.1360    0.4166 C.ar    1  LIG1        0.0333
     22 H           3.5414   -0.6229    0.9184 H       1  LIG1        0.0637
     23 O           3.5117    3.4521   -1.1150 O.3     1  LIG1       -0.5061
     24 H           2.5615    3.3211   -1.2208 H       1  LIG1        0.2922
     25 C           6.1606   -0.9968    0.9951 C.1     1  LIG1       -0.0690
     26 C           6.7050   -1.9425    1.4990 C.1     1  LIG1       -0.1139
     27 H           7.1912   -2.7783    1.9448 H       1  LIG1        0.1232
     28 C           8.3706    0.2068   -0.9332 C.ar    1  LIG1        0.1252
     29 C           9.7609    0.2013   -0.9591 C.ar    1  LIG1       -0.0106
     30 C           7.6804    1.1935   -0.2164 C.ar    1  LIG1        0.0260
     31 C          10.4964    1.1762   -0.2877 C.ar    1  LIG1        0.0045
     32 H          10.2864   -0.5605   -1.5226 H       1  LIG1        0.0661
     33 C           8.4138    2.1752    0.4343 C.ar    1  LIG1       -0.0345
     34 C           9.8132    2.1840    0.4103 C.ar    1  LIG1        0.0333
     35 H           7.8924    2.9479    0.9843 H       1  LIG1        0.0637
     36 O           7.6329   -0.7105   -1.6025 O.3     1  LIG1       -0.5061
     37 H           8.1930   -1.4128   -1.9488 H       1  LIG1        0.2922
     38 C          10.5097    3.2499    1.0927 C.1     1  LIG1       -0.0690
     39 C          11.0605    4.1509    1.6678 C.1     1  LIG1       -0.1139
     40 H          11.5575    4.9468    2.1727 H       1  LIG1        0.1232
     41 C          12.6972    1.0246   -1.5076 C.ar    1  LIG1        0.1246
     42 C          14.0916    0.9846   -1.5078 C.ar    1  LIG1       -0.0184
     43 C          11.9885    1.1215   -0.3022 C.ar    1  LIG1        0.0260
     44 C          14.7911    1.0343   -0.3113 C.ar    1  LIG1       -0.0429
     45 H          14.6255    0.9133   -2.4482 H       1  LIG1        0.0654
     46 C          12.7052    1.1641    0.8908 C.ar    1  LIG1       -0.0351
     47 C          14.1014    1.1207    0.9002 C.ar    1  LIG1        0.0255
     48 H          12.1696    1.2365    1.8277 H       1  LIG1        0.0637
     49 H          15.8721    1.0026   -0.3084 H       1  LIG1        0.0631
     50 O          11.9848    0.9700   -2.6647 O.3     1  LIG1       -0.5062
     51 H          12.5719    1.0355   -3.4250 H       1  LIG1        0.2922
     52 C          14.8226    1.1648    2.1504 C.1     1  LIG1       -0.0696
     53 C          15.4201    1.2010    3.1925 C.1     1  LIG1       -0.1139
     54 H          15.9441    1.2331    4.1193 H       1  LIG1        0.1232
@<TRIPOS>BOND
     1    14    13    1
     2    13    12    3
     3    51    50    1
     4    50    41    1
     5    45    42    1
     6    12     7    1
     7    37    36    1
     8     8     6    1
     9    36    28    1
    10    32    29    1
    11    42    41   ar
    12    42    44   ar
    13    41    43   ar
    14    24    23    1
    15    19    16    1
    16    23    15    1
    17     7     6   ar
    18     7     4   ar
    19    29    28   ar
    20    29    31   ar
    21    28    30   ar
    22     6     3   ar
    23    16    15   ar
    24    16    18   ar
    25    15    17   ar
    26    44    49    1
    27    44    47   ar
    28    43    31    1
    29    43    46   ar
    30    31    34   ar
    31    30    18    1
    32    30    33   ar
    33    18    21   ar
    34    17     4    1
    35    17    20   ar
    36     4     2   ar
    37    34    33   ar
    38    34    38    1
    39    21    20   ar
    40    21    25    1
    41    33    35    1
    42    20    22    1
    43     3     9    1
    44     3     1   ar
    45    46    47   ar
    46    46    48    1
    47    47    52    1
    48    25    26    3
    49    38    39    3
    50     2     1   ar
    51     2     5    1
    52    26    27    1
    53     1    10    1
    54    39    40    1
    55    52    53    3
    56    10    11    1
    57    53    54    1
