@<TRIPOS>MOLECULE
mol_data/opt/m06hf/geoms/mol2/4fe4fe4fe-4fe.out
 54 57 0 0 0
SMALL
GASTEIGER

@<TRIPOS>ATOM
      1 C          -0.1037    1.1567    1.6753 C.ar    1  LIG1        0.1175
      2 C           1.2830    1.1772    1.5739 C.ar    1  LIG1       -0.0112
      3 C          -0.8963    1.2940    0.5350 C.ar    1  LIG1       -0.0190
      4 C           1.9006    1.3377    0.3341 C.ar    1  LIG1        0.0045
      5 H           1.8980    1.0606    2.4588 H       1  LIG1        0.0660
      6 C          -0.2875    1.4475   -0.6972 C.ar    1  LIG1       -0.0423
      7 C           1.1090    1.4690   -0.8169 C.ar    1  LIG1        0.0327
      8 H          -0.8851    1.5458   -1.5932 H       1  LIG1        0.0631
      9 H          -1.9719    1.2724    0.6425 H       1  LIG1        0.0654
     10 O          -0.7439    1.0098    2.8642 O.3     1  LIG1       -0.5067
     11 H          -0.1103    0.9093    3.5825 H       1  LIG1        0.2921
     12 C           1.6910    1.5997   -2.1327 C.1     1  LIG1       -0.0690
     13 C           2.1434    1.7080   -3.2415 C.1     1  LIG1       -0.1139
     14 H           2.5551    1.8000   -4.2199 H       1  LIG1        0.1232
     15 C           4.1827    0.3887    0.8396 C.ar    1  LIG1        0.1252
     16 C           5.5712    0.4427    0.7504 C.ar    1  LIG1       -0.0106
     17 C           3.3901    1.3888    0.2564 C.ar    1  LIG1        0.0260
     18 C           6.2132    1.4886    0.0910 C.ar    1  LIG1        0.0045
     19 H           6.1725   -0.3317    1.2140 H       1  LIG1        0.0661
     20 C           4.0324    2.4369   -0.3911 C.ar    1  LIG1       -0.0345
     21 C           5.4257    2.5000   -0.4825 C.ar    1  LIG1        0.0333
     22 H           3.4407    3.2203   -0.8459 H       1  LIG1        0.0637
     23 O           3.5534   -0.6207    1.4931 O.3     1  LIG1       -0.5061
     24 H           4.1889   -1.2831    1.7853 H       1  LIG1        0.2922
     25 C           6.0383    3.6129   -1.1688 C.1     1  LIG1       -0.0690
     26 C           6.5667    4.5571   -1.6955 C.1     1  LIG1       -0.1139
     27 H           7.0384    5.3834   -2.1757 H       1  LIG1        0.1232
     28 C           8.5213    2.4890    0.4822 C.ar    1  LIG1        0.1252
     29 C           9.9099    2.3550    0.4372 C.ar    1  LIG1       -0.0106
     30 C           7.7042    1.4595   -0.0073 C.ar    1  LIG1        0.0260
     31 C          10.5103    1.2249   -0.0990 C.ar    1  LIG1        0.0045
     32 H          10.5095    3.1708    0.8186 H       1  LIG1        0.0661
     33 C           8.3146    0.3256   -0.5458 C.ar    1  LIG1       -0.0345
     34 C           9.7000    0.1905   -0.6003 C.ar    1  LIG1        0.0333
     35 H           7.6946   -0.4724   -0.9339 H       1  LIG1        0.0637
     36 O           8.0403    3.6165    1.0611 O.3     1  LIG1       -0.5061
     37 H           7.2156    3.8952    0.6423 H       1  LIG1        0.2922
     38 C          10.2744   -1.0215   -1.1344 C.1     1  LIG1       -0.0690
     39 C          10.7309   -2.0460   -1.5670 C.1     1  LIG1       -0.1139
     40 H          11.1398   -2.9527   -1.9476 H       1  LIG1        0.1232
     41 C          12.6911    1.0173   -1.3288 C.ar    1  LIG1        0.1246
     42 C          14.0808    0.9116   -1.3392 C.ar    1  LIG1       -0.0184
     43 C          11.9990    1.1184   -0.1137 C.ar    1  LIG1        0.0260
     44 C          14.7890    0.9162   -0.1450 C.ar    1  LIG1       -0.0429
     45 H          14.6059    0.8390   -2.2843 H       1  LIG1        0.0654
     46 C          12.7203    1.1357    1.0736 C.ar    1  LIG1       -0.0351
     47 C          14.1157    1.0348    1.0724 C.ar    1  LIG1        0.0255
     48 H          12.1913    1.2137    2.0144 H       1  LIG1        0.0637
     49 H          15.8675    0.8346   -0.1500 H       1  LIG1        0.0631
     50 O          11.9581    1.0598   -2.4666 O.3     1  LIG1       -0.5062
     51 H          12.4944    0.8298   -3.2320 H       1  LIG1        0.2922
     52 C          14.8475    1.0502    2.3168 C.1     1  LIG1       -0.0696
     53 C          15.4538    1.0660    3.3545 C.1     1  LIG1       -0.1139
     54 H          15.9868    1.0802    4.2765 H       1  LIG1        0.1232
@<TRIPOS>BOND
     1    14    13    1
     2    13    12    3
     3    51    50    1
     4    50    41    1
     5    45    42    1
     6    27    26    1
     7    12     7    1
     8    40    39    1
     9    26    25    3
    10     8     6    1
    11    39    38    3
    12    42    41   ar
    13    42    44   ar
    14    41    43   ar
    15    25    21    1
    16    38    34    1
    17    35    33    1
    18    22    20    1
    19     7     6   ar
    20     7     4   ar
    21     6     3   ar
    22    34    33   ar
    23    34    31   ar
    24    33    30   ar
    25    21    20   ar
    26    21    18   ar
    27    20    17   ar
    28    49    44    1
    29    44    47   ar
    30    43    31    1
    31    43    46   ar
    32    31    29   ar
    33    30    18    1
    34    30    28   ar
    35    18    16   ar
    36    17     4    1
    37    17    15   ar
    38     4     2   ar
    39    29    28   ar
    40    29    32    1
    41    28    36    1
    42     3     9    1
    43     3     1   ar
    44    37    36    1
    45    16    15   ar
    46    16    19    1
    47    15    23    1
    48    47    46   ar
    49    47    52    1
    50    46    48    1
    51    23    24    1
    52     2     1   ar
    53     2     5    1
    54     1    10    1
    55    52    53    3
    56    10    11    1
    57    53    54    1
