@<TRIPOS>MOLECULE
mol_data/opt/m06hf/geoms/mol2/4fe4fe-4fe-4fe-.out
 54 57 0 0 0
SMALL
GASTEIGER

@<TRIPOS>ATOM
      1 C          -0.2319    0.3582    0.8188 C.ar    1  LIG1        0.1175
      2 C           1.1592    0.3236    0.7853 C.ar    1  LIG1       -0.0112
      3 C          -0.9249    1.4054    0.2059 C.ar    1  LIG1       -0.0190
      4 C           1.8767    1.3300    0.1375 C.ar    1  LIG1        0.0045
      5 H           1.7015   -0.4792    1.2725 H       1  LIG1        0.0660
      6 C          -0.2186    2.4071   -0.4335 C.ar    1  LIG1       -0.0423
      7 C           1.1837    2.3833   -0.4803 C.ar    1  LIG1        0.0327
      8 H          -0.7411    3.2216   -0.9163 H       1  LIG1        0.0631
      9 H          -2.0051    1.4073    0.2489 H       1  LIG1        0.0654
     10 O          -0.9702   -0.5934    1.4385 O.3     1  LIG1       -0.5067
     11 H          -0.4067   -1.2532    1.8567 H       1  LIG1        0.2921
     12 C           1.8937    3.4343   -1.1714 C.1     1  LIG1       -0.0690
     13 C           2.4776    4.3267   -1.7259 C.1     1  LIG1       -0.1139
     14 H           2.9976    5.1166   -2.2170 H       1  LIG1        0.1232
     15 C           4.1746    2.2281    0.6832 C.ar    1  LIG1        0.1252
     16 C           5.5629    2.0844    0.6786 C.ar    1  LIG1       -0.0106
     17 C           3.3676    1.2391    0.1021 C.ar    1  LIG1        0.0260
     18 C           6.1729    0.9750    0.0962 C.ar    1  LIG1        0.0045
     19 H           6.1540    2.8486    1.1687 H       1  LIG1        0.0661
     20 C           3.9808    0.1287   -0.4714 C.ar    1  LIG1       -0.0345
     21 C           5.3685   -0.0181   -0.4936 C.ar    1  LIG1        0.0333
     22 H           3.3656   -0.6333   -0.9325 H       1  LIG1        0.0637
     23 O           3.6776    3.3212    1.2953 O.3     1  LIG1       -0.5061
     24 H           2.7284    3.4047    1.1392 H       1  LIG1        0.2922
     25 C           5.9422   -1.1761   -1.1366 C.1     1  LIG1       -0.0690
     26 C           6.3966   -2.1492   -1.6769 C.1     1  LIG1       -0.1139
     27 H           6.8107   -3.0073   -2.1547 H       1  LIG1        0.1232
     28 C           8.4339    1.9128   -0.4380 C.ar    1  LIG1        0.1252
     29 C           9.8267    1.8302   -0.4283 C.ar    1  LIG1       -0.0106
     30 C           7.6622    0.8730    0.0968 C.ar    1  LIG1        0.0260
     31 C          10.4741    0.7187    0.1068 C.ar    1  LIG1        0.0045
     32 H          10.3920    2.6366   -0.8789 H       1  LIG1        0.0661
     33 C           8.3120   -0.2426    0.6185 C.ar    1  LIG1       -0.0345
     34 C           9.7039   -0.3331    0.6385 C.ar    1  LIG1        0.0333
     35 H           7.7253   -1.0544    1.0275 H       1  LIG1        0.0637
     36 O           7.8853    3.0190   -0.9909 O.3     1  LIG1       -0.5061
     37 H           6.9265    2.9199   -1.0601 H       1  LIG1        0.2922
     38 C          10.3256   -1.5001    1.2185 C.1     1  LIG1       -0.0690
     39 C          10.8250   -2.4802    1.7022 C.1     1  LIG1       -0.1139
     40 H          11.2792   -3.3441    2.1289 H       1  LIG1        0.1232
     41 C          12.6910    1.6937    0.7406 C.ar    1  LIG1        0.1246
     42 C          14.0868    1.6809    0.7263 C.ar    1  LIG1       -0.0184
     43 C          11.9672    0.6746    0.1066 C.ar    1  LIG1        0.0260
     44 C          14.7622    0.6573    0.0850 C.ar    1  LIG1       -0.0429
     45 H          14.6108    2.4831    1.2266 H       1  LIG1        0.0654
     46 C          12.6590   -0.3572   -0.5242 C.ar    1  LIG1       -0.0351
     47 C          14.0533   -0.3745   -0.5442 C.ar    1  LIG1        0.0255
     48 H          12.1053   -1.1510   -1.0077 H       1  LIG1        0.0637
     49 H          15.8435    0.6438    0.0669 H       1  LIG1        0.0631
     50 O          12.0861    2.7181    1.3893 O.3     1  LIG1       -0.5062
     51 H          11.1302    2.5786    1.4125 H       1  LIG1        0.2922
     52 C          14.7576   -1.4436   -1.2120 C.1     1  LIG1       -0.0696
     53 C          15.3445   -2.3321   -1.7694 C.1     1  LIG1       -0.1139
     54 H          15.8634   -3.1191   -2.2648 H       1  LIG1        0.1232
@<TRIPOS>BOND
     1    54    53    1
     2    14    13    1
     3    27    26    1
     4    53    52    3
     5    13    12    3
     6    26    25    3
     7    52    47    1
     8    12     7    1
     9    25    21    1
    10    37    36    1
    11    48    46    1
    12    36    28    1
    13    22    20    1
    14     8     6    1
    15    32    29    1
    16    47    46   ar
    17    47    44   ar
    18    46    43   ar
    19    21    20   ar
    20    21    18   ar
    21     7     6   ar
    22     7     4   ar
    23    20    17   ar
    24    28    29   ar
    25    28    30   ar
    26     6     3   ar
    27    29    31   ar
    28    49    44    1
    29    44    42   ar
    30    18    30    1
    31    18    16   ar
    32    30    33   ar
    33    17     4    1
    34    17    15   ar
    35    43    31    1
    36    43    41   ar
    37    31    34   ar
    38     4     2   ar
    39     3     9    1
    40     3     1   ar
    41    33    34   ar
    42    33    35    1
    43    34    38    1
    44    16    15   ar
    45    16    19    1
    46    15    23    1
    47    42    41   ar
    48    42    45    1
    49    41    50    1
    50     2     1   ar
    51     2     5    1
    52     1    10    1
    53    24    23    1
    54    38    39    3
    55    50    51    1
    56    10    11    1
    57    39    40    1
