@<TRIPOS>MOLECULE
mol_data/opt/m06hf/geoms/mol2/4fe4fe-4fe-4fe.out
 54 57 0 0 0
SMALL
GASTEIGER

@<TRIPOS>ATOM
      1 C           0.0020    1.4111    1.6982 C.ar    1  LIG1        0.1175
      2 C           1.3748    1.3472    1.4778 C.ar    1  LIG1       -0.0112
      3 C          -0.8777    1.5695    0.6248 C.ar    1  LIG1       -0.0190
      4 C           1.8946    1.4370    0.1858 C.ar    1  LIG1        0.0045
      5 H           2.0584    1.2431    2.3130 H       1  LIG1        0.0660
      6 C          -0.3697    1.6629   -0.6577 C.ar    1  LIG1       -0.0423
      7 C           1.0109    1.5951   -0.8929 C.ar    1  LIG1        0.0327
      8 H          -1.0355    1.7842   -1.5013 H       1  LIG1        0.0631
      9 H          -1.9389    1.6181    0.8240 H       1  LIG1        0.0654
     10 O          -0.5400    1.3326    2.9377 O.3     1  LIG1       -0.5067
     11 H           0.1445    1.2370    3.6083 H       1  LIG1        0.2921
     12 C           1.5081    1.6954   -2.2448 C.1     1  LIG1       -0.0690
     13 C           1.9387    1.8236   -3.3610 C.1     1  LIG1       -0.1139
     14 H           2.3265    1.9220   -4.3490 H       1  LIG1        0.1232
     15 C           4.1497    2.3417   -0.5721 C.ar    1  LIG1        0.1252
     16 C           5.5408    2.2264   -0.6004 C.ar    1  LIG1       -0.0106
     17 C           3.3764    1.3286    0.0160 C.ar    1  LIG1        0.0260
     18 C           6.1931    1.1191   -0.0625 C.ar    1  LIG1        0.0045
     19 H           6.1025    3.0196   -1.0793 H       1  LIG1        0.0661
     20 C           4.0325    0.2141    0.5370 C.ar    1  LIG1       -0.0345
     21 C           5.4216    0.0911    0.5121 C.ar    1  LIG1        0.0333
     22 H           3.4462   -0.5804    0.9812 H       1  LIG1        0.0637
     23 O           3.6291    3.4777   -1.0865 O.3     1  LIG1       -0.5061
     24 H           2.7299    3.3354   -1.4078 H       1  LIG1        0.2922
     25 C           6.0329   -1.0793    1.0959 C.1     1  LIG1       -0.0690
     26 C           6.5193   -2.0632    1.5866 C.1     1  LIG1       -0.1139
     27 H           6.9637   -2.9321    2.0151 H       1  LIG1        0.1232
     28 C           8.4446    2.0839    0.4594 C.ar    1  LIG1        0.1252
     29 C           9.8379    2.0366    0.4109 C.ar    1  LIG1       -0.0106
     30 C           7.6839    1.0511   -0.1016 C.ar    1  LIG1        0.0260
     31 C          10.4899    0.9678   -0.1870 C.ar    1  LIG1        0.0045
     32 H          10.3973    2.8563    0.8413 H       1  LIG1        0.0661
     33 C           8.3440   -0.0283   -0.6855 C.ar    1  LIG1       -0.0345
     34 C           9.7350   -0.0856   -0.7358 C.ar    1  LIG1        0.0333
     35 H           7.7654   -0.8411   -1.1041 H       1  LIG1        0.0637
     36 O           7.8836    3.1573    1.0675 O.3     1  LIG1       -0.5061
     37 H           6.9270    3.0415    1.1345 H       1  LIG1        0.2922
     38 C          10.3739   -1.2421   -1.3176 C.1     1  LIG1       -0.0690
     39 C          10.8798   -2.2243   -1.7907 C.1     1  LIG1       -0.1139
     40 H          11.3290   -3.0957   -2.2061 H       1  LIG1        0.1232
     41 C          12.6831    0.9182   -1.4144 C.ar    1  LIG1        0.1246
     42 C          14.0766    0.8823   -1.4206 C.ar    1  LIG1       -0.0184
     43 C          11.9821    0.9362   -0.2003 C.ar    1  LIG1        0.0260
     44 C          14.7797    0.8770   -0.2236 C.ar    1  LIG1       -0.0429
     45 H          14.6085    0.8710   -2.3647 H       1  LIG1        0.0654
     46 C          12.6980    0.9430    0.9904 C.ar    1  LIG1       -0.0351
     47 C          14.0968    0.9124    0.9935 C.ar    1  LIG1        0.0255
     48 H          12.1621    0.9556    1.9306 H       1  LIG1        0.0637
     49 H          15.8609    0.8518   -0.2259 H       1  LIG1        0.0631
     50 O          11.9557    0.9630   -2.5554 O.3     1  LIG1       -0.5062
     51 H          12.5161    0.8240   -3.3255 H       1  LIG1        0.2922
     52 C          14.8230    0.9157    2.2412 C.1     1  LIG1       -0.0696
     53 C          15.4281    0.9218    3.2796 C.1     1  LIG1       -0.1139
     54 H          15.9610    0.9282    4.2017 H       1  LIG1        0.1232
@<TRIPOS>BOND
     1    14    13    1
     2    13    12    3
     3    51    50    1
     4    50    41    1
     5    45    42    1
     6    12     7    1
     7    40    39    1
     8    39    38    3
     9     8     6    1
    10    42    41   ar
    11    42    44   ar
    12    41    43   ar
    13    24    23    1
    14    38    34    1
    15    35    33    1
    16    23    15    1
    17    19    16    1
    18     7     6   ar
    19     7     4   ar
    20    34    33   ar
    21    34    31   ar
    22    33    30   ar
    23     6     3   ar
    24    16    15   ar
    25    16    18   ar
    26    15    17   ar
    27    49    44    1
    28    44    47   ar
    29    43    31    1
    30    43    46   ar
    31    31    29   ar
    32    30    18    1
    33    30    28   ar
    34    18    21   ar
    35    17     4    1
    36    17    20   ar
    37     4     2   ar
    38    29    28   ar
    39    29    32    1
    40    28    36    1
    41    21    20   ar
    42    21    25    1
    43    20    22    1
    44     3     9    1
    45     3     1   ar
    46    46    47   ar
    47    46    48    1
    48    47    52    1
    49    36    37    1
    50    25    26    3
    51     2     1   ar
    52     2     5    1
    53    26    27    1
    54     1    10    1
    55    52    53    3
    56    10    11    1
    57    53    54    1
