@<TRIPOS>MOLECULE
mol_data/opt/m06hf/geoms/mol2/4ff.out
 14 14 0 0 0
SMALL
GASTEIGER

@<TRIPOS>ATOM
      1 C           0.0950    0.0391    0.0004 C.ar    1  LIG1        0.1171
      2 C           1.4880    0.0379    0.0000 C.ar    1  LIG1       -0.0167
      3 C          -0.5945    1.2473    0.0003 C.ar    1  LIG1       -0.0167
      4 C           2.1880    1.2390   -0.0005 C.ar    1  LIG1       -0.0167
      5 H           2.0308   -0.9004    0.0001 H       1  LIG1        0.0655
      6 C           0.1055    2.4484   -0.0002 C.ar    1  LIG1       -0.0167
      7 C           1.4985    2.4472   -0.0006 C.ar    1  LIG1        0.1171
      8 H          -0.4373    3.3868   -0.0003 H       1  LIG1        0.0655
      9 H           3.2690    1.2573   -0.0008 H       1  LIG1        0.0655
     10 H          -1.6754    1.2291    0.0006 H       1  LIG1        0.0655
     11 O          -0.6468   -1.1088    0.0009 O.3     1  LIG1       -0.5068
     12 H          -0.0721   -1.8804    0.0010 H       1  LIG1        0.2921
     13 O           2.2403    3.5951   -0.0011 O.3     1  LIG1       -0.5068
     14 H           1.6656    4.3668   -0.0011 H       1  LIG1        0.2921
@<TRIPOS>BOND
     1    14    13    1
     2    13     7    1
     3     9     4    1
     4     7     4   ar
     5     7     6   ar
     6     4     2   ar
     7     8     6    1
     8     6     3   ar
     9     2     5    1
    10     2     1   ar
    11     3     1   ar
    12     3    10    1
    13     1    11    1
    14    11    12    1
