@<TRIPOS>MOLECULE
mol_data/opt/m06hf/geoms/mol2/4ff4ff4ff4ff-.out
 50 53 0 0 0
SMALL
GASTEIGER

@<TRIPOS>ATOM
      1 C          -0.2392    0.0627    0.4598 C.ar    1  LIG1        0.1177
      2 C           1.1499    0.0723    0.4471 C.ar    1  LIG1       -0.0089
      3 C          -0.9446    1.1720    0.0045 C.ar    1  LIG1       -0.0167
      4 C           1.8605    1.1813   -0.0181 C.ar    1  LIG1        0.0306
      5 H           1.7045   -0.7944    0.7863 H       1  LIG1        0.0661
      6 C          -0.2501    2.2814   -0.4549 C.ar    1  LIG1       -0.0161
      7 C           1.1432    2.2944   -0.4701 C.ar    1  LIG1        0.1249
      8 H          -0.7949    3.1507   -0.8059 H       1  LIG1        0.0655
      9 H          -2.0255    1.1483    0.0190 H       1  LIG1        0.0655
     10 O          -0.9637   -1.0049    0.9090 O.3     1  LIG1       -0.5067
     11 H          -0.3749   -1.7159    1.1821 H       1  LIG1        0.2921
     12 O           1.8390    3.3865   -0.9175 O.3     1  LIG1       -0.5062
     13 H           1.2398    3.9983   -1.3570 H       1  LIG1        0.2922
     14 C           4.0805    0.0675   -0.4640 C.ar    1  LIG1        0.1255
     15 C           5.4695    0.0841   -0.4395 C.ar    1  LIG1       -0.0083
     16 C           3.3530    1.1758   -0.0136 C.ar    1  LIG1        0.0306
     17 C           6.1810    1.1875    0.0308 C.ar    1  LIG1        0.0306
     18 H           6.0224   -0.7828   -0.7817 H       1  LIG1        0.0661
     19 C           4.0650    2.2783    0.4559 C.ar    1  LIG1       -0.0083
     20 C           5.4540    2.2946    0.4825 C.ar    1  LIG1        0.1255
     21 H           3.5126    3.1474    0.7933 H       1  LIG1        0.0661
     22 O           3.3930   -1.0207   -0.9279 O.3     1  LIG1       -0.5061
     23 H           4.0104   -1.6785   -1.2648 H       1  LIG1        0.2922
     24 O           6.1404    3.3865    0.9434 O.3     1  LIG1       -0.5061
     25 H           5.5325    3.9947    1.3766 H       1  LIG1        0.2922
     26 C           8.4066    0.0771    0.4660 C.ar    1  LIG1        0.1255
     27 C           9.7966    0.1064    0.4521 C.ar    1  LIG1       -0.0083
     28 C           7.6720    1.1877    0.0321 C.ar    1  LIG1        0.0306
     29 C          10.5077    1.2229    0.0105 C.ar    1  LIG1        0.0306
     30 H          10.3541   -0.7519    0.8114 H       1  LIG1        0.0661
     31 C           8.3799    2.3055   -0.4079 C.ar    1  LIG1       -0.0083
     32 C           9.7666    2.3244   -0.4202 C.ar    1  LIG1        0.1255
     33 H           7.8244    3.1770   -0.7336 H       1  LIG1        0.0661
     34 O           7.7265   -1.0248    0.9041 O.3     1  LIG1       -0.5061
     35 H           8.3332   -1.6378    1.3323 H       1  LIG1        0.2922
     36 O          10.4580    3.4324   -0.8614 O.3     1  LIG1       -0.5061
     37 H           9.8498    4.1093   -1.1780 H       1  LIG1        0.2922
     38 C          12.7935    2.1966    0.5413 C.ar    1  LIG1        0.1249
     39 C          14.1770    2.0440    0.5772 C.ar    1  LIG1       -0.0161
     40 C          12.0009    1.1769   -0.0095 C.ar    1  LIG1        0.0306
     41 C          14.7870    0.9033    0.0719 C.ar    1  LIG1       -0.0167
     42 H          14.7584    2.8426    1.0174 H       1  LIG1        0.0655
     43 C          12.6240    0.0434   -0.5363 C.ar    1  LIG1       -0.0089
     44 C          14.0052   -0.0992   -0.4966 C.ar    1  LIG1        0.1177
     45 H          12.0368   -0.7410   -0.9965 H       1  LIG1        0.0661
     46 H          15.8654    0.7987    0.1125 H       1  LIG1        0.0655
     47 O          12.2658    3.3230    1.0968 O.3     1  LIG1       -0.5062
     48 H          11.5650    3.6551    0.5115 H       1  LIG1        0.2922
     49 O          14.5357   -1.2427   -1.0264 O.3     1  LIG1       -0.5067
     50 H          15.4970   -1.2146   -0.9852 H       1  LIG1        0.2921
@<TRIPOS>BOND
     1    13    12    1
     2    23    22    1
     3    37    36    1
     4    49    50    1
     5    49    44    1
     6    45    43    1
     7    22    14    1
     8    12     7    1
     9    36    32    1
    10     8     6    1
    11    18    15    1
    12    33    31    1
    13    43    44   ar
    14    43    40   ar
    15    44    41   ar
    16     7     6   ar
    17     7     4   ar
    18    14    15   ar
    19    14    16   ar
    20     6     3   ar
    21    15    17   ar
    22    32    31   ar
    23    32    29   ar
    24    31    28   ar
    25     4    16    1
    26     4     2   ar
    27    16    19   ar
    28    40    29    1
    29    40    38   ar
    30     3     9    1
    31     3     1   ar
    32    29    27   ar
    33    17    28    1
    34    17    20   ar
    35    28    26   ar
    36    41    46    1
    37    41    39   ar
    38     2     1   ar
    39     2     5    1
    40    27    26   ar
    41    27    30    1
    42    19    20   ar
    43    19    21    1
    44     1    10    1
    45    26    34    1
    46    20    24    1
    47    48    47    1
    48    38    39   ar
    49    38    47    1
    50    39    42    1
    51    34    35    1
    52    10    11    1
    53    24    25    1
