@<TRIPOS>MOLECULE
mol_data/opt/m06hf/geoms/mol2/4ff4ff.out
 26 27 0 0 0
SMALL
GASTEIGER

@<TRIPOS>ATOM
      1 C          -0.0230    0.1127    0.4364 C.ar    1  LIG1        0.1177
      2 C           1.3662    0.1075    0.4290 C.ar    1  LIG1       -0.0089
      3 C          -0.7149    1.2415    0.0096 C.ar    1  LIG1       -0.0167
      4 C           2.0951    1.2157   -0.0109 C.ar    1  LIG1        0.0306
      5 H           1.9068   -0.7726    0.7537 H       1  LIG1        0.0661
      6 C          -0.0039    2.3519   -0.4210 C.ar    1  LIG1       -0.0161
      7 C           1.3895    2.3476   -0.4381 C.ar    1  LIG1        0.1249
      8 H          -0.5371    3.2359   -0.7527 H       1  LIG1        0.0655
      9 H          -1.7959    1.2322    0.0217 H       1  LIG1        0.0655
     10 O          -0.7601   -0.9595    0.8532 O.3     1  LIG1       -0.5067
     11 H          -0.1801   -1.6917    1.0853 H       1  LIG1        0.2921
     12 O           2.0930    3.4421   -0.8668 O.3     1  LIG1       -0.5062
     13 H           1.4898    4.0898   -1.2448 H       1  LIG1        0.2922
     14 C           4.2982    0.0545   -0.4189 C.ar    1  LIG1        0.1249
     15 C           5.6914    0.0502   -0.3883 C.ar    1  LIG1       -0.0161
     16 C           3.5886    1.1883   -0.0036 C.ar    1  LIG1        0.0306
     17 C           6.3982    1.1624    0.0442 C.ar    1  LIG1       -0.0167
     18 H           6.2277   -0.8353   -0.7109 H       1  LIG1        0.0655
     19 C           4.3134    2.2983    0.4385 C.ar    1  LIG1       -0.0089
     20 C           5.7024    2.2932    0.4594 C.ar    1  LIG1        0.1177
     21 H           3.7697    3.1799    0.7541 H       1  LIG1        0.0661
     22 H           7.4791    1.1718    0.0668 H       1  LIG1        0.0655
     23 O           3.5988   -1.0419   -0.8495 O.3     1  LIG1       -0.5062
     24 H           4.2056   -1.6913   -1.2187 H       1  LIG1        0.2922
     25 O           6.4355    3.3671    0.8786 O.3     1  LIG1       -0.5067
     26 H           5.8534    4.1004    1.1018 H       1  LIG1        0.2921
@<TRIPOS>BOND
     1    13    12    1
     2    24    23    1
     3    12     7    1
     4    23    14    1
     5     8     6    1
     6    18    15    1
     7     7     6   ar
     8     7     4   ar
     9     6     3   ar
    10    14    15   ar
    11    14    16   ar
    12    15    17   ar
    13     4    16    1
    14     4     2   ar
    15    16    19   ar
    16     3     9    1
    17     3     1   ar
    18    17    22    1
    19    17    20   ar
    20     2     1   ar
    21     2     5    1
    22     1    10    1
    23    19    20   ar
    24    19    21    1
    25    20    25    1
    26    10    11    1
    27    25    26    1
