@<TRIPOS>MOLECULE
mol_data/opt/m06hf/geoms/mol2/4ff4ff-.out
 26 27 0 0 0
SMALL
GASTEIGER

@<TRIPOS>ATOM
      1 C           0.0088    0.0946   -0.4383 C.ar    1  LIG1        0.1177
      2 C           1.3983    0.1373   -0.4389 C.ar    1  LIG1       -0.0089
      3 C          -0.7189    1.2001   -0.0066 C.ar    1  LIG1       -0.0167
      4 C           2.0908    1.2719   -0.0066 C.ar    1  LIG1        0.0306
      5 H           1.9700   -0.7122   -0.7962 H       1  LIG1        0.0661
      6 C          -0.0460    2.3370    0.4156 C.ar    1  LIG1       -0.0161
      7 C           1.3449    2.3716    0.4190 C.ar    1  LIG1        0.1249
      8 H          -0.6058    3.2038    0.7487 H       1  LIG1        0.0655
      9 H          -1.7989    1.1520   -0.0142 H       1  LIG1        0.0655
     10 O          -0.6954   -0.9948   -0.8571 O.3     1  LIG1       -0.5067
     11 H          -0.1002   -1.7060   -1.1158 H       1  LIG1        0.2921
     12 O           2.0322    3.4897    0.8401 O.3     1  LIG1       -0.5062
     13 H           1.4338    4.1370    1.2278 H       1  LIG1        0.2922
     14 C           4.3616    2.2643   -0.5660 C.ar    1  LIG1        0.1249
     15 C           5.7466    2.1290   -0.6060 C.ar    1  LIG1       -0.0161
     16 C           3.5852    1.2459    0.0084 C.ar    1  LIG1        0.0306
     17 C           6.3731    1.0071   -0.0790 C.ar    1  LIG1       -0.0167
     18 H           6.3156    2.9256   -1.0653 H       1  LIG1        0.0655
     19 C           4.2242    0.1314    0.5556 C.ar    1  LIG1       -0.0089
     20 C           5.6071    0.0062    0.5127 C.ar    1  LIG1        0.1177
     21 H           3.6491   -0.6521    1.0322 H       1  LIG1        0.0661
     22 H           7.4529    0.9166   -0.1219 H       1  LIG1        0.0655
     23 O           3.8151    3.3717   -1.1437 O.3     1  LIG1       -0.5062
     24 H           3.1255    3.7182   -0.5543 H       1  LIG1        0.2922
     25 O           6.1547   -1.1178    1.0657 O.3     1  LIG1       -0.5067
     26 H           7.1141   -1.0916    0.9923 H       1  LIG1        0.2921
@<TRIPOS>BOND
     1    23    14    1
     2    23    24    1
     3    11    10    1
     4    18    15    1
     5    10     1    1
     6     5     2    1
     7    15    14   ar
     8    15    17   ar
     9    14    16   ar
    10     2     1   ar
    11     2     4   ar
    12     1     3   ar
    13    22    17    1
    14    17    20   ar
    15     9     3    1
    16     3     6   ar
    17     4    16    1
    18     4     7   ar
    19    16    19   ar
    20     6     7   ar
    21     6     8    1
    22     7    12    1
    23    20    19   ar
    24    20    25    1
    25    19    21    1
    26    12    13    1
    27    26    25    1
