@<TRIPOS>MOLECULE
mol_data/opt/m06hf/geoms/mol2/4ff4ff4ff-4ff.out
 50 53 0 0 0
SMALL
GASTEIGER

@<TRIPOS>ATOM
      1 C          -0.2200    0.2961    0.8231 C.ar    1  LIG1        0.1177
      2 C           1.1688    0.3077    0.7886 C.ar    1  LIG1       -0.0089
      3 C          -0.9404    1.1971    0.0452 C.ar    1  LIG1       -0.0167
      4 C           1.8648    1.2085   -0.0213 C.ar    1  LIG1        0.0306
      5 H           1.7345   -0.3977    1.3852 H       1  LIG1        0.0661
      6 C          -0.2607    2.1011   -0.7579 C.ar    1  LIG1       -0.0161
      7 C           1.1319    2.1126   -0.7988 C.ar    1  LIG1        0.1249
      8 H          -0.8177    2.8081   -1.3626 H       1  LIG1        0.0655
      9 H          -2.0208    1.1758    0.0826 H       1  LIG1        0.0655
     10 O          -0.9276   -0.5715    1.6053 O.3     1  LIG1       -0.5067
     11 H          -0.3296   -1.1791    2.0523 H       1  LIG1        0.2921
     12 O           1.8117    3.0022   -1.5888 O.3     1  LIG1       -0.5062
     13 H           1.1992    3.4445   -2.1854 H       1  LIG1        0.2922
     14 C           4.0963    0.0240   -0.0652 C.ar    1  LIG1        0.1255
     15 C           5.4861    0.0595   -0.0416 C.ar    1  LIG1       -0.0083
     16 C           3.3571    1.2137   -0.0310 C.ar    1  LIG1        0.0306
     17 C           6.1941    1.2612    0.0021 C.ar    1  LIG1        0.0306
     18 H           6.0452   -0.8698   -0.0361 H       1  LIG1        0.0661
     19 C           4.0622    2.4157    0.0225 C.ar    1  LIG1       -0.0083
     20 C           5.4490    2.4414    0.0311 C.ar    1  LIG1        0.1255
     21 H           3.5054    3.3447    0.0390 H       1  LIG1        0.0661
     22 O           3.4218   -1.1639   -0.1079 O.3     1  LIG1       -0.5061
     23 H           4.0343   -1.8874   -0.2773 H       1  LIG1        0.2922
     24 O           6.1359    3.6358    0.0743 O.3     1  LIG1       -0.5061
     25 H           5.5365    4.3798   -0.0469 H       1  LIG1        0.2922
     26 C           8.4621    1.9583    0.9111 C.ar    1  LIG1        0.1255
     27 C           9.8443    1.8074    0.9068 C.ar    1  LIG1       -0.0083
     28 C           7.6869    1.2320   -0.0058 C.ar    1  LIG1        0.0306
     29 C          10.4941    0.9582    0.0107 C.ar    1  LIG1        0.0306
     30 H          10.4109    2.3643    1.6421 H       1  LIG1        0.0661
     31 C           8.3376    0.3836   -0.9030 C.ar    1  LIG1       -0.0083
     32 C           9.7191    0.2308   -0.9048 C.ar    1  LIG1        0.1255
     33 H           7.7714   -0.1722   -1.6394 H       1  LIG1        0.0661
     34 O           7.9189    2.7751    1.8574 O.3     1  LIG1       -0.5061
     35 H           7.2273    3.3147    1.4400 H       1  LIG1        0.2922
     36 O          10.2656   -0.5920   -1.8456 O.3     1  LIG1       -0.5061
     37 H          10.9471   -1.1351   -1.4180 H       1  LIG1        0.2922
     38 C          12.7198   -0.2637    0.0171 C.ar    1  LIG1        0.1249
     39 C          14.1105   -0.2473    0.0502 C.ar    1  LIG1       -0.0161
     40 C          11.9879    0.9248    0.0078 C.ar    1  LIG1        0.0306
     41 C          14.7972    0.9577    0.0774 C.ar    1  LIG1       -0.0167
     42 H          14.6594   -1.1821    0.0574 H       1  LIG1        0.0655
     43 C          12.6944    2.1307    0.0266 C.ar    1  LIG1       -0.0089
     44 C          14.0841    2.1534    0.0613 C.ar    1  LIG1        0.1177
     45 H          12.1338    3.0585   -0.0050 H       1  LIG1        0.0661
     46 H          15.8774    0.9922    0.1030 H       1  LIG1        0.0655
     47 O          12.0184   -1.4501   -0.0105 O.3     1  LIG1       -0.5062
     48 H          12.6072   -2.2017    0.1139 H       1  LIG1        0.2922
     49 O          14.8017    3.3127    0.0757 O.3     1  LIG1       -0.5067
     50 H          14.2168    4.0739    0.0043 H       1  LIG1        0.2921
@<TRIPOS>BOND
     1    13    12    1
     2    36    37    1
     3    36    32    1
     4    33    31    1
     5    12     7    1
     6     8     6    1
     7    32    31   ar
     8    32    29   ar
     9    31    28   ar
    10     7     6   ar
    11     7     4   ar
    12     6     3   ar
    13    23    22    1
    14    22    14    1
    15    14    15   ar
    16    14    16   ar
    17    25    24    1
    18    15    18    1
    19    15    17   ar
    20    16     4    1
    21    16    19   ar
    22     4     2   ar
    23    47    38    1
    24    47    48    1
    25    28    17    1
    26    28    26   ar
    27    45    43    1
    28    17    20   ar
    29    50    49    1
    30    40    29    1
    31    40    38   ar
    32    40    43   ar
    33    29    27   ar
    34    38    39   ar
    35    19    20   ar
    36    19    21    1
    37    43    44   ar
    38    20    24    1
    39     3     9    1
    40     3     1   ar
    41    39    42    1
    42    39    41   ar
    43    44    49    1
    44    44    41   ar
    45    41    46    1
    46     2     1   ar
    47     2     5    1
    48     1    10    1
    49    27    26   ar
    50    27    30    1
    51    26    34    1
    52    35    34    1
    53    10    11    1
