@<TRIPOS>MOLECULE
mol_data/opt/m06hf/geoms/mol2/4ff4ff-4ff-4ff.out
 50 53 0 0 0
SMALL
GASTEIGER

@<TRIPOS>ATOM
      1 C          -0.1630    0.0678   -0.3802 C.ar    1  LIG1        0.1177
      2 C           1.2220    0.1181   -0.2770 C.ar    1  LIG1       -0.0089
      3 C          -0.9123    1.2315   -0.2272 C.ar    1  LIG1       -0.0167
      4 C           1.8897    1.3205   -0.0255 C.ar    1  LIG1        0.0306
      5 H           1.8085   -0.7893   -0.3722 H       1  LIG1        0.0661
      6 C          -0.2649    2.4303    0.0314 C.ar    1  LIG1       -0.0161
      7 C           1.1223    2.4756    0.1287 C.ar    1  LIG1        0.1249
      8 H          -0.8419    3.3400    0.1552 H       1  LIG1        0.0655
      9 H          -1.9891    1.1752   -0.3070 H       1  LIG1        0.0655
     10 O          -0.8418   -1.0888   -0.6208 O.3     1  LIG1       -0.5067
     11 H          -0.2332   -1.8323   -0.6817 H       1  LIG1        0.2921
     12 O           1.7838    3.6585    0.3795 O.3     1  LIG1       -0.5062
     13 H           1.1729    4.4031    0.3735 H       1  LIG1        0.2922
     14 C           4.0968    1.9097    1.0912 C.ar    1  LIG1        0.1255
     15 C           5.4821    1.7760    1.1382 C.ar    1  LIG1       -0.0083
     16 C           3.3827    1.3165    0.0372 C.ar    1  LIG1        0.0306
     17 C           6.1816    1.0686    0.1589 C.ar    1  LIG1        0.0306
     18 H           6.0071    2.2118    1.9798 H       1  LIG1        0.0661
     19 C           4.0864    0.6317   -0.9556 C.ar    1  LIG1       -0.0083
     20 C           5.4689    0.5035   -0.9073 C.ar    1  LIG1        0.1255
     21 H           3.5623    0.2007   -1.7989 H       1  LIG1        0.0661
     22 O           3.4919    2.5703    2.1161 O.3     1  LIG1       -0.5061
     23 H           2.8090    3.1545    1.7477 H       1  LIG1        0.2922
     24 O           6.0816   -0.1686   -1.9169 O.3     1  LIG1       -0.5061
     25 H           7.0400   -0.1385   -1.7928 H       1  LIG1        0.2922
     26 C           8.4605    2.1049    0.1207 C.ar    1  LIG1        0.1255
     27 C           9.8456    1.9921    0.1142 C.ar    1  LIG1       -0.0083
     28 C           7.6701    0.9507    0.1943 C.ar    1  LIG1        0.0306
     29 C          10.4739    0.7465    0.1685 C.ar    1  LIG1        0.0306
     30 H          10.4327    2.9000    0.0655 H       1  LIG1        0.0661
     31 C           8.2980   -0.2940    0.2697 C.ar    1  LIG1       -0.0083
     32 C           9.6852   -0.4109    0.2626 C.ar    1  LIG1        0.1255
     33 H           7.7103   -1.2002    0.3516 H       1  LIG1        0.0661
     34 O           7.9231    3.3510    0.0462 O.3     1  LIG1       -0.5061
     35 H           6.9595    3.2861    0.0002 H       1  LIG1        0.2922
     36 O          10.2154   -1.6650    0.2940 O.3     1  LIG1       -0.5061
     37 H          10.9514   -1.6742    0.9279 H       1  LIG1        0.2922
     38 C          12.7729   -0.0475    0.8997 C.ar    1  LIG1        0.1249
     39 C          14.1566   -0.0487    0.7516 C.ar    1  LIG1       -0.0161
     40 C          11.9615    0.6913    0.0386 C.ar    1  LIG1        0.0306
     41 C          14.7554    0.6947   -0.2545 C.ar    1  LIG1       -0.0167
     42 H          14.7690   -0.6328    1.4292 H       1  LIG1        0.0655
     43 C          12.5786    1.4283   -0.9766 C.ar    1  LIG1       -0.0089
     44 C          13.9605    1.4353   -1.1254 C.ar    1  LIG1        0.1177
     45 H          11.9531    1.9845   -1.6663 H       1  LIG1        0.0661
     46 H          15.8284    0.7076   -0.3863 H       1  LIG1        0.0655
     47 O          12.1588   -0.7764    1.8952 O.3     1  LIG1       -0.5062
     48 H          12.8053   -1.1176    2.5220 H       1  LIG1        0.2922
     49 O          14.5919    2.1384   -2.1072 O.3     1  LIG1       -0.5067
     50 H          13.9542    2.6149   -2.6485 H       1  LIG1        0.2921
@<TRIPOS>BOND
     1    50    49    1
     2    49    44    1
     3    24    25    1
     4    24    20    1
     5    21    19    1
     6    45    43    1
     7    44    43   ar
     8    44    41   ar
     9    43    40   ar
    10    19    20   ar
    11    19    16   ar
    12    20    17   ar
    13    11    10    1
    14    10     1    1
    15    46    41    1
    16     1     2   ar
    17     1     3   ar
    18     5     2    1
    19     9     3    1
    20     2     4   ar
    21    41    39   ar
    22     3     6   ar
    23     4    16    1
    24     4     7   ar
    25    35    34    1
    26     6     7   ar
    27     6     8    1
    28    16    14   ar
    29    40    29    1
    30    40    38   ar
    31    34    26    1
    32    30    27    1
    33    27    26   ar
    34    27    29   ar
    35    26    28   ar
    36     7    12    1
    37    17    28    1
    38    17    15   ar
    39    29    32   ar
    40    28    31   ar
    41    32    31   ar
    42    32    36    1
    43    31    33    1
    44    36    37    1
    45    13    12    1
    46    39    38   ar
    47    39    42    1
    48    38    47    1
    49    14    15   ar
    50    14    22    1
    51    15    18    1
    52    23    22    1
    53    47    48    1
