@<TRIPOS>MOLECULE
mol_data/opt/m06hf/geoms/mol2/4ff4ff-4ff4ff.out
 50 53 0 0 0
SMALL
GASTEIGER

@<TRIPOS>ATOM
      1 C          -0.2308    0.1609    0.4584 C.ar    1  LIG1        0.1177
      2 C           1.1593    0.1773    0.4592 C.ar    1  LIG1       -0.0089
      3 C          -0.9377    1.2667   -0.0056 C.ar    1  LIG1       -0.0167
      4 C           1.8728    1.2864   -0.0038 C.ar    1  LIG1        0.0306
      5 H           1.7151   -0.6729    0.8393 H       1  LIG1        0.0661
      6 C          -0.2438    2.3789   -0.4588 C.ar    1  LIG1       -0.0161
      7 C           1.1473    2.3875   -0.4605 C.ar    1  LIG1        0.1249
      8 H          -0.7871    3.2465   -0.8162 H       1  LIG1        0.0655
      9 H          -2.0184    1.2392    0.0033 H       1  LIG1        0.0655
     10 O          -0.9560   -0.9033    0.9063 O.3     1  LIG1       -0.5067
     11 H          -0.3738   -1.6105    1.2025 H       1  LIG1        0.2921
     12 O           1.8562    3.4820   -0.9079 O.3     1  LIG1       -0.5062
     13 H           1.2715    4.1264   -1.3203 H       1  LIG1        0.2922
     14 C           4.1657    2.2503    0.5241 C.ar    1  LIG1        0.1255
     15 C           5.5458    2.0886    0.5572 C.ar    1  LIG1       -0.0083
     16 C           3.3660    1.2341   -0.0197 C.ar    1  LIG1        0.0306
     17 C           6.1719    0.9481    0.0514 C.ar    1  LIG1        0.0306
     18 H           6.1308    2.8805    1.0077 H       1  LIG1        0.0661
     19 C           3.9911    0.0933   -0.5243 C.ar    1  LIG1       -0.0083
     20 C           5.3719   -0.0673   -0.4942 C.ar    1  LIG1        0.1255
     21 H           3.4056   -0.6992   -0.9728 H       1  LIG1        0.0661
     22 O           3.6476    3.3841    1.0771 O.3     1  LIG1       -0.5061
     23 H           2.9519    3.7219    0.4905 H       1  LIG1        0.2922
     24 O           5.8875   -1.1984   -1.0516 O.3     1  LIG1       -0.5061
     25 H           6.5977   -1.5281   -0.4766 H       1  LIG1        0.2922
     26 C           8.4049   -0.2061    0.4552 C.ar    1  LIG1        0.1255
     27 C           9.7918   -0.1886    0.4425 C.ar    1  LIG1       -0.0083
     28 C           7.6645    0.8991    0.0320 C.ar    1  LIG1        0.0306
     29 C          10.5005    0.9316    0.0110 C.ar    1  LIG1        0.0306
     30 H          10.3463   -1.0630    0.7623 H       1  LIG1        0.0661
     31 C           8.3774    2.0176   -0.4022 C.ar    1  LIG1       -0.0083
     32 C           9.7674    2.0459   -0.4150 C.ar    1  LIG1        0.1255
     33 H           7.8210    2.8786   -0.7568 H       1  LIG1        0.0661
     34 O           7.7133   -1.3171    0.8894 O.3     1  LIG1       -0.5061
     35 H           8.3226   -1.9970    1.1974 H       1  LIG1        0.2922
     36 O          10.4497    3.1494   -0.8442 O.3     1  LIG1       -0.5061
     37 H           9.8443    3.7689   -1.2648 H       1  LIG1        0.2922
     38 C          12.7133   -0.1603   -0.4828 C.ar    1  LIG1        0.1249
     39 C          14.1065   -0.1408   -0.4707 C.ar    1  LIG1       -0.0161
     40 C          11.9924    0.9330    0.0092 C.ar    1  LIG1        0.0306
     41 C          14.7962    0.9556    0.0258 C.ar    1  LIG1       -0.0167
     42 H          14.6547   -0.9944   -0.8537 H       1  LIG1        0.0655
     43 C          12.6975    2.0286    0.5125 C.ar    1  LIG1       -0.0089
     44 C          14.0866    2.0444    0.5228 C.ar    1  LIG1        0.1177
     45 H          12.1397    2.8795    0.8851 H       1  LIG1        0.0661
     46 H          15.8770    0.9846    0.0386 H       1  LIG1        0.0655
     47 O          12.0198   -1.2394   -0.9637 O.3     1  LIG1       -0.5062
     48 H          12.6153   -1.8264   -1.4406 H       1  LIG1        0.2922
     49 O          14.8068    3.0983    1.0088 O.3     1  LIG1       -0.5067
     50 H          14.2154    3.8005    1.2980 H       1  LIG1        0.2921
@<TRIPOS>BOND
     1    48    47    1
     2    13    12    1
     3    37    36    1
     4    24    20    1
     5    24    25    1
     6    21    19    1
     7    47    38    1
     8    12     7    1
     9    42    39    1
    10    36    32    1
    11     8     6    1
    12    33    31    1
    13    19    20   ar
    14    19    16   ar
    15    20    17   ar
    16    38    39   ar
    17    38    40   ar
    18    39    41   ar
    19     7     6   ar
    20     7     4   ar
    21     6     3   ar
    22    32    31   ar
    23    32    29   ar
    24    31    28   ar
    25    16     4    1
    26    16    14   ar
    27     3     9    1
    28     3     1   ar
    29     4     2   ar
    30    40    29    1
    31    40    43   ar
    32    29    27   ar
    33    41    46    1
    34    41    44   ar
    35    28    17    1
    36    28    26   ar
    37    17    15   ar
    38    27    26   ar
    39    27    30    1
    40    26    34    1
    41     1     2   ar
    42     1    10    1
    43     2     5    1
    44    23    22    1
    45    43    44   ar
    46    43    45    1
    47    44    49    1
    48    14    15   ar
    49    14    22    1
    50    15    18    1
    51    34    35    1
    52    10    11    1
    53    49    50    1
