@<TRIPOS>MOLECULE
mol_data/opt/m06hf/geoms/mol2/4ff4ff4ff.out
 38 40 0 0 0
SMALL
GASTEIGER

@<TRIPOS>ATOM
      1 C          -0.1060    0.3687    0.8913 C.ar    1  LIG1        0.1177
      2 C           1.2815    0.3501    0.8265 C.ar    1  LIG1       -0.0089
      3 C          -0.8254    1.2562    0.0977 C.ar    1  LIG1       -0.0167
      4 C           1.9791    1.2067   -0.0291 C.ar    1  LIG1        0.0306
      5 H           1.8458   -0.3471    1.4340 H       1  LIG1        0.0661
      6 C          -0.1444    2.1160   -0.7519 C.ar    1  LIG1       -0.0161
      7 C           1.2471    2.0971   -0.8227 C.ar    1  LIG1        0.1249
      8 H          -0.6995    2.8134   -1.3693 H       1  LIG1        0.0655
      9 H          -1.9050    1.2605    0.1594 H       1  LIG1        0.0655
     10 O          -0.8126   -0.4573    1.7192 O.3     1  LIG1       -0.5067
     11 H          -0.2146   -1.0546    2.1798 H       1  LIG1        0.2921
     12 O           1.9251    2.9461   -1.6576 O.3     1  LIG1       -0.5062
     13 H           1.3086    3.3682   -2.2644 H       1  LIG1        0.2922
     14 C           4.1823   -0.0249   -0.0611 C.ar    1  LIG1        0.1255
     15 C           5.5717   -0.0195   -0.0530 C.ar    1  LIG1       -0.0083
     16 C           3.4707    1.1802   -0.0622 C.ar    1  LIG1        0.0306
     17 C           6.3032    1.1681   -0.0553 C.ar    1  LIG1        0.0306
     18 H           6.1105   -0.9593   -0.0562 H       1  LIG1        0.0661
     19 C           4.2022    2.3678   -0.0619 C.ar    1  LIG1       -0.0083
     20 C           5.5916    2.3732   -0.0633 C.ar    1  LIG1        0.1255
     21 H           3.6633    3.3075   -0.0721 H       1  LIG1        0.0661
     22 O           3.4830   -1.2023   -0.0594 O.3     1  LIG1       -0.5061
     23 H           4.0868   -1.9371   -0.2081 H       1  LIG1        0.2922
     24 O           6.2909    3.5506   -0.0637 O.3     1  LIG1       -0.5061
     25 H           5.6877    4.2847   -0.2188 H       1  LIG1        0.2922
     26 C           8.5303    0.2476   -0.8007 C.ar    1  LIG1        0.1249
     27 C           9.9216    0.2292   -0.7231 C.ar    1  LIG1       -0.0161
     28 C           7.7946    1.1418   -0.0148 C.ar    1  LIG1        0.0306
     29 C          10.5984    1.0928    0.1259 C.ar    1  LIG1       -0.0167
     30 H          10.4797   -0.4712   -1.3344 H       1  LIG1        0.0655
     31 C           8.4880    2.0023    0.8403 C.ar    1  LIG1       -0.0089
     32 C           9.8752    1.9840    0.9119 C.ar    1  LIG1        0.1177
     33 H           7.9208    2.7023    1.4417 H       1  LIG1        0.0661
     34 H          11.6777    1.0889    0.1928 H       1  LIG1        0.0655
     35 O           7.8565   -0.6052   -1.6349 O.3     1  LIG1       -0.5062
     36 H           8.4759   -1.0302   -2.2367 H       1  LIG1        0.2922
     37 O          10.5777    2.8139    1.7394 O.3     1  LIG1       -0.5067
     38 H           9.9775    3.4132    2.1942 H       1  LIG1        0.2921
@<TRIPOS>BOND
     1    13    12    1
     2    36    35    1
     3    12     7    1
     4    35    26    1
     5     8     6    1
     6    30    27    1
     7     7     6   ar
     8     7     4   ar
     9    26    27   ar
    10    26    28   ar
    11     6     3   ar
    12    27    29   ar
    13    25    24    1
    14    23    22    1
    15    21    19    1
    16    24    20    1
    17    20    19   ar
    18    20    17   ar
    19    16    19   ar
    20    16    14   ar
    21    16     4    1
    22    14    22    1
    23    14    15   ar
    24    18    15    1
    25    17    15   ar
    26    17    28    1
    27     4     2   ar
    28    28    31   ar
    29     3     9    1
    30     3     1   ar
    31    29    34    1
    32    29    32   ar
    33     2     1   ar
    34     2     5    1
    35    31    32   ar
    36    31    33    1
    37     1    10    1
    38    32    37    1
    39    10    11    1
    40    37    38    1
