@<TRIPOS>MOLECULE
mol_data/opt/m06hf/geoms/mol2/4ff4ff-4ff-4ff-.out
 50 53 0 0 0
SMALL
GASTEIGER

@<TRIPOS>ATOM
      1 C          -0.1739    0.0150   -0.1702 C.ar    1  LIG1        0.1177
      2 C           1.2138    0.0727   -0.1143 C.ar    1  LIG1       -0.0089
      3 C          -0.9220    1.1856   -0.0669 C.ar    1  LIG1       -0.0167
      4 C           1.8831    1.2894    0.0415 C.ar    1  LIG1        0.0306
      5 H           1.8004   -0.8378   -0.1719 H       1  LIG1        0.0661
      6 C          -0.2711    2.3992    0.0982 C.ar    1  LIG1       -0.0161
      7 C           1.1182    2.4511    0.1492 C.ar    1  LIG1        0.1249
      8 H          -0.8466    3.3139    0.1860 H       1  LIG1        0.0655
      9 H          -2.0003    1.1227   -0.1100 H       1  LIG1        0.0655
     10 O          -0.8562   -1.1553   -0.3168 O.3     1  LIG1       -0.5067
     11 H          -0.2466   -1.8977   -0.3799 H       1  LIG1        0.2921
     12 O           1.7883    3.6447    0.3128 O.3     1  LIG1       -0.5062
     13 H           1.1906    4.3946    0.2217 H       1  LIG1        0.2922
     14 C           4.1167    1.9473    1.0565 C.ar    1  LIG1        0.1255
     15 C           5.5036    1.8315    1.0638 C.ar    1  LIG1       -0.0083
     16 C           3.3769    1.2990    0.0544 C.ar    1  LIG1        0.0306
     17 C           6.1807    1.0946    0.0887 C.ar    1  LIG1        0.0306
     18 H           6.0491    2.3070    1.8704 H       1  LIG1        0.0661
     19 C           4.0556    0.5823   -0.9321 C.ar    1  LIG1       -0.0083
     20 C           5.4413    0.4770   -0.9276 C.ar    1  LIG1        0.1255
     21 H           3.5096    0.1077   -1.7371 H       1  LIG1        0.0661
     22 O           3.5356    2.6465    2.0690 O.3     1  LIG1       -0.5061
     23 H           2.8368    3.2107    1.6982 H       1  LIG1        0.2922
     24 O           6.0251   -0.2308   -1.9315 O.3     1  LIG1       -0.5061
     25 H           6.9863   -0.1544   -1.8704 H       1  LIG1        0.2922
     26 C           8.4410    2.1703    0.0226 C.ar    1  LIG1        0.1255
     27 C           9.8296    2.0829    0.0154 C.ar    1  LIG1       -0.0083
     28 C           7.6715    0.9997    0.0894 C.ar    1  LIG1        0.0306
     29 C          10.4719    0.8430    0.0560 C.ar    1  LIG1        0.0306
     30 H          10.4072    2.9991   -0.0071 H       1  LIG1        0.0661
     31 C           8.3142   -0.2401    0.1230 C.ar    1  LIG1       -0.0083
     32 C           9.7028   -0.3281    0.0988 C.ar    1  LIG1        0.1255
     33 H           7.7375   -1.1548    0.1869 H       1  LIG1        0.0661
     34 O           7.8842    3.4069   -0.0366 O.3     1  LIG1       -0.5061
     35 H           6.9222    3.3314   -0.0983 H       1  LIG1        0.2922
     36 O          10.2602   -1.5663    0.1173 O.3     1  LIG1       -0.5061
     37 H          11.2200   -1.4954    0.0242 H       1  LIG1        0.2922
     38 C          12.6668    1.2772   -1.0691 C.ar    1  LIG1        0.1249
     39 C          14.0543    1.1753   -1.1086 C.ar    1  LIG1       -0.0161
     40 C          11.9629    0.7484    0.0212 C.ar    1  LIG1        0.0306
     41 C          14.7435    0.5441   -0.0812 C.ar    1  LIG1       -0.0167
     42 H          14.5747    1.5911   -1.9602 H       1  LIG1        0.0655
     43 C          12.6631    0.1125    1.0504 C.ar    1  LIG1       -0.0089
     44 C          14.0493    0.0083    1.0020 C.ar    1  LIG1        0.1177
     45 H          12.1366   -0.2826    1.9108 H       1  LIG1        0.0661
     46 H          15.8242    0.4684   -0.1247 H       1  LIG1        0.0655
     47 O          12.0467    1.8923   -2.1106 O.3     1  LIG1       -0.5062
     48 H          11.0881    1.8349   -2.0032 H       1  LIG1        0.2922
     49 O          14.6678   -0.6233    2.0411 O.3     1  LIG1       -0.5067
     50 H          15.6228   -0.6192    1.9199 H       1  LIG1        0.2921
@<TRIPOS>BOND
     1    47    48    1
     2    47    38    1
     3    42    39    1
     4    24    25    1
     5    24    20    1
     6    21    19    1
     7    39    38   ar
     8    39    41   ar
     9    38    40   ar
    10    19    20   ar
    11    19    16   ar
    12    20    17   ar
    13    11    10    1
    14    10     1    1
    15     5     2    1
    16     1     2   ar
    17     1     3   ar
    18    46    41    1
    19     2     4   ar
    20     9     3    1
    21    35    34    1
    22    41    44   ar
    23     3     6   ar
    24    34    26    1
    25    30    27    1
    26    27    26   ar
    27    27    29   ar
    28    40    29    1
    29    40    43   ar
    30    26    28   ar
    31    37    36    1
    32     4    16    1
    33     4     7   ar
    34    16    14   ar
    35    29    32   ar
    36    17    28    1
    37    17    15   ar
    38    28    31   ar
    39     6     7   ar
    40     6     8    1
    41    32    36    1
    42    32    31   ar
    43    31    33    1
    44     7    12    1
    45    13    12    1
    46    44    43   ar
    47    44    49    1
    48    43    45    1
    49    14    15   ar
    50    14    22    1
    51    15    18    1
    52    23    22    1
    53    50    49    1
