@<TRIPOS>MOLECULE
mol_data/opt/m06hf/geoms/mol2/4ff4ff4ff-4ff-.out
 50 53 0 0 0
SMALL
GASTEIGER

@<TRIPOS>ATOM
      1 C          -0.2295    0.2497    0.7491 C.ar    1  LIG1        0.1177
      2 C           1.1595    0.2707    0.7496 C.ar    1  LIG1       -0.0089
      3 C          -0.9365    1.1576   -0.0336 C.ar    1  LIG1       -0.0167
      4 C           1.8675    1.1902   -0.0281 C.ar    1  LIG1        0.0306
      5 H           1.7156   -0.4405    1.3482 H       1  LIG1        0.0661
      6 C          -0.2441    2.0789   -0.8055 C.ar    1  LIG1       -0.0161
      7 C           1.1491    2.1018   -0.8091 C.ar    1  LIG1        0.1249
      8 H          -0.7909    2.7910   -1.4133 H       1  LIG1        0.0655
      9 H          -2.0173    1.1269   -0.0247 H       1  LIG1        0.0655
     10 O          -0.9519   -0.6347    1.4978 O.3     1  LIG1       -0.5067
     11 H          -0.3627   -1.2374    1.9628 H       1  LIG1        0.2921
     12 O           1.8440    3.0101   -1.5636 O.3     1  LIG1       -0.5062
     13 H           1.2468    3.4534   -2.1747 H       1  LIG1        0.2922
     14 C           4.1069    0.0235   -0.0715 C.ar    1  LIG1        0.1255
     15 C           5.4962    0.0679   -0.0307 C.ar    1  LIG1       -0.0083
     16 C           3.3592    1.2063   -0.0041 C.ar    1  LIG1        0.0306
     17 C           6.1924    1.2728    0.0708 C.ar    1  LIG1        0.0306
     18 H           6.0624   -0.8569   -0.0583 H       1  LIG1        0.0661
     19 C           4.0532    2.4102    0.1086 C.ar    1  LIG1       -0.0083
     20 C           5.4393    2.4453    0.1415 C.ar    1  LIG1        0.1255
     21 H           3.4889    3.3342    0.1518 H       1  LIG1        0.0661
     22 O           3.4399   -1.1647   -0.1654 O.3     1  LIG1       -0.5061
     23 H           4.0578   -1.8778   -0.3569 H       1  LIG1        0.2922
     24 O           6.1190    3.6397    0.2468 O.3     1  LIG1       -0.5061
     25 H           5.5172    4.3862    0.1535 H       1  LIG1        0.2922
     26 C           8.4441    1.9524    1.0287 C.ar    1  LIG1        0.1255
     27 C           9.8303    1.8261    1.0238 C.ar    1  LIG1       -0.0083
     28 C           7.6855    1.2601    0.0706 C.ar    1  LIG1        0.0306
     29 C          10.4888    1.0315    0.0830 C.ar    1  LIG1        0.0306
     30 H          10.3903    2.3428    1.7943 H       1  LIG1        0.0661
     31 C           8.3461    0.4827   -0.8824 C.ar    1  LIG1       -0.0083
     32 C           9.7307    0.3646   -0.8878 C.ar    1  LIG1        0.1255
     33 H           7.7869   -0.0266   -1.6568 H       1  LIG1        0.0661
     34 O           7.8833    2.7078    2.0123 O.3     1  LIG1       -0.5061
     35 H           7.1877    3.2612    1.6200 H       1  LIG1        0.2922
     36 O          10.2996   -0.3992   -1.8584 O.3     1  LIG1       -0.5061
     37 H          11.2621   -0.3268   -1.8054 H       1  LIG1        0.2922
     38 C          12.7469    2.0888   -0.1222 C.ar    1  LIG1        0.1249
     39 C          14.1350    1.9980   -0.1580 C.ar    1  LIG1       -0.0161
     40 C          11.9793    0.9305    0.0626 C.ar    1  LIG1        0.0306
     41 C          14.7640    0.7665   -0.0238 C.ar    1  LIG1       -0.0167
     42 H          14.7047    2.9056   -0.3015 H       1  LIG1        0.0655
     43 C          12.6192   -0.3050    0.1923 C.ar    1  LIG1       -0.0089
     44 C          14.0071   -0.3903    0.1503 C.ar    1  LIG1        0.1177
     45 H          12.0423   -1.2074    0.3536 H       1  LIG1        0.0661
     46 H          15.8461    0.7081   -0.0567 H       1  LIG1        0.0655
     47 O          12.1862    3.3172   -0.2740 O.3     1  LIG1       -0.5062
     48 H          11.2232    3.2353   -0.2987 H       1  LIG1        0.2922
     49 O          14.5653   -1.6290    0.2837 O.3     1  LIG1       -0.5067
     50 H          15.5260   -1.5689    0.2707 H       1  LIG1        0.2921
@<TRIPOS>BOND
     1    13    12    1
     2    36    37    1
     3    36    32    1
     4    33    31    1
     5    12     7    1
     6     8     6    1
     7    32    31   ar
     8    32    29   ar
     9    31    28   ar
    10     7     6   ar
    11     7     4   ar
    12     6     3   ar
    13    23    22    1
    14    42    39    1
    15    48    47    1
    16    47    38    1
    17    22    14    1
    18    39    38   ar
    19    39    41   ar
    20    38    40   ar
    21    14    15   ar
    22    14    16   ar
    23    18    15    1
    24    46    41    1
    25     3     9    1
    26     3     1   ar
    27    15    17   ar
    28     4    16    1
    29     4     2   ar
    30    41    44   ar
    31    16    19   ar
    32    40    29    1
    33    40    43   ar
    34    28    17    1
    35    28    26   ar
    36    17    20   ar
    37    29    27   ar
    38    19    20   ar
    39    19    21    1
    40    20    24    1
    41    44    43   ar
    42    44    49    1
    43    25    24    1
    44    43    45    1
    45    50    49    1
    46     1     2   ar
    47     1    10    1
    48     2     5    1
    49    27    26   ar
    50    27    30    1
    51    26    34    1
    52    10    11    1
    53    35    34    1
