@<TRIPOS>MOLECULE
mol_data/opt/m06hf/geoms/mol2/4ff4ff4ff4ff.out
 50 53 0 0 0
SMALL
GASTEIGER

@<TRIPOS>ATOM
      1 C          -0.2522    0.7162    1.0994 C.ar    1  LIG1        0.1177
      2 C           1.1370    0.7068    1.0962 C.ar    1  LIG1       -0.0089
      3 C          -0.9452    1.2290    0.0078 C.ar    1  LIG1       -0.0167
      4 C           1.8622    1.1993    0.0083 C.ar    1  LIG1        0.0306
      5 H           1.6804    0.2975    1.9392 H       1  LIG1        0.0661
      6 C          -0.2368    1.7291   -1.0750 C.ar    1  LIG1       -0.0161
      7 C           1.1564    1.7151   -1.0849 C.ar    1  LIG1        0.1249
      8 H          -0.7705    2.1351   -1.9271 H       1  LIG1        0.0655
      9 H          -2.0263    1.2294    0.0250 H       1  LIG1        0.0655
     10 O          -0.9887    0.2391    2.1467 O.3     1  LIG1       -0.5067
     11 H          -0.4100   -0.1432    2.8145 H       1  LIG1        0.2921
     12 O           1.8608    2.2057   -2.1534 O.3     1  LIG1       -0.5062
     13 H           1.2732    2.3224   -2.9068 H       1  LIG1        0.2922
     14 C           4.0675    0.0636    0.4797 C.ar    1  LIG1        0.1255
     15 C           5.4569    0.0719    0.4815 C.ar    1  LIG1       -0.0083
     16 C           3.3544    1.1788    0.0243 C.ar    1  LIG1        0.0306
     17 C           6.1863    1.1715    0.0307 C.ar    1  LIG1        0.0306
     18 H           5.9966   -0.8037    0.8221 H       1  LIG1        0.0661
     19 C           4.0845    2.2848   -0.4103 C.ar    1  LIG1       -0.0083
     20 C           5.4736    2.2909   -0.4144 C.ar    1  LIG1        0.1255
     21 H           3.5452    3.1526   -0.7706 H       1  LIG1        0.0661
     22 O           3.3708   -1.0296    0.9223 O.3     1  LIG1       -0.5061
     23 H           3.9708   -1.7751    1.0278 H       1  LIG1        0.2922
     24 O           6.1717    3.3861   -0.8499 O.3     1  LIG1       -0.5061
     25 H           5.5752    3.9876   -1.3075 H       1  LIG1        0.2922
     26 C           8.3906    0.0297   -0.4137 C.ar    1  LIG1        0.1255
     27 C           9.7798    0.0358   -0.4070 C.ar    1  LIG1       -0.0083
     28 C           7.6771    1.1483    0.0321 C.ar    1  LIG1        0.0306
     29 C          10.5090    1.1410    0.0310 C.ar    1  LIG1        0.0306
     30 H          10.3197   -0.8313   -0.7679 H       1  LIG1        0.0661
     31 C           8.4056    2.2470    0.4863 C.ar    1  LIG1       -0.0083
     32 C           9.7951    2.2554    0.4871 C.ar    1  LIG1        0.1255
     33 H           7.8653    3.1221    0.8275 H       1  LIG1        0.0661
     34 O           7.6933   -1.0647   -0.8525 O.3     1  LIG1       -0.5061
     35 H           8.2908   -1.6655   -1.3097 H       1  LIG1        0.2922
     36 O          10.4909    3.3478    0.9330 O.3     1  LIG1       -0.5061
     37 H           9.8908    4.0932    1.0383 H       1  LIG1        0.2922
     38 C          12.7091    0.6066   -1.0751 C.ar    1  LIG1        0.1249
     39 C          14.1022    0.5927   -1.0627 C.ar    1  LIG1       -0.0161
     40 C          12.0012    1.1205    0.0177 C.ar    1  LIG1        0.0306
     41 C          14.8086    1.0909    0.0223 C.ar    1  LIG1       -0.0167
     42 H          14.6375    0.1882   -1.9144 H       1  LIG1        0.0655
     43 C          12.7244    1.6112    1.1078 C.ar    1  LIG1       -0.0089
     44 C          14.1136    1.6019    1.1135 C.ar    1  LIG1        0.1177
     45 H          12.1794    2.0190    1.9505 H       1  LIG1        0.0661
     46 H          15.8897    1.0906    0.0415 H       1  LIG1        0.0655
     47 O          12.0066    0.1179   -2.1457 O.3     1  LIG1       -0.5062
     48 H          12.5957    0.0019   -2.8980 H       1  LIG1        0.2922
     49 O          14.8482    2.0773    2.1630 O.3     1  LIG1       -0.5067
     50 H          14.2683    2.4579    2.8306 H       1  LIG1        0.2921
@<TRIPOS>BOND
     1    13    12    1
     2    48    47    1
     3    12     7    1
     4    47    38    1
     5     8     6    1
     6    42    39    1
     7    35    34    1
     8    25    24    1
     9     7     6   ar
    10     7     4   ar
    11    38    39   ar
    12    38    40   ar
    13     6     3   ar
    14    39    41   ar
    15    34    26    1
    16    24    20    1
    17    21    19    1
    18    30    27    1
    19    20    19   ar
    20    20    17   ar
    21    26    27   ar
    22    26    28   ar
    23    19    16   ar
    24    27    29   ar
    25     3     9    1
    26     3     1   ar
    27     4    16    1
    28     4     2   ar
    29    40    29    1
    30    40    43   ar
    31    41    46    1
    32    41    44   ar
    33    16    14   ar
    34    17    28    1
    35    17    15   ar
    36    29    32   ar
    37    28    31   ar
    38    14    15   ar
    39    14    22    1
    40    15    18    1
    41    31    32   ar
    42    31    33    1
    43    32    36    1
    44    22    23    1
    45    36    37    1
    46     2     1   ar
    47     2     5    1
    48     1    10    1
    49    43    44   ar
    50    43    45    1
    51    44    49    1
    52    10    11    1
    53    49    50    1
