@<TRIPOS>MOLECULE
mol_data/opt/m06hf/geoms/mol2/4ff4ff-4ff.out
 38 40 0 0 0
SMALL
GASTEIGER

@<TRIPOS>ATOM
      1 C          -0.1038    0.0712    0.2688 C.ar    1  LIG1        0.1177
      2 C           1.2859    0.1053    0.2742 C.ar    1  LIG1       -0.0089
      3 C          -0.8252    1.2303   -0.0045 C.ar    1  LIG1       -0.0167
      4 C           1.9864    1.2842    0.0017 C.ar    1  LIG1        0.0306
      5 H           1.8517   -0.7887    0.5120 H       1  LIG1        0.0661
      6 C          -0.1449    2.4102   -0.2671 C.ar    1  LIG1       -0.0161
      7 C           1.2462    2.4365   -0.2680 C.ar    1  LIG1        0.1249
      8 H          -0.6991    3.3178   -0.4778 H       1  LIG1        0.0655
      9 H          -1.9055    1.1892   -0.0011 H       1  LIG1        0.0655
     10 O          -0.8134   -1.0630    0.5315 O.3     1  LIG1       -0.5067
     11 H          -0.2196   -1.8037    0.6913 H       1  LIG1        0.2921
     12 O           1.9387    3.5987   -0.5338 O.3     1  LIG1       -0.5062
     13 H           1.3401    4.3001   -0.8111 H       1  LIG1        0.2922
     14 C           4.2696    2.1785    0.6780 C.ar    1  LIG1        0.1255
     15 C           5.6512    2.0258    0.6908 C.ar    1  LIG1       -0.0083
     16 C           3.4800    1.2509   -0.0175 C.ar    1  LIG1        0.0306
     17 C           6.2885    0.9795    0.0216 C.ar    1  LIG1        0.0306
     18 H           6.2282    2.7448    1.2582 H       1  LIG1        0.0661
     19 C           4.1172    0.2045   -0.6867 C.ar    1  LIG1       -0.0083
     20 C           5.4989    0.0519   -0.6739 C.ar    1  LIG1        0.1255
     21 H           3.5402   -0.5145   -1.2540 H       1  LIG1        0.0661
     22 O           3.7411    3.2079    1.3993 O.3     1  LIG1       -0.5061
     23 H           3.0461    3.6287    0.8677 H       1  LIG1        0.2922
     24 O           6.0274   -0.9775   -1.3952 O.3     1  LIG1       -0.5061
     25 H           6.7226   -1.3982   -0.8637 H       1  LIG1        0.2922
     26 C           8.5221   -0.2064    0.2723 C.ar    1  LIG1        0.1249
     27 C           9.9132   -0.1803    0.2714 C.ar    1  LIG1       -0.0161
     28 C           7.7821    0.9460    0.0025 C.ar    1  LIG1        0.0306
     29 C          10.5937    0.9994    0.0087 C.ar    1  LIG1       -0.0167
     30 H          10.4673   -1.0880    0.4822 H       1  LIG1        0.0655
     31 C           8.4827    2.1247   -0.2701 C.ar    1  LIG1       -0.0089
     32 C           9.8724    2.1586   -0.2647 C.ar    1  LIG1        0.1177
     33 H           7.9170    3.0188   -0.5080 H       1  LIG1        0.0661
     34 H          11.6740    1.0404    0.0054 H       1  LIG1        0.0655
     35 O           7.8294   -1.3685    0.5382 O.3     1  LIG1       -0.5062
     36 H           8.4279   -2.0700    0.8156 H       1  LIG1        0.2922
     37 O          10.5822    3.2927   -0.5274 O.3     1  LIG1       -0.5067
     38 H           9.9885    4.0335   -0.6873 H       1  LIG1        0.2921
@<TRIPOS>BOND
     1    24    25    1
     2    24    20    1
     3    21    19    1
     4    13    12    1
     5    38    37    1
     6    19    20   ar
     7    19    16   ar
     8    20    17   ar
     9    12     7    1
    10    37    32    1
    11    33    31    1
    12     8     6    1
    13    31    32   ar
    14    31    28   ar
    15     7     6   ar
    16     7     4   ar
    17     6     3   ar
    18    32    29   ar
    19    16     4    1
    20    16    14   ar
    21     3     9    1
    22     3     1   ar
    23     4     2   ar
    24    28    17    1
    25    28    26   ar
    26    34    29    1
    27    29    27   ar
    28    17    15   ar
    29     1     2   ar
    30     1    10    1
    31    27    26   ar
    32    27    30    1
    33    26    35    1
    34     2     5    1
    35    10    11    1
    36    35    36    1
    37    14    15   ar
    38    14    22    1
    39    15    18    1
    40    23    22    1
