@<TRIPOS>MOLECULE
mol_data/opt/m06hf/geoms/mol2/4ff4ff-4ff4ff-.out
 50 53 0 0 0
SMALL
GASTEIGER

@<TRIPOS>ATOM
      1 C          -0.2227    0.1075    0.4116 C.ar    1  LIG1        0.1177
      2 C           1.1670    0.1417    0.4177 C.ar    1  LIG1       -0.0089
      3 C          -0.9424    1.2212   -0.0127 C.ar    1  LIG1       -0.0167
      4 C           1.8679    1.2757   -0.0026 C.ar    1  LIG1        0.0306
      5 H           1.7320   -0.7145    0.7693 H       1  LIG1        0.0661
      6 C          -0.2612    2.3580   -0.4218 C.ar    1  LIG1       -0.0161
      7 C           1.1298    2.3836   -0.4206 C.ar    1  LIG1        0.1249
      8 H          -0.8145    3.2315   -0.7481 H       1  LIG1        0.0655
      9 H          -2.0227    1.1797   -0.0086 H       1  LIG1        0.0655
     10 O          -0.9345   -0.9822    0.8166 O.3     1  LIG1       -0.5067
     11 H          -0.3430   -1.6987    1.0689 H       1  LIG1        0.2921
     12 O           1.8256    3.5021   -0.8278 O.3     1  LIG1       -0.5062
     13 H           1.2338    4.1527   -1.2201 H       1  LIG1        0.2922
     14 C           4.1497    2.2501    0.5557 C.ar    1  LIG1        0.1255
     15 C           5.5319    2.1041    0.5835 C.ar    1  LIG1       -0.0083
     16 C           3.3617    1.2407   -0.0175 C.ar    1  LIG1        0.0306
     17 C           6.1685    0.9842    0.0468 C.ar    1  LIG1        0.0306
     18 H           6.1079    2.8893    1.0567 H       1  LIG1        0.0661
     19 C           3.9992    0.1209   -0.5533 C.ar    1  LIG1       -0.0083
     20 C           5.3812   -0.0258   -0.5249 C.ar    1  LIG1        0.1255
     21 H           3.4226   -0.6649   -1.0246 H       1  LIG1        0.0661
     22 O           3.6203    3.3602    1.1427 O.3     1  LIG1       -0.5061
     23 H           2.9177    3.7082    0.5696 H       1  LIG1        0.2922
     24 O           5.9129   -1.1359   -1.1116 O.3     1  LIG1       -0.5061
     25 H           6.6087   -1.4891   -0.5344 H       1  LIG1        0.2922
     26 C           8.4086   -0.1547    0.4436 C.ar    1  LIG1        0.1255
     27 C           9.7963   -0.1233    0.4415 C.ar    1  LIG1       -0.0083
     28 C           7.6608    0.9489    0.0272 C.ar    1  LIG1        0.0306
     29 C          10.5003    1.0071    0.0251 C.ar    1  LIG1        0.0306
     30 H          10.3574   -0.9845    0.7880 H       1  LIG1        0.0661
     31 C           8.3651    2.0788   -0.3899 C.ar    1  LIG1       -0.0083
     32 C           9.7528    2.1102   -0.3921 C.ar    1  LIG1        0.1255
     33 H           7.8040    2.9397   -0.7367 H       1  LIG1        0.0661
     34 O           7.7215   -1.2710    0.8609 O.3     1  LIG1       -0.5061
     35 H           8.3172   -1.9170    1.2557 H       1  LIG1        0.2922
     36 O          10.4396    3.2258   -0.8117 O.3     1  LIG1       -0.5061
     37 H           9.8431    3.8731   -1.2031 H       1  LIG1        0.2922
     38 C          12.7743    1.9873    0.5804 C.ar    1  LIG1        0.1249
     39 C          14.1594    1.8502    0.6086 C.ar    1  LIG1       -0.0161
     40 C          11.9933    0.9736    0.0045 C.ar    1  LIG1        0.0306
     41 C          14.7801    0.7307    0.0700 C.ar    1  LIG1       -0.0167
     42 H          14.7330    2.6431    1.0689 H       1  LIG1        0.0655
     43 C          12.6255   -0.1392   -0.5541 C.ar    1  LIG1       -0.0089
     44 C          14.0086   -0.2658   -0.5226 C.ar    1  LIG1        0.1177
     45 H          12.0464   -0.9168   -1.0356 H       1  LIG1        0.0661
     46 H          15.8599    0.6382    0.1040 H       1  LIG1        0.0655
     47 O          12.2324    3.0910    1.1693 O.3     1  LIG1       -0.5062
     48 H          11.5450    3.4493    0.5849 H       1  LIG1        0.2922
     49 O          14.5508   -1.3872   -1.0849 O.3     1  LIG1       -0.5067
     50 H          15.5120   -1.3463   -1.0516 H       1  LIG1        0.2921
@<TRIPOS>BOND
     1    13    12    1
     2    37    36    1
     3    24    25    1
     4    24    20    1
     5    49    50    1
     6    49    44    1
     7    45    43    1
     8    21    19    1
     9    12     7    1
    10    36    32    1
    11     8     6    1
    12    33    31    1
    13    43    44   ar
    14    43    40   ar
    15    19    20   ar
    16    19    16   ar
    17    20    17   ar
    18    44    41   ar
    19     6     7   ar
    20     6     3   ar
    21     7     4   ar
    22    32    31   ar
    23    32    29   ar
    24    31    28   ar
    25    16     4    1
    26    16    14   ar
    27     3     9    1
    28     3     1   ar
    29     4     2   ar
    30    40    29    1
    31    40    38   ar
    32    29    27   ar
    33    28    17    1
    34    28    26   ar
    35    17    15   ar
    36    41    46    1
    37    41    39   ar
    38     1     2   ar
    39     1    10    1
    40     2     5    1
    41    27    26   ar
    42    27    30    1
    43    26    34    1
    44    14    15   ar
    45    14    22    1
    46    23    22    1
    47    38    39   ar
    48    38    47    1
    49    15    18    1
    50    48    47    1
    51    39    42    1
    52    10    11    1
    53    34    35    1
