@<TRIPOS>MOLECULE
mol_data/opt/m06hf/geoms/mol2/4fg.out
 14 14 0 0 0
SMALL
GASTEIGER

@<TRIPOS>ATOM
      1 C           0.0803    0.0045    0.0004 C.ar    1  LIG1        0.1169
      2 C           1.4722    0.0002    0.0000 C.ar    1  LIG1       -0.0191
      3 C          -0.6091    1.2146    0.0003 C.ar    1  LIG1       -0.0191
      4 C           2.1700    1.2037   -0.0005 C.ar    1  LIG1       -0.0451
      5 H           2.0150   -0.9379    0.0001 H       1  LIG1        0.0654
      6 C           0.0921    2.4128   -0.0002 C.ar    1  LIG1       -0.0451
      7 C           1.4876    2.4181   -0.0006 C.ar    1  LIG1        0.0050
      8 H          -0.4581    3.3451   -0.0003 H       1  LIG1        0.0630
      9 H           3.2527    1.1908   -0.0008 H       1  LIG1        0.0630
     10 H          -1.6901    1.1970    0.0006 H       1  LIG1        0.0654
     11 O          -0.6616   -1.1383    0.0009 O.3     1  LIG1       -0.5068
     12 H          -0.0916   -1.9138    0.0010 H       1  LIG1        0.2921
     13 S           2.4551    3.9175   -0.0013 S.3     1  LIG1       -0.1426
     14 H           1.4179    4.7604   -0.0012 H       1  LIG1        0.1071
@<TRIPOS>BOND
     1    13    14    1
     2    13     7    1
     3     9     4    1
     4     7     4   ar
     5     7     6   ar
     6     4     2   ar
     7     8     6    1
     8     6     3   ar
     9     2     5    1
    10     2     1   ar
    11     3     1   ar
    12     3    10    1
    13     1    11    1
    14    11    12    1
