@<TRIPOS>MOLECULE
mol_data/opt/m06hf/geoms/mol2/4fg4fg-4fg.out
 38 40 0 0 0
SMALL
GASTEIGER

@<TRIPOS>ATOM
      1 C          -0.1358    0.0453   -0.4181 C.ar    1  LIG1        0.1175
      2 C           1.2521    0.0423   -0.3861 C.ar    1  LIG1       -0.0113
      3 C          -0.8353    1.1912   -0.0427 C.ar    1  LIG1       -0.0191
      4 C           1.9549    1.1756    0.0266 C.ar    1  LIG1        0.0022
      5 H           1.8093   -0.8426   -0.6722 H       1  LIG1        0.0660
      6 C          -0.1397    2.3164    0.3699 C.ar    1  LIG1       -0.0445
      7 C           1.2572    2.3210    0.4202 C.ar    1  LIG1        0.0128
      8 H          -0.6937    3.1996    0.6617 H       1  LIG1        0.0630
      9 H          -1.9162    1.1785   -0.0792 H       1  LIG1        0.0654
     10 O          -0.8646   -1.0367   -0.8115 O.3     1  LIG1       -0.5067
     11 H          -0.2823   -1.7718   -1.0282 H       1  LIG1        0.2921
     12 S           2.1742    3.7424    0.9992 S.3     1  LIG1       -0.1420
     13 H           1.1037    4.4008    1.4555 H       1  LIG1        0.1071
     14 C           4.1504    0.2279    0.8122 C.ar    1  LIG1        0.1252
     15 C           5.5397    0.2258    0.8028 C.ar    1  LIG1       -0.0107
     16 C           3.4490    1.1469    0.0235 C.ar    1  LIG1        0.0258
     17 C           6.2516    1.1287    0.0156 C.ar    1  LIG1        0.0023
     18 H           6.0893   -0.4844    1.4105 H       1  LIG1        0.0661
     19 C           4.1666    2.0336   -0.7751 C.ar    1  LIG1       -0.0367
     20 C           5.5612    2.0380   -0.7897 C.ar    1  LIG1        0.0134
     21 H           3.6100    2.7243   -1.3977 H       1  LIG1        0.0636
     22 O           3.4287   -0.6454    1.5676 O.3     1  LIG1       -0.5061
     23 H           4.0144   -1.1628    2.1299 H       1  LIG1        0.2922
     24 S           6.4954    3.1446   -1.8339 S.3     1  LIG1       -0.1420
     25 H           5.4224    3.7170   -2.3892 H       1  LIG1        0.1071
     26 C           8.4609    0.0271   -0.4599 C.ar    1  LIG1        0.1246
     27 C           9.8538    0.0276   -0.4360 C.ar    1  LIG1       -0.0185
     28 C           7.7458    1.1187    0.0484 C.ar    1  LIG1        0.0257
     29 C          10.5409    1.1184    0.0860 C.ar    1  LIG1       -0.0451
     30 H          10.4001   -0.8216   -0.8298 H       1  LIG1        0.0654
     31 C           8.4493    2.1936    0.5868 C.ar    1  LIG1       -0.0373
     32 C           9.8434    2.2083    0.5981 C.ar    1  LIG1        0.0055
     33 H           7.8965    3.0286    1.0000 H       1  LIG1        0.0636
     34 H          11.6229    1.1231    0.0970 H       1  LIG1        0.0630
     35 O           7.7458   -1.0155   -0.9565 O.3     1  LIG1       -0.5062
     36 H           8.3300   -1.6582   -1.3721 H       1  LIG1        0.2922
     37 S          10.7345    3.5845    1.3184 S.3     1  LIG1       -0.1426
     38 H          10.5361    4.4375    0.3061 H       1  LIG1        0.1071
@<TRIPOS>BOND
     1    25    24    1
     2    24    20    1
     3    21    19    1
     4    36    35    1
     5    11    10    1
     6    35    26    1
     7    30    27    1
     8    10     1    1
     9    20    19   ar
    10    20    17   ar
    11    19    16   ar
    12     5     2    1
    13    26    27   ar
    14    26    28   ar
    15    27    29   ar
    16     1     2   ar
    17     1     3   ar
    18     2     4   ar
    19     9     3    1
    20     3     6   ar
    21    17    28    1
    22    17    15   ar
    23    16     4    1
    24    16    14   ar
    25     4     7   ar
    26    28    31   ar
    27    29    34    1
    28    29    32   ar
    29    38    37    1
    30     6     7   ar
    31     6     8    1
    32     7    12    1
    33    31    32   ar
    34    31    33    1
    35    32    37    1
    36    15    14   ar
    37    15    18    1
    38    14    22    1
    39    12    13    1
    40    22    23    1
