@<TRIPOS>MOLECULE
mol_data/opt/m06hf/geoms/mol2/4fg4fg.out
 26 27 0 0 0
SMALL
GASTEIGER

@<TRIPOS>ATOM
      1 C          -0.0364    0.1190    0.6480 C.ar    1  LIG1        0.1175
      2 C           1.3518    0.1098    0.6199 C.ar    1  LIG1       -0.0113
      3 C          -0.7341    1.1884    0.0884 C.ar    1  LIG1       -0.0191
      4 C           2.0547    1.1605    0.0289 C.ar    1  LIG1        0.0022
      5 H           1.9079   -0.7143    1.0520 H       1  LIG1        0.0660
      6 C          -0.0378    2.2301   -0.5035 C.ar    1  LIG1       -0.0445
      7 C           1.3590    2.2266   -0.5473 C.ar    1  LIG1        0.0128
      8 H          -0.5909    3.0529   -0.9381 H       1  LIG1        0.0630
      9 H          -1.8147    1.1817    0.1247 H       1  LIG1        0.0654
     10 O          -0.7684   -0.8810    1.2138 O.3     1  LIG1       -0.5067
     11 H          -0.1893   -1.5739    1.5469 H       1  LIG1        0.2921
     12 S           2.2844    3.5357   -1.3396 S.3     1  LIG1       -0.1420
     13 H           1.2115    4.1351   -1.8631 H       1  LIG1        0.1071
     14 C           4.2639    0.1568   -0.6461 C.ar    1  LIG1        0.1246
     15 C           5.6563    0.1684   -0.6446 C.ar    1  LIG1       -0.0185
     16 C           3.5492    1.1472    0.0413 C.ar    1  LIG1        0.0257
     17 C           6.3451    1.1702    0.0319 C.ar    1  LIG1       -0.0451
     18 H           6.2025   -0.5984   -1.1818 H       1  LIG1        0.0654
     19 C           4.2553    2.1217    0.7426 C.ar    1  LIG1       -0.0373
     20 C           5.6492    2.1510    0.7314 C.ar    1  LIG1        0.0055
     21 H           3.7033    2.8670    1.3026 H       1  LIG1        0.0636
     22 H           7.4266    1.1903    0.0153 H       1  LIG1        0.0630
     23 O           3.5487   -0.7992   -1.2939 O.3     1  LIG1       -0.5062
     24 H           4.1357   -1.3924   -1.7743 H       1  LIG1        0.2922
     25 S           6.5514    3.3967    1.6470 S.3     1  LIG1       -0.1426
     26 H           6.1553    4.4389    0.9059 H       1  LIG1        0.1071
@<TRIPOS>BOND
     1    13    12    1
     2    24    23    1
     3    12     7    1
     4    23    14    1
     5    18    15    1
     6     8     6    1
     7    14    15   ar
     8    14    16   ar
     9    15    17   ar
    10     7     6   ar
    11     7     4   ar
    12     6     3   ar
    13    22    17    1
    14     4    16    1
    15     4     2   ar
    16    17    20   ar
    17    16    19   ar
    18     3     9    1
    19     3     1   ar
    20     2     1   ar
    21     2     5    1
    22     1    10    1
    23    20    19   ar
    24    20    25    1
    25    19    21    1
    26    26    25    1
    27    10    11    1
