@<TRIPOS>MOLECULE
mol_data/opt/m06hf/geoms/mol2/4fg4fg4fg4fg.out
 50 53 0 0 0
SMALL
GASTEIGER

@<TRIPOS>ATOM
      1 C          -0.1826    1.0673    1.4034 C.ar    1  LIG1        0.1175
      2 C           1.2025    1.0173    1.3298 C.ar    1  LIG1       -0.0113
      3 C          -0.9305    1.2928    0.2491 C.ar    1  LIG1       -0.0191
      4 C           1.8554    1.1812    0.1067 C.ar    1  LIG1        0.0022
      5 H           1.7966    0.8391    2.2191 H       1  LIG1        0.0660
      6 C          -0.2853    1.4495   -0.9670 C.ar    1  LIG1       -0.0445
      7 C           1.1079    1.3852   -1.0572 C.ar    1  LIG1        0.0128
      8 H          -0.8764    1.6204   -1.8580 H       1  LIG1        0.0630
      9 H          -2.0082    1.3368    0.3270 H       1  LIG1        0.0654
     10 O          -0.8645    0.9110    2.5725 O.3     1  LIG1       -0.5067
     11 H          -0.2546    0.7553    3.3013 H       1  LIG1        0.2921
     12 S           1.9532    1.5255   -2.6288 S.3     1  LIG1       -0.1420
     13 H           0.8464    1.4183   -3.3704 H       1  LIG1        0.1071
     14 C           4.0679    0.0470    0.5213 C.ar    1  LIG1        0.1252
     15 C           5.4552    0.0518    0.4707 C.ar    1  LIG1       -0.0107
     16 C           3.3483    1.1587    0.0686 C.ar    1  LIG1        0.0258
     17 C           6.1553    1.1446   -0.0425 C.ar    1  LIG1        0.0023
     18 H           6.0146   -0.8093    0.8185 H       1  LIG1        0.0661
     19 C           4.0524    2.2532   -0.4254 C.ar    1  LIG1       -0.0367
     20 C           5.4448    2.2548   -0.5112 C.ar    1  LIG1        0.0134
     21 H           3.4878    3.1186   -0.7524 H       1  LIG1        0.0636
     22 O           3.3667   -1.0097    1.0181 O.3     1  LIG1       -0.5061
     23 H           3.9523   -1.7626    1.1505 H       1  LIG1        0.2922
     24 S           6.3199    3.6365   -1.2335 S.3     1  LIG1       -0.1420
     25 H           5.2384    4.1708   -1.8113 H       1  LIG1        0.1071
     26 C           8.3515    0.0734   -0.6621 C.ar    1  LIG1        0.1252
     27 C           9.7399    0.0736   -0.6525 C.ar    1  LIG1       -0.0107
     28 C           7.6479    1.1173   -0.0494 C.ar    1  LIG1        0.0258
     29 C          10.4565    1.1100   -0.0548 C.ar    1  LIG1        0.0023
     30 H          10.2864   -0.7336   -1.1264 H       1  LIG1        0.0661
     31 C           8.3694    2.1375    0.5644 C.ar    1  LIG1       -0.0367
     32 C           9.7639    2.1645    0.5480 C.ar    1  LIG1        0.0134
     33 H           7.8191    2.9267    1.0633 H       1  LIG1        0.0636
     34 O           7.6351   -0.9302   -1.2414 O.3     1  LIG1       -0.5061
     35 H           8.2188   -1.5061   -1.7461 H       1  LIG1        0.2922
     36 S          10.6733    3.5299    1.2554 S.3     1  LIG1       -0.1420
     37 H           9.6245    4.3576    1.3094 H       1  LIG1        0.1071
     38 C          12.6808    0.9885   -1.2336 C.ar    1  LIG1        0.1246
     39 C          14.0732    0.9689   -1.2042 C.ar    1  LIG1       -0.0185
     40 C          11.9489    1.0630   -0.0405 C.ar    1  LIG1        0.0257
     41 C          14.7472    1.0287    0.0109 C.ar    1  LIG1       -0.0451
     42 H          14.6299    0.9153   -2.1326 H       1  LIG1        0.0654
     43 C          12.6410    1.0894    1.1681 C.ar    1  LIG1       -0.0373
     44 C          14.0344    1.0908    1.2041 C.ar    1  LIG1        0.0055
     45 H          12.0816    1.1084    2.0958 H       1  LIG1        0.0636
     46 H          15.8291    1.0260    0.0331 H       1  LIG1        0.0630
     47 O          11.9835    0.9310   -2.3983 O.3     1  LIG1       -0.5062
     48 H          12.5823    0.9458   -3.1523 H       1  LIG1        0.2922
     49 S          14.9044    1.1192    2.7705 S.3     1  LIG1       -0.1426
     50 H          14.6956    2.4145    3.0337 H       1  LIG1        0.1071
@<TRIPOS>BOND
     1    13    12    1
     2    48    47    1
     3    12     7    1
     4    47    38    1
     5    42    39    1
     6     8     6    1
     7    25    24    1
     8    35    34    1
     9    34    26    1
    10    38    39   ar
    11    38    40   ar
    12    24    20    1
    13    39    41   ar
    14    30    27    1
    15     7     6   ar
    16     7     4   ar
    17     6     3   ar
    18    21    19    1
    19    26    27   ar
    20    26    28   ar
    21    27    29   ar
    22    20    19   ar
    23    20    17   ar
    24    19    16   ar
    25    29    40    1
    26    29    32   ar
    27    28    17    1
    28    28    31   ar
    29    17    15   ar
    30    40    43   ar
    31    41    46    1
    32    41    44   ar
    33    16     4    1
    34    16    14   ar
    35     4     2   ar
    36     3     9    1
    37     3     1   ar
    38    15    14   ar
    39    15    18    1
    40    14    22    1
    41    32    31   ar
    42    32    36    1
    43    31    33    1
    44    22    23    1
    45    43    44   ar
    46    43    45    1
    47    44    49    1
    48    36    37    1
    49     2     1   ar
    50     2     5    1
    51     1    10    1
    52    10    11    1
    53    49    50    1
