@<TRIPOS>MOLECULE
mol_data/opt/m06hf/geoms/mol2/4fg4fg4fg4fg-.out
 50 53 0 0 0
SMALL
GASTEIGER

@<TRIPOS>ATOM
      1 C          -0.1747    0.6699    1.2396 C.ar    1  LIG1        0.1175
      2 C           1.2090    0.6260    1.1423 C.ar    1  LIG1       -0.0113
      3 C          -0.9209    1.2855    0.2359 C.ar    1  LIG1       -0.0191
      4 C           1.8617    1.1880    0.0430 C.ar    1  LIG1        0.0022
      5 H           1.8024    0.1486    1.9138 H       1  LIG1        0.0660
      6 C          -0.2758    1.8397   -0.8580 C.ar    1  LIG1       -0.0445
      7 C           1.1165    1.7912   -0.9737 C.ar    1  LIG1        0.0128
      8 H          -0.8657    2.3153   -1.6312 H       1  LIG1        0.0630
      9 H          -1.9977    1.3174    0.3321 H       1  LIG1        0.0654
     10 O          -0.8572    0.1374    2.2917 O.3     1  LIG1       -0.5067
     11 H          -0.2468   -0.2619    2.9201 H       1  LIG1        0.2921
     12 S           1.9653    2.4677   -2.3952 S.3     1  LIG1       -0.1420
     13 H           0.8571    2.6269   -3.1270 H       1  LIG1        0.1071
     14 C           4.0541   -0.0521   -0.0041 C.ar    1  LIG1        0.1252
     15 C           5.4424   -0.0510   -0.0356 C.ar    1  LIG1       -0.0107
     16 C           3.3548    1.1607   -0.0058 C.ar    1  LIG1        0.0258
     17 C           6.1586    1.1454   -0.0786 C.ar    1  LIG1        0.0023
     18 H           5.9899   -0.9867   -0.0398 H       1  LIG1        0.0661
     19 C           4.0758    2.3508   -0.0391 C.ar    1  LIG1       -0.0367
     20 C           5.4699    2.3616   -0.0952 C.ar    1  LIG1        0.0134
     21 H           3.5243    3.2835   -0.0179 H       1  LIG1        0.0636
     22 O           3.3309   -1.2045    0.0442 O.3     1  LIG1       -0.5061
     23 H           3.9136   -1.9660   -0.0426 H       1  LIG1        0.2922
     24 S           6.3871    3.8905   -0.1950 S.3     1  LIG1       -0.1420
     25 H           5.3420    4.6292   -0.5814 H       1  LIG1        0.1071
     26 C           8.3568    0.4754   -1.1072 C.ar    1  LIG1        0.1252
     27 C           9.7458    0.4791   -1.0984 C.ar    1  LIG1       -0.0107
     28 C           7.6517    1.1062   -0.0759 C.ar    1  LIG1        0.0258
     29 C          10.4550    1.0890   -0.0648 C.ar    1  LIG1        0.0023
     30 H          10.2976   -0.0014   -1.8982 H       1  LIG1        0.0661
     31 C           8.3651    1.6975    0.9626 C.ar    1  LIG1       -0.0367
     32 C           9.7595    1.6894    0.9892 C.ar    1  LIG1        0.0134
     33 H           7.8066    2.1636    1.7662 H       1  LIG1        0.0636
     34 O           7.6372   -0.1261   -2.0932 O.3     1  LIG1       -0.5061
     35 H           8.2227   -0.4631   -2.7792 H       1  LIG1        0.2922
     36 S          10.6744    2.3920    2.3547 S.3     1  LIG1       -0.1420
     37 H           9.6042    2.5562    3.1384 H       1  LIG1        0.1071
     38 C          12.6847   -0.0851   -0.1034 C.ar    1  LIG1        0.1246
     39 C          14.0767   -0.0494   -0.0935 C.ar    1  LIG1       -0.0185
     40 C          11.9482    1.1069   -0.0963 C.ar    1  LIG1        0.0257
     41 C          14.7439    1.1710   -0.0630 C.ar    1  LIG1       -0.0451
     42 H          14.6389   -0.9761   -0.0959 H       1  LIG1        0.0654
     43 C          12.6331    2.3200   -0.1084 C.ar    1  LIG1       -0.0373
     44 C          14.0260    2.3626   -0.0723 C.ar    1  LIG1        0.0055
     45 H          12.0660    3.2428   -0.1411 H       1  LIG1        0.0636
     46 H          15.8251    1.1976   -0.0302 H       1  LIG1        0.0630
     47 O          11.9924   -1.2553   -0.1283 O.3     1  LIG1       -0.5062
     48 H          12.5878   -2.0009    0.0020 H       1  LIG1        0.2922
     49 S          14.8957    3.9278   -0.0767 S.3     1  LIG1       -0.1426
     50 H          14.4699    4.3319    1.1265 H       1  LIG1        0.1071
@<TRIPOS>BOND
     1    13    12    1
     2    35    34    1
     3    12     7    1
     4    34    26    1
     5    30    27    1
     6     8     6    1
     7    26    27   ar
     8    26    28   ar
     9    27    29   ar
    10     7     6   ar
    11     7     4   ar
    12     6     3   ar
    13    25    24    1
    14    24    20    1
    15    45    43    1
    16    47    38    1
    17    47    48    1
    18    43    40   ar
    19    43    44   ar
    20    38    40   ar
    21    38    39   ar
    22    40    29    1
    23    42    39    1
    24    20    17   ar
    25    20    19   ar
    26    39    41   ar
    27    17    28    1
    28    17    15   ar
    29    49    44    1
    30    49    50    1
    31    28    31   ar
    32    44    41   ar
    33    29    32   ar
    34    41    46    1
    35    23    22    1
    36    18    15    1
    37    19    21    1
    38    19    16   ar
    39    15    14   ar
    40    16    14   ar
    41    16     4    1
    42    14    22    1
    43     4     2   ar
    44     3     9    1
    45     3     1   ar
    46    31    32   ar
    47    31    33    1
    48    32    36    1
    49     2     1   ar
    50     2     5    1
    51     1    10    1
    52    10    11    1
    53    36    37    1
