@<TRIPOS>MOLECULE
mol_data/opt/m06hf/geoms/mol2/4fg4fg-4fg4fg-.out
 50 53 0 0 0
SMALL
GASTEIGER

@<TRIPOS>ATOM
      1 C          -0.2452    0.1302   -0.5587 C.ar    1  LIG1        0.1175
      2 C           1.1425    0.1134   -0.5387 C.ar    1  LIG1       -0.0113
      3 C          -0.9329    1.2264   -0.0410 C.ar    1  LIG1       -0.0191
      4 C           1.8593    1.1820    0.0045 C.ar    1  LIG1        0.0022
      5 H           1.6894   -0.7343   -0.9350 H       1  LIG1        0.0660
      6 C          -0.2246    2.2862    0.5014 C.ar    1  LIG1       -0.0445
      7 C           1.1729    2.2746    0.5424 C.ar    1  LIG1        0.0128
      8 H          -0.7684    3.1322    0.9018 H       1  LIG1        0.0630
      9 H          -2.0140    1.2267   -0.0714 H       1  LIG1        0.0654
     10 O          -0.9868   -0.8885   -1.0767 O.3     1  LIG1       -0.5067
     11 H          -0.4141   -1.5926   -1.3975 H       1  LIG1        0.2921
     12 S           2.0926    3.6137    1.2927 S.3     1  LIG1       -0.1420
     13 H           1.0225    4.1898    1.8503 H       1  LIG1        0.1071
     14 C           4.0607    0.0907    0.5667 C.ar    1  LIG1        0.1252
     15 C           5.4488    0.0896    0.5409 C.ar    1  LIG1       -0.0107
     16 C           3.3524    1.1446   -0.0227 C.ar    1  LIG1        0.0258
     17 C           6.1600    1.1211   -0.0717 C.ar    1  LIG1        0.0023
     18 H           6.0009   -0.7252    0.9953 H       1  LIG1        0.0661
     19 C           4.0675    2.1589   -0.6534 C.ar    1  LIG1       -0.0367
     20 C           5.4620    2.1636   -0.6900 C.ar    1  LIG1        0.0134
     21 H           3.5079    2.9554   -1.1300 H       1  LIG1        0.0636
     22 O           3.3481   -0.9113    1.1527 O.3     1  LIG1       -0.5061
     23 H           3.9437   -1.5371    1.5780 H       1  LIG1        0.2922
     24 S           6.3658    3.4507   -1.5393 S.3     1  LIG1       -0.1420
     25 H           5.2800    4.0297   -2.0589 H       1  LIG1        0.1071
     26 C           8.3669    0.0126   -0.5640 C.ar    1  LIG1        0.1252
     27 C           9.7553    0.0205   -0.5388 C.ar    1  LIG1       -0.0107
     28 C           7.6529    1.0968   -0.0409 C.ar    1  LIG1        0.0258
     29 C          10.4583    1.0920    0.0103 C.ar    1  LIG1        0.0023
     30 H          10.3121   -0.8171   -0.9435 H       1  LIG1        0.0661
     31 C           8.3601    2.1540    0.5256 C.ar    1  LIG1       -0.0367
     32 C           9.7542    2.1663    0.5632 C.ar    1  LIG1        0.0134
     33 H           7.7957    2.9766    0.9491 H       1  LIG1        0.0636
     34 O           7.6583   -1.0276   -1.0851 O.3     1  LIG1       -0.5061
     35 H           8.2537   -1.6659   -1.4919 H       1  LIG1        0.2922
     36 S          10.6556    3.5040    1.3318 S.3     1  LIG1       -0.1420
     37 H           9.5736    4.0964    1.8443 H       1  LIG1        0.1071
     38 C          12.6753    0.0624    0.6207 C.ar    1  LIG1        0.1246
     39 C          14.0675    0.0800    0.6112 C.ar    1  LIG1       -0.0185
     40 C          11.9518    1.0839   -0.0104 C.ar    1  LIG1        0.0257
     41 C          14.7497    1.1185   -0.0143 C.ar    1  LIG1       -0.0451
     42 H          14.6186   -0.7128    1.1041 H       1  LIG1        0.0654
     43 C          12.6516    2.0946   -0.6654 C.ar    1  LIG1       -0.0373
     44 C          14.0452    2.1318   -0.6567 C.ar    1  LIG1        0.0055
     45 H          12.0960    2.8636   -1.1889 H       1  LIG1        0.0636
     46 H          15.8315    1.1421   -0.0023 H       1  LIG1        0.0630
     47 O          11.9709   -0.9316    1.2240 O.3     1  LIG1       -0.5062
     48 H          12.5647   -1.5260    1.6942 H       1  LIG1        0.2922
     49 S          14.9312    3.4343   -1.5081 S.3     1  LIG1       -0.1426
     50 H          14.5398    4.4281   -0.6998 H       1  LIG1        0.1071
@<TRIPOS>BOND
     1    25    24    1
     2    24    20    1
     3    49    50    1
     4    49    44    1
     5    35    34    1
     6    11    10    1
     7    45    43    1
     8    21    19    1
     9    34    26    1
    10    10     1    1
    11    30    27    1
    12     5     2    1
    13    20    19   ar
    14    20    17   ar
    15    43    44   ar
    16    43    40   ar
    17    44    41   ar
    18    19    16   ar
    19    26    27   ar
    20    26    28   ar
    21     1     2   ar
    22     1     3   ar
    23    27    29   ar
    24     2     4   ar
    25    17    28    1
    26    17    15   ar
    27     9     3    1
    28     3     6   ar
    29    28    31   ar
    30    16     4    1
    31    16    14   ar
    32    41    46    1
    33    41    39   ar
    34    40    29    1
    35    40    38   ar
    36     4     7   ar
    37    29    32   ar
    38     6     7   ar
    39     6     8    1
    40    31    32   ar
    41    31    33    1
    42    15    14   ar
    43    15    18    1
    44     7    12    1
    45    32    36    1
    46    14    22    1
    47    39    38   ar
    48    39    42    1
    49    38    47    1
    50    22    23    1
    51    47    48    1
    52    12    13    1
    53    36    37    1
