@<TRIPOS>MOLECULE
mol_data/opt/m06hf/geoms/mol2/4fg4fg4fg-.out
 38 40 0 0 0
SMALL
GASTEIGER

@<TRIPOS>ATOM
      1 C          -0.1349    0.0431    0.4268 C.ar    1  LIG1        0.1175
      2 C           1.2530    0.0416    0.3969 C.ar    1  LIG1       -0.0113
      3 C          -0.8354    1.1838    0.0379 C.ar    1  LIG1       -0.0191
      4 C           1.9549    1.1713   -0.0270 C.ar    1  LIG1        0.0022
      5 H           1.8111   -0.8393    0.6934 H       1  LIG1        0.0660
      6 C          -0.1406    2.3055   -0.3859 C.ar    1  LIG1       -0.0445
      7 C           1.2564    2.3114   -0.4341 C.ar    1  LIG1        0.0128
      8 H          -0.6953    3.1847   -0.6881 H       1  LIG1        0.0630
      9 H          -1.9162    1.1701    0.0729 H       1  LIG1        0.0654
     10 O          -0.8629   -1.0355    0.8309 O.3     1  LIG1       -0.5067
     11 H          -0.2799   -1.7674    1.0565 H       1  LIG1        0.2921
     12 S           2.1724    3.7277   -1.0271 S.3     1  LIG1       -0.1420
     13 H           1.1017    4.3796   -1.4923 H       1  LIG1        0.1071
     14 C           4.1529    0.2181   -0.7992 C.ar    1  LIG1        0.1252
     15 C           5.5421    0.2180   -0.7879 C.ar    1  LIG1       -0.0107
     16 C           3.4491    1.1447   -0.0215 C.ar    1  LIG1        0.0258
     17 C           6.2517    1.1303   -0.0094 C.ar    1  LIG1        0.0023
     18 H           6.0936   -0.4979   -1.3872 H       1  LIG1        0.0661
     19 C           4.1643    2.0409    0.7686 C.ar    1  LIG1       -0.0367
     20 C           5.5590    2.0473    0.7851 C.ar    1  LIG1        0.0134
     21 H           3.6059    2.7376    1.3829 H       1  LIG1        0.0636
     22 O           3.4334   -0.6642   -1.5462 O.3     1  LIG1       -0.5061
     23 H           4.0206   -1.1871   -2.1018 H       1  LIG1        0.2922
     24 S           6.4902    3.1664    1.8186 S.3     1  LIG1       -0.1420
     25 H           5.4155    3.7430    2.3665 H       1  LIG1        0.1071
     26 C           8.4619    0.0369    0.4808 C.ar    1  LIG1        0.1246
     27 C           9.8548    0.0391    0.4590 C.ar    1  LIG1       -0.0185
     28 C           7.7459    1.1221   -0.0400 C.ar    1  LIG1        0.0257
     29 C          10.5412    1.1254   -0.0735 C.ar    1  LIG1       -0.0451
     30 H          10.4017   -0.8050    0.8625 H       1  LIG1        0.0654
     31 C           8.4488    2.1922   -0.5888 C.ar    1  LIG1       -0.0373
     32 C           9.8428    2.2088   -0.5982 C.ar    1  LIG1        0.0055
     33 H           7.8954    3.0220   -1.0116 H       1  LIG1        0.0636
     34 H          11.6232    1.1316   -0.0830 H       1  LIG1        0.0630
     35 O           7.7476   -1.0014    0.9873 O.3     1  LIG1       -0.5062
     36 H           8.3320   -1.6387    1.4108 H       1  LIG1        0.2922
     37 S          10.7330    3.5786   -1.3317 S.3     1  LIG1       -0.1426
     38 H          10.5317    4.4421   -0.3290 H       1  LIG1        0.1071
@<TRIPOS>BOND
     1    23    22    1
     2    22    14    1
     3    13    12    1
     4    18    15    1
     5    37    32    1
     6    37    38    1
     7    12     7    1
     8    33    31    1
     9    14    15   ar
    10    14    16   ar
    11    15    17   ar
    12     8     6    1
    13    32    31   ar
    14    32    29   ar
    15    31    28   ar
    16     7     6   ar
    17     7     4   ar
    18     6     3   ar
    19    34    29    1
    20    29    27   ar
    21    28    17    1
    22    28    26   ar
    23     4    16    1
    24     4     2   ar
    25    16    19   ar
    26    17    20   ar
    27     3     9    1
    28     3     1   ar
    29     2     1   ar
    30     2     5    1
    31     1    10    1
    32    27    26   ar
    33    27    30    1
    34    26    35    1
    35    19    20   ar
    36    19    21    1
    37    20    24    1
    38    10    11    1
    39    35    36    1
    40    24    25    1
