@<TRIPOS>MOLECULE
mol_data/opt/m06hf/geoms/mol2/4fg4fg-4fg4fg.out
 50 53 0 0 0
SMALL
GASTEIGER

@<TRIPOS>ATOM
      1 C          -0.2469    0.1409   -0.5571 C.ar    1  LIG1        0.1175
      2 C           1.1408    0.1229   -0.5393 C.ar    1  LIG1       -0.0113
      3 C          -0.9329    1.2326   -0.0278 C.ar    1  LIG1       -0.0191
      4 C           1.8593    1.1857    0.0130 C.ar    1  LIG1        0.0022
      5 H           1.6865   -0.7214   -0.9445 H       1  LIG1        0.0660
      6 C          -0.2230    2.2867    0.5236 C.ar    1  LIG1       -0.0445
      7 C           1.1746    2.2737    0.5623 C.ar    1  LIG1        0.0128
      8 H          -0.7656    3.1292    0.9328 H       1  LIG1        0.0630
      9 H          -2.0140    1.2340   -0.0567 H       1  LIG1        0.0654
     10 O          -0.9900   -0.8723   -1.0836 O.3     1  LIG1       -0.5067
     11 H          -0.4183   -1.5736   -1.4122 H       1  LIG1        0.2921
     12 S           2.0963    3.6048    1.3240 S.3     1  LIG1       -0.1420
     13 H           1.0275    4.1766    1.8883 H       1  LIG1        0.1071
     14 C           4.0608    0.0875    0.5611 C.ar    1  LIG1        0.1252
     15 C           5.4489    0.0855    0.5331 C.ar    1  LIG1       -0.0107
     16 C           3.3523    1.1474   -0.0169 C.ar    1  LIG1        0.0258
     17 C           6.1598    1.1223   -0.0707 C.ar    1  LIG1        0.0023
     18 H           6.0011   -0.7339    0.9788 H       1  LIG1        0.0661
     19 C           4.0672    2.1673   -0.6390 C.ar    1  LIG1       -0.0367
     20 C           5.4616    2.1713   -0.6778 C.ar    1  LIG1        0.0134
     21 H           3.5074    2.9688   -1.1069 H       1  LIG1        0.0636
     22 O           3.3484   -0.9196    1.1387 O.3     1  LIG1       -0.5061
     23 H           3.9442   -1.5505    1.5562 H       1  LIG1        0.2922
     24 S           6.3650    3.4658   -1.5163 S.3     1  LIG1       -0.1420
     25 H           5.2786    4.0505   -2.0285 H       1  LIG1        0.1071
     26 C           8.3651    0.0168   -0.5769 C.ar    1  LIG1        0.1252
     27 C           9.7535    0.0234   -0.5540 C.ar    1  LIG1       -0.0107
     28 C           7.6528    1.0966   -0.0425 C.ar    1  LIG1        0.0258
     29 C          10.4582    1.0893    0.0039 C.ar    1  LIG1        0.0023
     30 H          10.3090   -0.8107   -0.9674 H       1  LIG1        0.0661
     31 C           8.3617    2.1480    0.5325 C.ar    1  LIG1       -0.0367
     32 C           9.7559    2.1589    0.5680 C.ar    1  LIG1        0.0134
     33 H           7.7987    2.9670    0.9646 H       1  LIG1        0.0636
     34 O           7.6549   -1.0180   -1.1065 O.3     1  LIG1       -0.5061
     35 H           8.2491   -1.6535   -1.5193 H       1  LIG1        0.2922
     36 S          10.6595    3.4888    1.3476 S.3     1  LIG1       -0.1420
     37 H           9.5787    4.0767    1.8678 H       1  LIG1        0.1071
     38 C          12.6757    0.0521    0.6000 C.ar    1  LIG1        0.1246
     39 C          14.0679    0.0689    0.5883 C.ar    1  LIG1       -0.0185
     40 C          11.9517    1.0803   -0.0195 C.ar    1  LIG1        0.0257
     41 C          14.7497    1.1131   -0.0279 C.ar    1  LIG1       -0.0451
     42 H          14.6193   -0.7291    1.0723 H       1  LIG1        0.0654
     43 C          12.6511    2.0970   -0.6655 C.ar    1  LIG1       -0.0373
     44 C          14.0447    2.1333   -0.6590 C.ar    1  LIG1        0.0055
     45 H          12.0951    2.8716   -1.1804 H       1  LIG1        0.0636
     46 H          15.8315    1.1361   -0.0175 H       1  LIG1        0.0630
     47 O          11.9717   -0.9475    1.1945 O.3     1  LIG1       -0.5062
     48 H          12.5660   -1.5468    1.6579 H       1  LIG1        0.2922
     49 S          14.9301    3.4434   -1.4992 S.3     1  LIG1       -0.1426
     50 H          14.5405    4.4297   -0.6807 H       1  LIG1        0.1071
@<TRIPOS>BOND
     1    25    24    1
     2    35    34    1
     3    24    20    1
     4    49    50    1
     5    49    44    1
     6    11    10    1
     7    45    43    1
     8    21    19    1
     9    34    26    1
    10    10     1    1
    11    30    27    1
    12     5     2    1
    13    20    19   ar
    14    20    17   ar
    15    43    44   ar
    16    43    40   ar
    17    44    41   ar
    18    19    16   ar
    19    26    27   ar
    20    26    28   ar
    21     1     2   ar
    22     1     3   ar
    23    27    29   ar
    24     2     4   ar
    25    17    28    1
    26    17    15   ar
    27     9     3    1
    28    28    31   ar
    29    41    46    1
    30    41    39   ar
    31     3     6   ar
    32    40    29    1
    33    40    38   ar
    34    16     4    1
    35    16    14   ar
    36    29    32   ar
    37     4     7   ar
    38     6     7   ar
    39     6     8    1
    40    31    32   ar
    41    31    33    1
    42    15    14   ar
    43    15    18    1
    44    14    22    1
    45     7    12    1
    46    32    36    1
    47    39    38   ar
    48    39    42    1
    49    38    47    1
    50    22    23    1
    51    47    48    1
    52    12    13    1
    53    36    37    1
