@<TRIPOS>MOLECULE
mol_data/opt/m06hf/geoms/mol2/4fg4fg-.out
 26 27 0 0 0
SMALL
GASTEIGER

@<TRIPOS>ATOM
      1 C          -0.0333    0.1125   -0.6502 C.ar    1  LIG1        0.1175
      2 C           1.3548    0.1037   -0.6155 C.ar    1  LIG1       -0.0113
      3 C          -0.7336    1.1873   -0.1045 C.ar    1  LIG1       -0.0191
      4 C           2.0548    1.1602   -0.0316 C.ar    1  LIG1        0.0022
      5 H           1.9130   -0.7245   -1.0368 H       1  LIG1        0.0660
      6 C          -0.0402    2.2348    0.4803 C.ar    1  LIG1       -0.0445
      7 C           1.3564    2.2319    0.5308 C.ar    1  LIG1        0.0128
      8 H          -0.5954    3.0618    0.9042 H       1  LIG1        0.0630
      9 H          -1.8140    1.1801   -0.1459 H       1  LIG1        0.0654
     10 O          -0.7625   -0.8931   -1.2097 O.3     1  LIG1       -0.5067
     11 H          -0.1818   -1.5892   -1.5331 H       1  LIG1        0.2921
     12 S           2.2778    3.5488    1.3147 S.3     1  LIG1       -0.1420
     13 H           1.2025    4.1529    1.8276 H       1  LIG1        0.1071
     14 C           4.2609    0.1633    0.6637 C.ar    1  LIG1        0.1246
     15 C           5.6532    0.1750    0.6686 C.ar    1  LIG1       -0.0185
     16 C           3.5494    1.1469   -0.0367 C.ar    1  LIG1        0.0257
     17 C           6.3452    1.1702   -0.0142 C.ar    1  LIG1       -0.0451
     18 H           6.1969   -0.5866    1.2158 H       1  LIG1        0.0654
     19 C           4.2588    2.1146   -0.7441 C.ar    1  LIG1       -0.0373
     20 C           5.6526    2.1441   -0.7265 C.ar    1  LIG1        0.0055
     21 H           3.7094    2.8544   -1.3139 H       1  LIG1        0.0636
     22 H           7.4266    1.1905    0.0073 H       1  LIG1        0.0630
     23 O           3.5427   -0.7864    1.3173 O.3     1  LIG1       -0.5062
     24 H           4.1273   -1.3748    1.8063 H       1  LIG1        0.2922
     25 S           6.5592    3.3808   -1.6500 S.3     1  LIG1       -0.1426
     26 H           6.1594    4.4302   -0.9211 H       1  LIG1        0.1071
@<TRIPOS>BOND
     1    25    26    1
     2    25    20    1
     3    11    10    1
     4    21    19    1
     5    10     1    1
     6     5     2    1
     7    19    20   ar
     8    19    16   ar
     9    20    17   ar
    10     1     2   ar
    11     1     3   ar
    12     2     4   ar
    13     9     3    1
    14     3     6   ar
    15    16     4    1
    16    16    14   ar
    17     4     7   ar
    18    17    22    1
    19    17    15   ar
    20     6     7   ar
    21     6     8    1
    22     7    12    1
    23    14    15   ar
    24    14    23    1
    25    15    18    1
    26    12    13    1
    27    23    24    1
