@<TRIPOS>MOLECULE
mol_data/opt/m06hf/geoms/mol2/4fg4fg4fg-4fg.out
 50 53 0 0 0
SMALL
GASTEIGER

@<TRIPOS>ATOM
      1 C          -0.2473    0.1424    0.5627 C.ar    1  LIG1        0.1175
      2 C           1.1404    0.1245    0.5469 C.ar    1  LIG1       -0.0113
      3 C          -0.9329    1.2310    0.0267 C.ar    1  LIG1       -0.0191
      4 C           1.8593    1.1845   -0.0103 C.ar    1  LIG1        0.0022
      5 H           1.6857   -0.7174    0.9573 H       1  LIG1        0.0660
      6 C          -0.2225    2.2823   -0.5295 C.ar    1  LIG1       -0.0445
      7 C           1.1751    2.2694   -0.5663 C.ar    1  LIG1        0.0128
      8 H          -0.7648    3.1225   -0.9440 H       1  LIG1        0.0630
      9 H          -2.0141    1.2323    0.0541 H       1  LIG1        0.0654
     10 O          -0.9909   -0.8681    1.0937 O.3     1  LIG1       -0.5067
     11 H          -0.4195   -1.5676    1.4268 H       1  LIG1        0.2921
     12 S           2.0975    3.5966   -1.3340 S.3     1  LIG1       -0.1420
     13 H           1.0293    4.1650   -1.9030 H       1  LIG1        0.1071
     14 C           4.0617    0.0840   -0.5498 C.ar    1  LIG1        0.1252
     15 C           5.4498    0.0825   -0.5201 C.ar    1  LIG1       -0.0107
     16 C           3.3523    1.1468    0.0217 C.ar    1  LIG1        0.0258
     17 C           6.1597    1.1226    0.0791 C.ar    1  LIG1        0.0023
     18 H           6.0027   -0.7392   -0.9607 H       1  LIG1        0.0661
     19 C           4.0661    2.1701    0.6393 C.ar    1  LIG1       -0.0367
     20 C           5.4605    2.1746    0.6799 C.ar    1  LIG1        0.0134
     21 H           3.5056    2.9739    1.1024 H       1  LIG1        0.0636
     22 O           3.3503   -0.9263   -1.1230 O.3     1  LIG1       -0.5061
     23 H           3.9467   -1.5587   -1.5371 H       1  LIG1        0.2922
     24 S           6.3627    3.4737    1.5126 S.3     1  LIG1       -0.1420
     25 H           5.2756    4.0610    2.0203 H       1  LIG1        0.1071
     26 C           8.3646    0.0204    0.5944 C.ar    1  LIG1        0.1252
     27 C           9.7530    0.0271    0.5731 C.ar    1  LIG1       -0.0107
     28 C           7.6528    1.0971    0.0530 C.ar    1  LIG1        0.0258
     29 C          10.4582    1.0900    0.0103 C.ar    1  LIG1        0.0023
     30 H          10.3081   -0.8046    0.9918 H       1  LIG1        0.0661
     31 C           8.3622    2.1454   -0.5270 C.ar    1  LIG1       -0.0367
     32 C           9.7564    2.1563   -0.5606 C.ar    1  LIG1        0.0134
     33 H           7.7995    2.9619   -0.9642 H       1  LIG1        0.0636
     34 O           7.6539   -1.0116    1.1287 O.3     1  LIG1       -0.5061
     35 H           8.2477   -1.6441    1.5469 H       1  LIG1        0.2922
     36 S          10.6608    3.4820   -1.3464 S.3     1  LIG1       -0.1420
     37 H           9.5807    4.0672   -1.8709 H       1  LIG1        0.1071
     38 C          12.6766    0.0502   -0.5779 C.ar    1  LIG1        0.1246
     39 C          14.0687    0.0672   -0.5645 C.ar    1  LIG1       -0.0185
     40 C          11.9517    1.0815    0.0355 C.ar    1  LIG1        0.0257
     41 C          14.7496    1.1147    0.0473 C.ar    1  LIG1       -0.0451
     42 H          14.6208   -0.7332   -1.0438 H       1  LIG1        0.0654
     43 C          12.6501    2.1015    0.6772 C.ar    1  LIG1       -0.0373
     44 C          14.0437    2.1379    0.6723 C.ar    1  LIG1        0.0055
     45 H          12.0934    2.8787    1.1874 H       1  LIG1        0.0636
     46 H          15.8314    1.1376    0.0382 H       1  LIG1        0.0630
     47 O          11.9734   -0.9524   -1.1682 O.3     1  LIG1       -0.5062
     48 H          12.5683   -1.5542   -1.6276 H       1  LIG1        0.2922
     49 S          14.9279    3.4526    1.5066 S.3     1  LIG1       -0.1426
     50 H          14.5394    4.4344    0.6824 H       1  LIG1        0.1071
@<TRIPOS>BOND
     1    13    12    1
     2    37    36    1
     3    48    47    1
     4    23    22    1
     5    36    32    1
     6    12     7    1
     7    47    38    1
     8    22    14    1
     9    42    39    1
    10    33    31    1
    11    18    15    1
    12     8     6    1
    13    38    39   ar
    14    38    40   ar
    15     7     6   ar
    16     7     4   ar
    17    39    41   ar
    18    32    31   ar
    19    32    29   ar
    20    14    15   ar
    21    14    16   ar
    22     6     3   ar
    23    31    28   ar
    24    15    17   ar
    25     4    16    1
    26     4     2   ar
    27    29    40    1
    28    29    27   ar
    29    16    19   ar
    30     3     9    1
    31     3     1   ar
    32    40    43   ar
    33    46    41    1
    34    41    44   ar
    35    28    17    1
    36    28    26   ar
    37    17    20   ar
    38     2     1   ar
    39     2     5    1
    40     1    10    1
    41    27    26   ar
    42    27    30    1
    43    26    34    1
    44    19    20   ar
    45    19    21    1
    46    44    43   ar
    47    44    49    1
    48    43    45    1
    49    20    24    1
    50    50    49    1
    51    10    11    1
    52    34    35    1
    53    24    25    1
