@<TRIPOS>MOLECULE
mol_data/opt/m06hf/geoms/mol2/4fg4fg-4fg-4fg-.out
 50 53 0 0 0
SMALL
GASTEIGER

@<TRIPOS>ATOM
      1 C          -0.2471    0.1372   -0.5472 C.ar    1  LIG1        0.1175
      2 C           1.1406    0.1191   -0.5294 C.ar    1  LIG1       -0.0113
      3 C          -0.9329    1.2338   -0.0279 C.ar    1  LIG1       -0.0191
      4 C           1.8593    1.1868    0.0132 C.ar    1  LIG1        0.0022
      5 H           1.6861   -0.7289   -0.9269 H       1  LIG1        0.0660
      6 C          -0.2228    2.2927    0.5139 C.ar    1  LIG1       -0.0445
      7 C           1.1747    2.2798    0.5526 C.ar    1  LIG1        0.0128
      8 H          -0.7653    3.1390    0.9156 H       1  LIG1        0.0630
      9 H          -2.0141    1.2351   -0.0566 H       1  LIG1        0.0654
     10 O          -0.9904   -0.8806   -1.0644 O.3     1  LIG1       -0.5067
     11 H          -0.4189   -1.5850   -1.3867 H       1  LIG1        0.2921
     12 S           2.0967    3.6177    1.3022 S.3     1  LIG1       -0.1420
     13 H           1.0281    4.1946    1.8617 H       1  LIG1        0.1071
     14 C           4.0606    0.0930    0.5705 C.ar    1  LIG1        0.1252
     15 C           5.4487    0.0905    0.5423 C.ar    1  LIG1       -0.0107
     16 C           3.3523    1.1481   -0.0165 C.ar    1  LIG1        0.0258
     17 C           6.1598    1.1219   -0.0706 C.ar    1  LIG1        0.0023
     18 H           6.0008   -0.7252    0.9949 H       1  LIG1        0.0661
     19 C           4.0673    2.1624   -0.6475 C.ar    1  LIG1       -0.0367
     20 C           5.4617    2.1657   -0.6866 C.ar    1  LIG1        0.0134
     21 H           3.5076    2.9599   -1.1223 H       1  LIG1        0.0636
     22 O           3.3482   -0.9090    1.1569 O.3     1  LIG1       -0.5061
     23 H           3.9439   -1.5363    1.5797 H       1  LIG1        0.2922
     24 S           6.3651    3.4527   -1.5366 S.3     1  LIG1       -0.1420
     25 H           5.2787    4.0331   -2.0536 H       1  LIG1        0.1071
     26 C           8.3648    0.0115   -0.5674 C.ar    1  LIG1        0.1252
     27 C           9.7532    0.0180   -0.5447 C.ar    1  LIG1       -0.0107
     28 C           7.6528    1.0961   -0.0424 C.ar    1  LIG1        0.0258
     29 C          10.4583    1.0885    0.0037 C.ar    1  LIG1        0.0023
     30 H          10.3085   -0.8198   -0.9508 H       1  LIG1        0.0661
     31 C           8.3620    2.1523    0.5234 C.ar    1  LIG1       -0.0367
     32 C           9.7562    2.1632    0.5585 C.ar    1  LIG1        0.0134
     33 H           7.7992    2.9752    0.9484 H       1  LIG1        0.0636
     34 O           7.6543   -1.0278   -1.0878 O.3     1  LIG1       -0.5061
     35 H           8.2484   -1.6669   -1.4952 H       1  LIG1        0.2922
     36 S          10.6601    3.4997    1.3265 S.3     1  LIG1       -0.1420
     37 H           9.5795    4.0923    1.8416 H       1  LIG1        0.1071
     38 C          12.6757    0.0561    0.6082 C.ar    1  LIG1        0.1246
     39 C          14.0679    0.0726    0.5961 C.ar    1  LIG1       -0.0185
     40 C          11.9518    1.0791   -0.0199 C.ar    1  LIG1        0.0257
     41 C          14.7498    1.1115   -0.0291 C.ar    1  LIG1       -0.0451
     42 H          14.6193   -0.7214    1.0867 H       1  LIG1        0.0654
     43 C          12.6512    2.0902   -0.6747 C.ar    1  LIG1       -0.0373
     44 C          14.0448    2.1263   -0.6688 C.ar    1  LIG1        0.0055
     45 H          12.0952    2.8604   -1.1961 H       1  LIG1        0.0636
     46 H          15.8315    1.1343   -0.0191 H       1  LIG1        0.0630
     47 O          11.9717   -0.9383    1.2113 O.3     1  LIG1       -0.5062
     48 H          12.5660   -1.5337    1.6798 H       1  LIG1        0.2922
     49 S          14.9301    3.4291   -1.5202 S.3     1  LIG1       -0.1426
     50 H          14.5407    4.4224   -0.7102 H       1  LIG1        0.1071
@<TRIPOS>BOND
     1    25    24    1
     2    24    20    1
     3    49    50    1
     4    49    44    1
     5    35    34    1
     6    11    10    1
     7    45    43    1
     8    21    19    1
     9    34    26    1
    10    10     1    1
    11    30    27    1
    12     5     2    1
    13    20    19   ar
    14    20    17   ar
    15    43    44   ar
    16    43    40   ar
    17    44    41   ar
    18    19    16   ar
    19    26    27   ar
    20    26    28   ar
    21     1     2   ar
    22     1     3   ar
    23    27    29   ar
    24     2     4   ar
    25    17    28    1
    26    17    15   ar
    27     9     3    1
    28    28    31   ar
    29    41    46    1
    30    41    39   ar
    31     3     6   ar
    32    40    29    1
    33    40    38   ar
    34    16     4    1
    35    16    14   ar
    36    29    32   ar
    37     4     7   ar
    38     6     7   ar
    39     6     8    1
    40    31    32   ar
    41    31    33    1
    42    15    14   ar
    43    15    18    1
    44     7    12    1
    45    32    36    1
    46    14    22    1
    47    39    38   ar
    48    39    42    1
    49    38    47    1
    50    22    23    1
    51    47    48    1
    52    12    13    1
    53    36    37    1
