@<TRIPOS>MOLECULE
mol_data/opt/m06hf/geoms/mol2/4fg4fg4fg-4fg-.out
 50 53 0 0 0
SMALL
GASTEIGER

@<TRIPOS>ATOM
      1 C          -0.2492    0.1511    0.5549 C.ar    1  LIG1        0.1175
      2 C           1.1386    0.1325    0.5428 C.ar    1  LIG1       -0.0113
      3 C          -0.9329    1.2345    0.0060 C.ar    1  LIG1       -0.0191
      4 C           1.8594    1.1864   -0.0233 C.ar    1  LIG1        0.0022
      5 H           1.6824   -0.7055    0.9632 H       1  LIG1        0.0660
      6 C          -0.2206    2.2797   -0.5591 C.ar    1  LIG1       -0.0445
      7 C           1.1770    2.2658   -0.5921 C.ar    1  LIG1        0.0128
      8 H          -0.7615    3.1158   -0.9836 H       1  LIG1        0.0630
      9 H          -2.0142    1.2365    0.0306 H       1  LIG1        0.0654
     10 O          -0.9946   -0.8536    1.0943 O.3     1  LIG1       -0.5067
     11 H          -0.4244   -1.5499    1.4360 H       1  LIG1        0.2921
     12 S           2.1020    3.5847   -1.3710 S.3     1  LIG1       -0.1420
     13 H           1.0356    4.1477   -1.9486 H       1  LIG1        0.1071
     14 C           4.0627    0.0794   -0.5458 C.ar    1  LIG1        0.1252
     15 C           5.4506    0.0777   -0.5125 C.ar    1  LIG1       -0.0107
     16 C           3.3523    1.1484    0.0129 C.ar    1  LIG1        0.0258
     17 C           6.1595    1.1236    0.0778 C.ar    1  LIG1        0.0023
     18 H           6.0043   -0.7487   -0.9433 H       1  LIG1        0.0661
     19 C           4.0650    2.1777    0.6218 C.ar    1  LIG1       -0.0367
     20 C           5.4593    2.1820    0.6659 C.ar    1  LIG1        0.0134
     21 H           3.5036    2.9864    1.0752 H       1  LIG1        0.0636
     22 O           3.3523   -0.9363   -1.1104 O.3     1  LIG1       -0.5061
     23 H           3.9495   -1.5733   -1.5165 H       1  LIG1        0.2922
     24 S           6.3598    3.4892    1.4876 S.3     1  LIG1       -0.1420
     25 H           5.2716    4.0821    1.9864 H       1  LIG1        0.1071
     26 C           8.3626    0.0259    0.6099 C.ar    1  LIG1        0.1252
     27 C           9.7511    0.0319    0.5922 C.ar    1  LIG1       -0.0107
     28 C           7.6526    1.0972    0.0558 C.ar    1  LIG1        0.0258
     29 C          10.4582    1.0886    0.0202 C.ar    1  LIG1        0.0023
     30 H          10.3048   -0.7957    1.0208 H       1  LIG1        0.0661
     31 C           8.3639    2.1392   -0.5333 C.ar    1  LIG1       -0.0367
     32 C           9.7583    2.1493   -0.5635 C.ar    1  LIG1        0.0134
     33 H           7.8027    2.9513   -0.9804 H       1  LIG1        0.0636
     34 O           7.6501   -1.0003    1.1530 O.3     1  LIG1       -0.5061
     35 H           8.2426   -1.6287    1.5791 H       1  LIG1        0.2922
     36 S          10.6652    3.4664   -1.3607 S.3     1  LIG1       -0.1420
     37 H           9.5867    4.0463   -1.8942 H       1  LIG1        0.1071
     38 C          12.6776    0.0418   -0.5514 C.ar    1  LIG1        0.1246
     39 C          14.0697    0.0585   -0.5346 C.ar    1  LIG1       -0.0185
     40 C          11.9516    1.0798    0.0493 C.ar    1  LIG1        0.0257
     41 C          14.7495    1.1121    0.0678 C.ar    1  LIG1       -0.0451
     42 H          14.6227   -0.7471   -1.0039 H       1  LIG1        0.0654
     43 C          12.6488    2.1063    0.6820 C.ar    1  LIG1       -0.0373
     44 C          14.0424    2.1421    0.6802 C.ar    1  LIG1        0.0055
     45 H          12.0910    2.8889    1.1827 H       1  LIG1        0.0636
     46 H          15.8313    1.1345    0.0612 H       1  LIG1        0.0630
     47 O          11.9755   -0.9667   -1.1329 O.3     1  LIG1       -0.5062
     48 H          12.5713   -1.5734   -1.5846 H       1  LIG1        0.2922
     49 S          14.9249    3.4653    1.5028 S.3     1  LIG1       -0.1426
     50 H          14.5387    4.4384    0.6672 H       1  LIG1        0.1071
@<TRIPOS>BOND
     1    13    12    1
     2    37    36    1
     3    48    47    1
     4    23    22    1
     5    12     7    1
     6    36    32    1
     7    47    38    1
     8    22    14    1
     9    42    39    1
    10     8     6    1
    11    33    31    1
    12    18    15    1
    13     7     6   ar
    14     7     4   ar
    15    32    31   ar
    16    32    29   ar
    17     6     3   ar
    18    38    39   ar
    19    38    40   ar
    20    14    15   ar
    21    14    16   ar
    22    39    41   ar
    23    31    28   ar
    24    15    17   ar
    25     4    16    1
    26     4     2   ar
    27     3     9    1
    28     3     1   ar
    29    16    19   ar
    30    29    40    1
    31    29    27   ar
    32    40    43   ar
    33    28    17    1
    34    28    26   ar
    35    46    41    1
    36    41    44   ar
    37    17    20   ar
    38     2     1   ar
    39     2     5    1
    40     1    10    1
    41    27    26   ar
    42    27    30    1
    43    26    34    1
    44    19    20   ar
    45    19    21    1
    46    20    24    1
    47    50    49    1
    48    44    43   ar
    49    44    49    1
    50    43    45    1
    51    10    11    1
    52    34    35    1
    53    24    25    1
