@<TRIPOS>MOLECULE
mol_data/opt/m06hf/geoms/mol2/4fg4fg-4fg-.out
 38 40 0 0 0
SMALL
GASTEIGER

@<TRIPOS>ATOM
      1 C          -0.1360    0.0510   -0.4316 C.ar    1  LIG1        0.1175
      2 C           1.2517    0.0456   -0.3930 C.ar    1  LIG1       -0.0113
      3 C          -0.8351    1.2015   -0.0697 C.ar    1  LIG1       -0.0191
      4 C           1.9548    1.1813    0.0128 C.ar    1  LIG1        0.0022
      5 H           1.8086   -0.8429   -0.6684 H       1  LIG1        0.0660
      6 C          -0.1392    2.3291    0.3360 C.ar    1  LIG1       -0.0445
      7 C           1.2575    2.3315    0.3927 C.ar    1  LIG1        0.0128
      8 H          -0.6928    3.2159    0.6172 H       1  LIG1        0.0630
      9 H          -1.9157    1.1906   -0.1112 H       1  LIG1        0.0654
     10 O          -0.8651   -1.0331   -0.8186 O.3     1  LIG1       -0.5067
     11 H          -0.2832   -1.7713   -1.0260 H       1  LIG1        0.2921
     12 S           2.1746    3.7564    0.9632 S.3     1  LIG1       -0.1420
     13 H           1.1032    4.4209    1.4085 H       1  LIG1        0.1071
     14 C           4.1447    0.2365    0.8172 C.ar    1  LIG1        0.1252
     15 C           5.5340    0.2317    0.8145 C.ar    1  LIG1       -0.0107
     16 C           3.4489    1.1497    0.0170 C.ar    1  LIG1        0.0258
     17 C           6.2513    1.1261    0.0225 C.ar    1  LIG1        0.0023
     18 H           6.0794   -0.4740    1.4312 H       1  LIG1        0.0661
     19 C           4.1719    2.0278   -0.7861 C.ar    1  LIG1       -0.0367
     20 C           5.5666    2.0294   -0.7941 C.ar    1  LIG1        0.0134
     21 H           3.6195    2.7140   -1.4175 H       1  LIG1        0.0636
     22 O           3.4177   -0.6286    1.5770 O.3     1  LIG1       -0.5061
     23 H           3.9998   -1.1422    2.1465 H       1  LIG1        0.2922
     24 S           6.5078    3.1250   -1.8438 S.3     1  LIG1       -0.1420
     25 H           5.4385    3.6940   -2.4096 H       1  LIG1        0.1071
     26 C           8.4609    0.0162   -0.4323 C.ar    1  LIG1        0.1246
     27 C           9.8536    0.0144   -0.4019 C.ar    1  LIG1       -0.0185
     28 C           7.7454    1.1137    0.0626 C.ar    1  LIG1        0.0257
     29 C          10.5403    1.1087    0.1134 C.ar    1  LIG1       -0.0451
     30 H          10.4002   -0.8393   -0.7853 H       1  LIG1        0.0654
     31 C           8.4484    2.1922    0.5946 C.ar    1  LIG1       -0.0373
     32 C           9.8424    2.2045    0.6124 C.ar    1  LIG1        0.0055
     33 H           7.8952    3.0319    0.9976 H       1  LIG1        0.0636
     34 H          11.6223    1.1116    0.1295 H       1  LIG1        0.0630
     35 O           7.7462   -1.0296   -0.9227 O.3     1  LIG1       -0.5062
     36 H           8.3311   -1.6770   -1.3299 H       1  LIG1        0.2922
     37 S          10.7326    3.5856    1.3243 S.3     1  LIG1       -0.1426
     38 H          10.5404    4.4298    0.3035 H       1  LIG1        0.1071
@<TRIPOS>BOND
     1    25    24    1
     2    24    20    1
     3    21    19    1
     4    36    35    1
     5    11    10    1
     6    35    26    1
     7    10     1    1
     8    20    19   ar
     9    20    17   ar
    10    19    16   ar
    11    30    27    1
    12     5     2    1
    13    26    27   ar
    14    26    28   ar
    15     1     2   ar
    16     1     3   ar
    17    27    29   ar
    18     2     4   ar
    19     9     3    1
    20     3     6   ar
    21     4    16    1
    22     4     7   ar
    23    16    14   ar
    24    17    28    1
    25    17    15   ar
    26    28    31   ar
    27    29    34    1
    28    29    32   ar
    29    38    37    1
    30     6     7   ar
    31     6     8    1
    32     7    12    1
    33    31    32   ar
    34    31    33    1
    35    32    37    1
    36    15    14   ar
    37    15    18    1
    38    14    22    1
    39    12    13    1
    40    22    23    1
