@<TRIPOS>MOLECULE
mol_data/opt/m06hf/geoms/mol2/4fg4fg4fg.out
 38 40 0 0 0
SMALL
GASTEIGER

@<TRIPOS>ATOM
      1 C          -0.1172    0.4922    1.1194 C.ar    1  LIG1        0.1175
      2 C           1.2701    0.4747    1.0670 C.ar    1  LIG1       -0.0113
      3 C          -0.8378    1.1993    0.1584 C.ar    1  LIG1       -0.0191
      4 C           1.9508    1.1562    0.0562 C.ar    1  LIG1        0.0022
      5 H           1.8436   -0.0765    1.8038 H       1  LIG1        0.0660
      6 C          -0.1646    1.8719   -0.8488 C.ar    1  LIG1       -0.0445
      7 C           1.2314    1.8524   -0.9191 C.ar    1  LIG1        0.0128
      8 H          -0.7352    2.4152   -1.5914 H       1  LIG1        0.0630
      9 H          -1.9175    1.2061    0.2172 H       1  LIG1        0.0654
     10 O          -0.8264   -0.1583    2.0837 O.3     1  LIG1       -0.5067
     11 H          -0.2320   -0.6034    2.6966 H       1  LIG1        0.2921
     12 S           2.1172    2.6732   -2.2380 S.3     1  LIG1       -0.1420
     13 H           1.0269    2.9524   -2.9579 H       1  LIG1        0.1071
     14 C           4.1503   -0.0634   -0.0589 C.ar    1  LIG1        0.1252
     15 C           5.5389   -0.0542   -0.0741 C.ar    1  LIG1       -0.0107
     16 C           3.4449    1.1412    0.0437 C.ar    1  LIG1        0.0258
     17 C           6.2505    1.1432   -0.0023 C.ar    1  LIG1        0.0023
     18 H           6.0893   -0.9846   -0.1568 H       1  LIG1        0.0661
     19 C           4.1611    2.3319    0.1320 C.ar    1  LIG1       -0.0367
     20 C           5.5554    2.3530    0.0878 C.ar    1  LIG1        0.0134
     21 H           3.6053    3.2569    0.2320 H       1  LIG1        0.0636
     22 O           3.4347   -1.2197   -0.1275 O.3     1  LIG1       -0.5061
     23 H           4.0173   -1.9582   -0.3325 H       1  LIG1        0.2922
     24 S           6.4667    3.8880    0.1236 S.3     1  LIG1       -0.1420
     25 H           5.4192    4.6596   -0.1855 H       1  LIG1        0.1071
     26 C           8.4519    0.5538   -1.0721 C.ar    1  LIG1        0.1246
     27 C           9.8450    0.5399   -1.0644 C.ar    1  LIG1       -0.0185
     28 C           7.7438    1.1105    0.0013 C.ar    1  LIG1        0.0257
     29 C          10.5428    1.0850    0.0079 C.ar    1  LIG1       -0.0451
     30 H          10.3832    0.1066   -1.8996 H       1  LIG1        0.0654
     31 C           8.4599    1.6311    1.0774 C.ar    1  LIG1       -0.0373
     32 C           9.8538    1.6384    1.0827 C.ar    1  LIG1        0.0055
     33 H           7.9196    2.0359    1.9251 H       1  LIG1        0.0636
     34 H          11.6248    1.0798    0.0107 H       1  LIG1        0.0630
     35 O           7.7328    0.0288   -2.0981 O.3     1  LIG1       -0.5062
     36 H           8.3140   -0.2304   -2.8205 H       1  LIG1        0.2922
     37 S          10.7515    2.3060    2.4822 S.3     1  LIG1       -0.1426
     38 H          10.6567    3.5923    2.1179 H       1  LIG1        0.1071
@<TRIPOS>BOND
     1    13    12    1
     2    36    35    1
     3    12     7    1
     4    35    26    1
     5    30    27    1
     6     8     6    1
     7    26    27   ar
     8    26    28   ar
     9    27    29   ar
    10     7     6   ar
    11     7     4   ar
    12     6     3   ar
    13    23    22    1
    14    25    24    1
    15    18    15    1
    16    22    14    1
    17    15    14   ar
    18    15    17   ar
    19    14    16   ar
    20    17    28    1
    21    17    20   ar
    22    28    31   ar
    23    29    34    1
    24    29    32   ar
    25    16     4    1
    26    16    19   ar
    27     4     2   ar
    28    20    24    1
    29    20    19   ar
    30    19    21    1
    31     3     9    1
    32     3     1   ar
    33     2     1   ar
    34     2     5    1
    35    31    32   ar
    36    31    33    1
    37    32    37    1
    38     1    10    1
    39    10    11    1
    40    38    37    1
