@<TRIPOS>MOLECULE
mol_data/opt/m06hf/geoms/mol2/4fg4fg-4fg-4fg.out
 50 53 0 0 0
SMALL
GASTEIGER

@<TRIPOS>ATOM
      1 C          -0.2588    0.0246   -0.0009 C.ar    1  LIG1        0.1175
      2 C           1.1290    0.0036    0.0133 C.ar    1  LIG1       -0.0113
      3 C          -0.9336    1.2442    0.0135 C.ar    1  LIG1       -0.0191
      4 C           1.8563    1.1955    0.0474 C.ar    1  LIG1        0.0022
      5 H           1.6682   -0.9367    0.0071 H       1  LIG1        0.0660
      6 C          -0.2144    2.4280    0.0518 C.ar    1  LIG1       -0.0445
      7 C           1.1833    2.4202    0.0788 C.ar    1  LIG1        0.0128
      8 H          -0.7496    3.3689    0.0636 H       1  LIG1        0.0630
      9 H          -2.0149    1.2418   -0.0030 H       1  LIG1        0.0654
     10 O          -1.0134   -1.1090   -0.0354 O.3     1  LIG1       -0.5067
     11 H          -0.4488   -1.8885   -0.0594 H       1  LIG1        0.2921
     12 S           2.1298    3.9337    0.1716 S.3     1  LIG1       -0.1420
     13 H           1.0804    4.7148    0.4472 H       1  LIG1        0.1071
     14 C           4.0619    0.4721    1.0274 C.ar    1  LIG1        0.1252
     15 C           5.4499    0.4513    0.9932 C.ar    1  LIG1       -0.0107
     16 C           3.3491    1.1383    0.0237 C.ar    1  LIG1        0.0258
     17 C           6.1536    1.0784   -0.0351 C.ar    1  LIG1        0.0023
     18 H           6.0075   -0.0612    1.7689 H       1  LIG1        0.0661
     19 C           4.0563    1.7429   -1.0118 C.ar    1  LIG1       -0.0367
     20 C           5.4502    1.7209   -1.0590 C.ar    1  LIG1        0.0134
     21 H           3.4915    2.2355   -1.7949 H       1  LIG1        0.0636
     22 O           3.3508   -0.1379    2.0152 O.3     1  LIG1       -0.5061
     23 H           3.9462   -0.5158    2.6712 H       1  LIG1        0.2922
     24 S           6.3509    2.4686   -2.4100 S.3     1  LIG1       -0.1420
     25 H           5.2637    2.7165   -3.1482 H       1  LIG1        0.1071
     26 C           8.3629   -0.1319   -0.0110 C.ar    1  LIG1        0.1252
     27 C           9.7516   -0.1104    0.0054 C.ar    1  LIG1       -0.0107
     28 C           7.6471    1.0708   -0.0113 C.ar    1  LIG1        0.0258
     29 C          10.4505    1.0962    0.0141 C.ar    1  LIG1        0.0023
     30 H          10.3115   -1.0387   -0.0013 H       1  LIG1        0.0661
     31 C           8.3506    2.2721    0.0124 C.ar    1  LIG1       -0.0367
     32 C           9.7451    2.3029    0.0090 C.ar    1  LIG1        0.0134
     33 H           7.7836    3.1955    0.0308 H       1  LIG1        0.0636
     34 O           7.6560   -1.2963   -0.0145 O.3     1  LIG1       -0.5061
     35 H           8.2505   -2.0457   -0.1236 H       1  LIG1        0.2922
     36 S          10.6476    3.8429   -0.0275 S.3     1  LIG1       -0.1420
     37 H           9.5713    4.6024   -0.2502 H       1  LIG1        0.1071
     38 C          12.6760    0.5147   -1.0044 C.ar    1  LIG1        0.1246
     39 C          14.0687    0.5215   -0.9756 C.ar    1  LIG1       -0.0185
     40 C          11.9444    1.0819    0.0476 C.ar    1  LIG1        0.0257
     41 C          14.7411    1.0957    0.0977 C.ar    1  LIG1       -0.0451
     42 H          14.6257    0.0829   -1.7954 H       1  LIG1        0.0654
     43 C          12.6346    1.6314    1.1255 C.ar    1  LIG1       -0.0373
     44 C          14.0280    1.6559    1.1532 C.ar    1  LIG1        0.0055
     45 H          12.0742    2.0458    1.9550 H       1  LIG1        0.0636
     46 H          15.8229    1.1080    0.1172 H       1  LIG1        0.0630
     47 O          11.9767   -0.0394   -2.0277 O.3     1  LIG1       -0.5062
     48 H          12.5706   -0.3332   -2.7264 H       1  LIG1        0.2922
     49 S          14.8965    2.3554    2.5568 S.3     1  LIG1       -0.1426
     50 H          14.7490    3.6376    2.2018 H       1  LIG1        0.1071
@<TRIPOS>BOND
     1    25    24    1
     2    48    47    1
     3    24    20    1
     4    47    38    1
     5    42    39    1
     6    21    19    1
     7    20    19   ar
     8    20    17   ar
     9    19    16   ar
    10    38    39   ar
    11    38    40   ar
    12    39    41   ar
    13    37    36    1
    14    35    34    1
    15    11    10    1
    16    10     1    1
    17    17    28    1
    18    17    15   ar
    19    36    32    1
    20    34    26    1
    21    28    26   ar
    22    28    31   ar
    23    26    27   ar
    24     9     3    1
    25    30    27    1
    26     1     2   ar
    27     1     3   ar
    28    27    29   ar
    29     5     2    1
    30    32    31   ar
    31    32    29   ar
    32    31    33    1
    33     2     4   ar
    34     3     6   ar
    35    29    40    1
    36    16     4    1
    37    16    14   ar
    38     4     7   ar
    39    40    43   ar
    40     6     8    1
    41     6     7   ar
    42     7    12    1
    43    41    46    1
    44    41    44   ar
    45    12    13    1
    46    15    14   ar
    47    15    18    1
    48    14    22    1
    49    43    44   ar
    50    43    45    1
    51    44    49    1
    52    22    23    1
    53    50    49    1
