@<TRIPOS>MOLECULE
mol_data/opt/m06hf/geoms/mol2/4fh4ie-13lh-6df-4ha13ae-12he6fd-.out
 99 106 0 0 0
SMALL
GASTEIGER

@<TRIPOS>ATOM
      1 C          -0.6508    0.0316    0.4860 C.ar    1  LIG1        0.1176
      2 C           0.7198    0.2020    0.6199 C.ar    1  LIG1       -0.0107
      3 C          -1.2426    0.2128   -0.7628 C.ar    1  LIG1       -0.0184
      4 C           1.5084    0.5524   -0.4789 C.ar    1  LIG1        0.0065
      5 H           1.1979    0.0768    1.5861 H       1  LIG1        0.0661
      6 C          -0.4662    0.5641   -1.8546 C.ar    1  LIG1       -0.0370
      7 C           0.9194    0.7404   -1.7363 C.ar    1  LIG1        0.0326
      8 H          -0.9361    0.7135   -2.8191 H       1  LIG1        0.0637
      9 H          -2.3116    0.0777   -0.8554 H       1  LIG1        0.0655
     10 O          -1.4666   -0.3039    1.5319 O.3     1  LIG1       -0.5067
     11 H          -0.9495   -0.4165    2.3356 H       1  LIG1        0.2921
     12 N           1.6834    1.1436   -2.8360 N.pl3   1  LIG1       -0.3575
     13 H           2.6702    0.9329   -2.7639 H       1  LIG1        0.1423
     14 H           1.2970    0.8899   -3.7339 H       1  LIG1        0.1423
     15 C           3.8266   -0.3805   -0.0879 C.ar    1  LIG1       -0.0420
     16 C           5.1935   -0.1666    0.0558 C.ar    1  LIG1       -0.0478
     17 C           2.9865    0.7228   -0.3153 C.ar    1  LIG1       -0.0119
     18 C           5.7661    1.1104   -0.0169 C.ar    1  LIG1        0.0176
     19 H           5.8514   -1.0127    0.2138 H       1  LIG1        0.0627
     20 C           3.5437    1.9932   -0.4212 C.ar    1  LIG1       -0.0377
     21 C           4.9185    2.2032   -0.2736 C.ar    1  LIG1        0.0345
     22 H           2.9025    2.8411   -0.6268 H       1  LIG1        0.0636
     23 C           3.2655   -1.7900   -0.0268 C.3     1  LIG1       -0.0391
     24 H           4.0698   -2.5163   -0.1382 H       1  LIG1        0.0278
     25 H           2.5303   -1.9376   -0.8187 H       1  LIG1        0.0278
     26 H           2.7655   -1.9659    0.9274 H       1  LIG1        0.0278
     27 C           5.4004    3.5578   -0.4164 C.1     1  LIG1       -0.0690
     28 C           5.7599    4.6954   -0.5752 C.1     1  LIG1       -0.1139
     29 H           6.0875    5.6960   -0.7420 H       1  LIG1        0.1232
     30 C           7.2233    1.2234    0.1753 C.ar    1  LIG1        0.0922
     31 C           8.0975    0.2963    0.7342 C.ar    1  LIG1        0.1664
     32 C           9.4009    0.8253    0.6898 C.ar    1  LIG1        0.0932
     33 C           9.3042    2.0820    0.1025 C.ar    1  LIG1        0.0744
     34 N           7.9820    2.2836   -0.2063 N.ar    1  LIG1       -0.3496
     35 H           7.5952    3.1116   -0.6441 H       1  LIG1        0.1661
     36 O           7.8118   -0.9284    1.2789 O.3     1  LIG1       -0.4911
     37 C           7.3998   -0.8377    2.6460 C.3     1  LIG1        0.0790
     38 H           7.2541   -1.8583    2.9933 H       1  LIG1        0.0660
     39 H           8.1747   -0.3411    3.2333 H       1  LIG1        0.0660
     40 H           6.4656   -0.2774    2.7161 H       1  LIG1        0.0660
     41 N          10.5363    0.1566    1.1897 N.pl3   1  LIG1       -0.3535
     42 H          10.2774   -0.7964    1.4287 H       1  LIG1        0.1425
     43 H          11.2953    0.1359    0.5149 H       1  LIG1        0.1425
     44 C          10.3423    4.1287   -1.0085 C.ar    1  LIG1        0.1501
     45 C          10.3755    3.0589   -0.0946 C.ar    1  LIG1        0.0396
     46 C          11.5377    2.9638    0.6744 C.ar    1  LIG1       -0.0061
     47 C          12.5827    3.8685    0.5142 C.ar    1  LIG1        0.1435
     48 C          12.4395    4.9012   -0.4475 C.ar    1  LIG1        0.1155
     49 N          11.3257    5.0041   -1.1623 N.ar    1  LIG1       -0.2320
     50 H          11.6314    2.2004    1.4370 H       1  LIG1        0.0662
     51 N           8.2707    4.5685   -2.5236 N.1     1  LIG1       -0.1893
     52 C           9.1873    4.3670   -1.8614 C.1     1  LIG1        0.1198
     53 O          13.6481    3.7480    1.3143 O.3     1  LIG1       -0.5046
     54 H          14.4687    4.0380    0.8217 H       1  LIG1        0.2922
     55 C          14.8142    5.8338   -0.6527 C.ar    1  LIG1        0.0346
     56 C          15.6662    6.9273   -0.7796 C.ar    1  LIG1       -0.0313
     57 C          13.4251    6.0113   -0.6388 C.ar    1  LIG1        0.0246
     58 C          15.1507    8.2114   -0.9373 C.ar    1  LIG1        0.0001
     59 H          16.7399    6.7820   -0.7507 H       1  LIG1        0.0643
     60 C          12.9218    7.3009   -0.8337 C.ar    1  LIG1       -0.0501
     61 C          13.7646    8.3911   -0.9826 C.ar    1  LIG1       -0.0519
     62 H          11.8476    7.4248   -0.8708 H       1  LIG1        0.0625
     63 N          15.3471    4.5186   -0.4985 N.pl3   1  LIG1       -0.3574
     64 H          15.0071    3.8886   -1.2235 H       1  LIG1        0.1423
     65 H          16.3617    4.5070   -0.4902 H       1  LIG1        0.1423
     66 H          13.3483    9.3749   -1.1579 H       1  LIG1        0.0624
     67 C          16.0712    9.3545   -1.0802 C.ar    1  LIG1        0.0482
     68 C          17.2823    9.4560   -1.7232 C.ar    1  LIG1       -0.0203
     69 C          17.7301   10.8015   -1.5763 C.ar    1  LIG1        0.0536
     70 C          16.7733   11.4716   -0.8270 C.ar    1  LIG1        0.1000
     71 N          15.7795   10.5844   -0.5494 N.ar    1  LIG1       -0.3507
     72 H          14.9985   10.7799    0.0599 H       1  LIG1        0.1660
     73 H          17.7751    8.6822   -2.2863 H       1  LIG1        0.0651
     74 C          18.9041   11.3888   -2.1476 C.1     1  LIG1       -0.0674
     75 C          19.8892   11.8819   -2.6349 C.1     1  LIG1       -0.1138
     76 H          20.7475   12.3090   -3.1002 H       1  LIG1        0.1232
     77 C          16.7270   12.8358   -0.3405 C.ar    1  LIG1        0.1747
     78 C          17.6732   13.7208    0.0842 C.ar    1  LIG1        0.0887
     79 C          16.9435   14.9073    0.4920 C.ar    1  LIG1        0.0918
     80 C          15.6173   14.6411    0.3093 C.ar    1  LIG1        0.1581
     81 O          15.4770   13.3965   -0.1953 O.2     1  LIG1       -0.4500
     82 N          19.0312   13.5691    0.2148 N.pl3   1  LIG1       -0.3540
     83 H          19.4727   12.9372   -0.4412 H       1  LIG1        0.1425
     84 H          19.5316   14.4335    0.3677 H       1  LIG1        0.1425
     85 C          17.5592   16.1016    0.9781 C.1     1  LIG1       -0.0640
     86 C          18.1169   17.0862    1.3850 C.1     1  LIG1       -0.1137
     87 H          18.6006   17.9650    1.7463 H       1  LIG1        0.1232
     88 C          13.1907   15.1744   -0.1505 C.ar    1  LIG1        0.2233
     89 C          14.4044   15.4314    0.5404 C.ar    1  LIG1        0.0810
     90 C          14.4192   16.4842    1.4457 C.ar    1  LIG1       -0.0270
     91 C          13.2642   17.2420    1.6246 C.ar    1  LIG1        0.0707
     92 C          12.1256   16.9053    0.8918 C.ar    1  LIG1        0.0488
     93 N          12.0978   15.8979    0.0334 N.ar    1  LIG1       -0.2196
     94 H          15.3174   16.7128    2.0038 H       1  LIG1        0.0640
     95 H          11.2112   17.4732    1.0111 H       1  LIG1        0.0844
     96 O          13.0631   14.1881   -1.0382 O.3     1  LIG1       -0.4919
     97 H          13.8797   13.6776   -1.1222 H       1  LIG1        0.2937
     98 N          13.2252   19.2305    3.2861 N.1     1  LIG1       -0.1908
     99 C          13.2395   18.3490    2.5513 C.1     1  LIG1        0.1007
@<TRIPOS>BOND
     1    14    12    1
     2    76    75    1
     3    12    13    1
     4    12     7    1
     5     8     6    1
     6    75    74    3
     7    51    52    3
     8    73    68    1
     9    74    69    1
    10    52    44    1
    11     6     7   ar
    12     6     3   ar
    13     7     4   ar
    14    68    69   ar
    15    68    67   ar
    16    69    70   ar
    17    64    63    1
    18    49    44   ar
    19    49    48   ar
    20    66    61    1
    21    97    96    1
    22    67    58    1
    23    67    71   ar
    24    96    88    1
    25    44    45   ar
    26    61    58   ar
    27    61    60   ar
    28    58    56   ar
    29    62    60    1
    30     9     3    1
    31    60    57   ar
    32    70    71   ar
    33    70    77    1
    34    25    23    1
    35    56    59    1
    36    56    55   ar
    37     3     1   ar
    38    29    28    1
    39    55    57   ar
    40    55    63    1
    41    35    34    1
    42    57    48    1
    43    22    20    1
    44    28    27    3
    45    71    72    1
    46    63    65    1
    47     4    17    1
    48     4     2   ar
    49    48    47   ar
    50    83    82    1
    51    20    17   ar
    52    20    21   ar
    53    27    21    1
    54    77    81   ar
    55    77    78   ar
    56    17    15   ar
    57    21    18   ar
    58    34    33   ar
    59    34    30   ar
    60    81    80   ar
    61    88    93   ar
    62    88    89   ar
    63    24    23    1
    64    45    33    1
    65    45    46   ar
    66    15    23    1
    67    15    16   ar
    68    23    26    1
    69    18    16   ar
    70    18    30    1
    71    93    92   ar
    72    16    19    1
    73    78    82    1
    74    78    79   ar
    75    33    32   ar
    76    30    31   ar
    77    82    84    1
    78    80    79   ar
    79    80    89    1
    80     1     2   ar
    81     1    10    1
    82    79    85    1
    83    47    46   ar
    84    47    53    1
    85    43    41    1
    86    89    90   ar
    87     2     5    1
    88    46    50    1
    89    32    31   ar
    90    32    41    1
    91    31    36    1
    92    54    53    1
    93    92    95    1
    94    92    91   ar
    95    85    86    3
    96    41    42    1
    97    36    37    1
    98    86    87    1
    99    90    91   ar
   100    90    94    1
   101    10    11    1
   102    91    99    1
   103    99    98    3
   104    37    40    1
   105    37    38    1
   106    37    39    1
