@<TRIPOS>MOLECULE
mol_data/opt/m06hf/geoms/mol2/4fi.out
 16 16 0 0 0
SMALL
GASTEIGER

@<TRIPOS>ATOM
      1 C           0.0723   -0.0060   -0.0064 C.ar    1  LIG1        0.1169
      2 C           1.4619   -0.0223    0.0362 C.ar    1  LIG1       -0.0199
      3 C          -0.6093    1.2106   -0.0412 C.ar    1  LIG1       -0.0199
      4 C           2.1653    1.1814    0.0434 C.ar    1  LIG1       -0.0554
      5 H           1.9951   -0.9658    0.0664 H       1  LIG1        0.0654
      6 C           0.1079    2.3978   -0.0335 C.ar    1  LIG1       -0.0554
      7 C           1.5062    2.4066    0.0076 C.ar    1  LIG1       -0.0502
      8 H          -0.4284    3.3394   -0.0584 H       1  LIG1        0.0621
      9 H           3.2479    1.1573    0.0787 H       1  LIG1        0.0621
     10 H          -1.6902    1.1979   -0.0708 H       1  LIG1        0.0654
     11 O          -0.6793   -1.1440   -0.0134 O.3     1  LIG1       -0.5068
     12 H          -0.1129   -1.9216    0.0143 H       1  LIG1        0.2921
     13 C           2.2713    3.7183   -0.0039 C.3     1  LIG1       -0.0397
     14 H           1.8365    4.4202    0.7087 H       1  LIG1        0.0278
     15 H           2.2372    4.1722   -0.9960 H       1  LIG1        0.0278
     16 H           3.3150    3.5558    0.2644 H       1  LIG1        0.0278
@<TRIPOS>BOND
     1    15    13    1
     2    10     3    1
     3     8     6    1
     4     3     6   ar
     5     3     1   ar
     6     6     7   ar
     7    11     1    1
     8    11    12    1
     9     1     2   ar
    10    13     7    1
    11    13    16    1
    12    13    14    1
    13     7     4   ar
    14     2     4   ar
    15     2     5    1
    16     4     9    1
