@<TRIPOS>MOLECULE
mol_data/opt/m06hf/geoms/mol2/4fi13da6ea-4eh.out
 50 53 0 0 0
SMALL
GASTEIGER

@<TRIPOS>ATOM
      1 C           0.0074   -0.0619   -0.9001 C.ar    1  LIG1        0.1175
      2 C           1.3750    0.0333   -0.6770 C.ar    1  LIG1       -0.0108
      3 C          -0.8396    0.9504   -0.4524 C.ar    1  LIG1       -0.0199
      4 C           1.8997    1.1288    0.0148 C.ar    1  LIG1        0.0059
      5 H           2.0425   -0.7399   -1.0401 H       1  LIG1        0.0661
      6 C          -0.3062    2.0301    0.2350 C.ar    1  LIG1       -0.0548
      7 C           1.0621    2.1470    0.4942 C.ar    1  LIG1       -0.0411
      8 H          -0.9742    2.8012    0.5998 H       1  LIG1        0.0622
      9 H          -1.9007    0.8608   -0.6391 H       1  LIG1        0.0654
     10 O          -0.5566   -1.1084   -1.5592 O.3     1  LIG1       -0.5067
     11 H           0.0992   -1.7899   -1.7422 H       1  LIG1        0.2921
     12 C           1.5725    3.3264    1.3077 C.3     1  LIG1       -0.0391
     13 H           0.7559    3.7337    1.9028 H       1  LIG1        0.0278
     14 H           1.9483    4.1321    0.6698 H       1  LIG1        0.0278
     15 H           2.3722    3.0181    1.9819 H       1  LIG1        0.0278
     16 C           3.3641    1.1607    0.2220 C.ar    1  LIG1        0.0649
     17 C           4.2535    0.1412    0.5424 C.ar    1  LIG1        0.0776
     18 C           5.5590    0.6940    0.5841 C.ar    1  LIG1       -0.0183
     19 C           5.4357    2.0366    0.2892 C.ar    1  LIG1        0.0508
     20 N           4.1046    2.2827    0.0777 N.ar    1  LIG1       -0.3530
     21 H           3.7414    3.1752   -0.2308 H       1  LIG1        0.1659
     22 N           3.6204   -2.3283    0.9554 N.1     1  LIG1       -0.1908
     23 C           3.8987   -1.2272    0.7831 C.1     1  LIG1        0.1013
     24 H           6.4648    0.1509    0.7922 H       1  LIG1        0.0652
     25 C           6.3380    4.3293   -0.3835 C.ar    1  LIG1        0.1229
     26 C           6.4854    3.0672    0.2152 C.ar    1  LIG1        0.0322
     27 C           7.7390    2.8012    0.7815 C.ar    1  LIG1       -0.0479
     28 C           8.7607    3.7262    0.6978 C.ar    1  LIG1       -0.0350
     29 C           8.5156    4.9421    0.0436 C.ar    1  LIG1        0.0736
     30 N           7.3201    5.2287   -0.4563 N.ar    1  LIG1       -0.2377
     31 H           7.8978    1.8693    1.3068 H       1  LIG1        0.0626
     32 C           5.0874    4.7705   -0.9834 C.1     1  LIG1       -0.0491
     33 C           4.0696    5.1681   -1.4867 C.1     1  LIG1       -0.1124
     34 H           3.1862    5.5369   -1.9565 H       1  LIG1        0.1232
     35 H           9.7257    3.5290    1.1398 H       1  LIG1        0.0639
     36 C          10.9163    5.7404   -0.2736 C.ar    1  LIG1        0.0340
     37 C          11.8076    6.8158   -0.3750 C.ar    1  LIG1       -0.0440
     38 C           9.5518    6.0138   -0.0772 C.ar    1  LIG1        0.0175
     39 C          11.3709    8.1253   -0.2900 C.ar    1  LIG1       -0.0399
     40 H          12.8563    6.6042   -0.5351 H       1  LIG1        0.0630
     41 C           9.1146    7.3318   -0.0073 C.ar    1  LIG1       -0.0307
     42 C          10.0080    8.4022   -0.1114 C.ar    1  LIG1        0.0252
     43 H           8.0554    7.5149    0.1238 H       1  LIG1        0.0643
     44 H          12.0801    8.9405   -0.3645 H       1  LIG1        0.0636
     45 C          11.4460    4.4066   -0.4353 C.1     1  LIG1       -0.0690
     46 C          11.9409    3.3200   -0.5843 C.1     1  LIG1       -0.1139
     47 H          12.3729    2.3569   -0.7289 H       1  LIG1        0.1232
     48 N           9.5597    9.7085    0.0097 N.pl3   1  LIG1       -0.3579
     49 H          10.1499   10.4204   -0.3932 H       1  LIG1        0.1423
     50 H           8.5769    9.8560   -0.1668 H       1  LIG1        0.1423
@<TRIPOS>BOND
     1    34    33    1
     2    11    10    1
     3    10     1    1
     4    33    32    3
     5     5     2    1
     6    32    25    1
     7     1     2   ar
     8     1     3   ar
     9    47    46    1
    10     2     4   ar
    11     9     3    1
    12    46    45    3
    13    40    37    1
    14    30    25   ar
    15    30    29   ar
    16     3     6   ar
    17    45    36    1
    18    49    48    1
    19    25    26   ar
    20    37    39   ar
    21    37    36   ar
    22    44    39    1
    23    39    42   ar
    24    36    38   ar
    25    21    20    1
    26    50    48    1
    27    42    41   ar
    28    42    48    1
    29    38    41   ar
    30    38    29    1
    31    41    43    1
    32     4    16    1
    33     4     7   ar
    34    29    28   ar
    35    20    16   ar
    36    20    19   ar
    37    26    19    1
    38    26    27   ar
    39    16    17   ar
    40     6     7   ar
    41     6     8    1
    42    19    18   ar
    43     7    12    1
    44    17    18   ar
    45    17    23    1
    46    18    24    1
    47    14    12    1
    48    28    27   ar
    49    28    35    1
    50    27    31    1
    51    23    22    3
    52    12    13    1
    53    12    15    1
