@<TRIPOS>MOLECULE
mol_data/opt/m06hf/geoms/mol2/4fi4fi4fi.out
 44 46 0 0 0
SMALL
GASTEIGER

@<TRIPOS>ATOM
      1 C           0.0399    0.5757   -1.4392 C.ar    1  LIG1        0.1175
      2 C           1.4156    0.5734   -1.2529 C.ar    1  LIG1       -0.0121
      3 C          -0.7816    1.2499   -0.5380 C.ar    1  LIG1       -0.0199
      4 C           1.9851    1.2438   -0.1671 C.ar    1  LIG1       -0.0080
      5 H           2.0624    0.0456   -1.9452 H       1  LIG1        0.0660
      6 C          -0.2087    1.8981    0.5455 C.ar    1  LIG1       -0.0548
      7 C           1.1738    1.9107    0.7591 C.ar    1  LIG1       -0.0424
      8 H          -0.8516    2.4059    1.2552 H       1  LIG1        0.0622
      9 H          -1.8512    1.2417   -0.6992 H       1  LIG1        0.0654
     10 O          -0.5593   -0.0616   -2.4866 O.3     1  LIG1       -0.5067
     11 H           0.1028   -0.5025   -3.0288 H       1  LIG1        0.2921
     12 C           1.7391    2.6140    1.9822 C.3     1  LIG1       -0.0391
     13 H           1.0036    2.5942    2.7868 H       1  LIG1        0.0278
     14 H           1.9751    3.6583    1.7647 H       1  LIG1        0.0278
     15 H           2.6502    2.1239    2.3243 H       1  LIG1        0.0278
     16 C           4.1961    0.0536    0.0717 C.ar    1  LIG1        0.1251
     17 C           5.5816    0.0806    0.1738 C.ar    1  LIG1       -0.0115
     18 C           3.4761    1.2487   -0.0420 C.ar    1  LIG1        0.0242
     19 C           6.2791    1.2892    0.1570 C.ar    1  LIG1       -0.0080
     20 H           6.1361   -0.8459    0.2737 H       1  LIG1        0.0660
     21 C           4.1904    2.4441   -0.0459 C.ar    1  LIG1       -0.0470
     22 C           5.5816    2.4996    0.0553 C.ar    1  LIG1       -0.0418
     23 H           3.6316    3.3690   -0.1370 H       1  LIG1        0.0628
     24 O           3.4974   -1.1174    0.0751 O.3     1  LIG1       -0.5061
     25 H           4.0954   -1.8565    0.2266 H       1  LIG1        0.2922
     26 C           6.2773    3.8514    0.0693 C.3     1  LIG1       -0.0391
     27 H           5.6037    4.6035    0.4803 H       1  LIG1        0.0278
     28 H           6.5568    4.1621   -0.9397 H       1  LIG1        0.0278
     29 H           7.1805    3.8149    0.6771 H       1  LIG1        0.0278
     30 C           8.4394    0.6647    1.2988 C.ar    1  LIG1        0.1246
     31 C           9.8314    0.6547    1.3409 C.ar    1  LIG1       -0.0193
     32 C           7.7735    1.2564    0.2188 C.ar    1  LIG1        0.0242
     33 C          10.5664    1.2248    0.3070 C.ar    1  LIG1       -0.0554
     34 H          10.3396    0.2015    2.1850 H       1  LIG1        0.0654
     35 C           8.5379    1.8104   -0.8076 C.ar    1  LIG1       -0.0476
     36 C           9.9325    1.8080   -0.7880 C.ar    1  LIG1       -0.0496
     37 H           8.0159    2.2495   -1.6510 H       1  LIG1        0.0627
     38 H          11.6489    1.2096    0.3566 H       1  LIG1        0.0621
     39 O           7.6857    0.1094    2.2905 O.3     1  LIG1       -0.5062
     40 H           8.2502   -0.1676    3.0196 H       1  LIG1        0.2922
     41 C          10.7293    2.3933   -1.9402 C.3     1  LIG1       -0.0397
     42 H          10.2054    3.2453   -2.3737 H       1  LIG1        0.0278
     43 H          10.8740    1.6455   -2.7223 H       1  LIG1        0.0278
     44 H          11.7088    2.7269   -1.5978 H       1  LIG1        0.0278
@<TRIPOS>BOND
     1    11    10    1
     2    43    41    1
     3    10     1    1
     4    42    41    1
     5     5     2    1
     6    41    44    1
     7    41    36    1
     8    37    35    1
     9     1     2   ar
    10     1     3   ar
    11     2     4   ar
    12    28    26    1
    13    35    36   ar
    14    35    32   ar
    15    36    33   ar
    16     9     3    1
    17     3     6   ar
    18     4    18    1
    19     4     7   ar
    20    23    21    1
    21    21    18   ar
    22    21    22   ar
    23    18    16   ar
    24    22    26    1
    25    22    19   ar
    26    26    27    1
    27    26    29    1
    28    16    24    1
    29    16    17   ar
    30    24    25    1
    31    19    17   ar
    32    19    32    1
    33    17    20    1
    34    32    30   ar
    35    33    38    1
    36    33    31   ar
    37     6     7   ar
    38     6     8    1
    39     7    12    1
    40    30    31   ar
    41    30    39    1
    42    31    34    1
    43    14    12    1
    44    12    15    1
    45    12    13    1
    46    39    40    1
