@<TRIPOS>MOLECULE
mol_data/opt/m06hf/geoms/mol2/4fi4fi4fi4fi-.out
 58 61 0 0 0
SMALL
GASTEIGER

@<TRIPOS>ATOM
      1 C          -0.0009    3.0241   -0.6318 C.ar    1  LIG1        0.1175
      2 C           1.3713    2.8092   -0.5655 C.ar    1  LIG1       -0.0121
      3 C          -0.8783    1.9902   -0.3199 C.ar    1  LIG1       -0.0199
      4 C           1.8749    1.5613   -0.1921 C.ar    1  LIG1       -0.0080
      5 H           2.0641    3.6049   -0.8191 H       1  LIG1        0.0660
      6 C          -0.3666    0.7561    0.0588 C.ar    1  LIG1       -0.0548
      7 C           1.0066    0.5120    0.1338 C.ar    1  LIG1       -0.0424
      8 H          -1.0545   -0.0420    0.3117 H       1  LIG1        0.0622
      9 H          -1.9427    2.1748   -0.3754 H       1  LIG1        0.0654
     10 O          -0.5378    4.2244   -0.9973 O.3     1  LIG1       -0.5067
     11 H           0.1611    4.8613   -1.1777 H       1  LIG1        0.2921
     12 C           1.5257   -0.8460    0.5662 C.3     1  LIG1       -0.0391
     13 H           0.7394   -1.4013    1.0776 H       1  LIG1        0.0278
     14 H           2.3747   -0.7327    1.2422 H       1  LIG1        0.0278
     15 H           1.8570   -1.4118   -0.3055 H       1  LIG1        0.0278
     16 C           4.0489    0.5198   -0.9455 C.ar    1  LIG1        0.1251
     17 C           5.4360    0.4299   -0.8742 C.ar    1  LIG1       -0.0115
     18 C           3.3610    1.4074   -0.1138 C.ar    1  LIG1        0.0242
     19 C           6.1570    1.2192    0.0209 C.ar    1  LIG1       -0.0080
     20 H           5.9681   -0.2629   -1.5178 H       1  LIG1        0.0660
     21 C           4.1036    2.1931    0.7678 C.ar    1  LIG1       -0.0470
     22 C           5.4929    2.1236    0.8593 C.ar    1  LIG1       -0.0418
     23 H           3.5641    2.8841    1.4061 H       1  LIG1        0.0628
     24 O           3.3227   -0.2290   -1.8230 O.3     1  LIG1       -0.5061
     25 H           3.9055   -0.7730   -2.3630 H       1  LIG1        0.2922
     26 C           6.2519    3.0147    1.8239 C.3     1  LIG1       -0.0391
     27 H           5.5946    3.7918    2.2129 H       1  LIG1        0.0278
     28 H           7.0970    3.4867    1.3194 H       1  LIG1        0.0278
     29 H           6.6361    2.4207    2.6542 H       1  LIG1        0.0278
     30 C           8.3523    0.6564    1.1379 C.ar    1  LIG1        0.1251
     31 C           9.7409    0.5798    1.1061 C.ar    1  LIG1       -0.0115
     32 C           7.6496    1.1178    0.0185 C.ar    1  LIG1        0.0242
     33 C          10.4517    0.9582   -0.0344 C.ar    1  LIG1       -0.0080
     34 H          10.2874    0.2136    1.9690 H       1  LIG1        0.0660
     35 C           8.3761    1.4818   -1.1141 C.ar    1  LIG1       -0.0470
     36 C           9.7701    1.4192   -1.1718 C.ar    1  LIG1       -0.0418
     37 H           7.8250    1.8520   -1.9714 H       1  LIG1        0.0628
     38 O           7.6345    0.2836    2.2327 O.3     1  LIG1       -0.5061
     39 H           8.2182   -0.0573    2.9189 H       1  LIG1        0.2922
     40 C          10.5235    1.8819   -2.4077 C.3     1  LIG1       -0.0391
     41 H           9.8338    2.3451   -3.1122 H       1  LIG1        0.0278
     42 H          11.0211    1.0437   -2.8995 H       1  LIG1        0.0278
     43 H          11.2880    2.6082   -2.1281 H       1  LIG1        0.0278
     44 C          12.5893   -0.0714   -0.8302 C.ar    1  LIG1        0.1246
     45 C          13.9799   -0.1671   -0.8207 C.ar    1  LIG1       -0.0193
     46 C          11.9457    0.8667   -0.0198 C.ar    1  LIG1        0.0242
     47 C          14.7208    0.6702    0.0004 C.ar    1  LIG1       -0.0554
     48 H          14.4505   -0.9057   -1.4551 H       1  LIG1        0.0654
     49 C          12.7145    1.6909    0.8062 C.ar    1  LIG1       -0.0476
     50 C          14.1033    1.6131    0.8290 C.ar    1  LIG1       -0.0496
     51 H          12.2010    2.4139    1.4304 H       1  LIG1        0.0627
     52 H          15.8020    0.5897    0.0018 H       1  LIG1        0.0621
     53 O          11.8958   -0.9143   -1.6435 O.3     1  LIG1       -0.5062
     54 H          10.9489   -0.8179   -1.4714 H       1  LIG1        0.2922
     55 C          14.9334    2.5292    1.7108 C.3     1  LIG1       -0.0397
     56 H          15.5209    3.2166    1.0999 H       1  LIG1        0.0278
     57 H          15.6199    1.9474    2.3277 H       1  LIG1        0.0278
     58 H          14.2906    3.1155    2.3670 H       1  LIG1        0.0278
@<TRIPOS>BOND
     1    41    40    1
     2    42    40    1
     3    40    43    1
     4    40    36    1
     5    25    24    1
     6    37    35    1
     7    24    16    1
     8    53    54    1
     9    53    44    1
    10    20    17    1
    11    48    45    1
    12    11    10    1
    13    36    35   ar
    14    36    33   ar
    15    35    32   ar
    16    10     1    1
    17    16    17   ar
    18    16    18   ar
    19    17    19   ar
    20    44    45   ar
    21    44    46   ar
    22    45    47   ar
    23     5     2    1
    24     1     2   ar
    25     1     3   ar
    26     2     4   ar
    27     9     3    1
    28     3     6   ar
    29    15    12    1
    30     4    18    1
    31     4     7   ar
    32    18    21   ar
    33    33    46    1
    34    33    31   ar
    35    46    49   ar
    36    47    52    1
    37    47    50   ar
    38    32    19    1
    39    32    30   ar
    40    19    22   ar
    41     6     7   ar
    42     6     8    1
    43     7    12    1
    44    12    13    1
    45    12    14    1
    46    21    22   ar
    47    21    23    1
    48    49    50   ar
    49    49    51    1
    50    50    55    1
    51    22    26    1
    52    56    55    1
    53    31    30   ar
    54    31    34    1
    55    30    38    1
    56    28    26    1
    57    55    57    1
    58    55    58    1
    59    26    27    1
    60    26    29    1
    61    38    39    1
