@<TRIPOS>MOLECULE
mol_data/opt/m06hf/geoms/mol2/4fi4fi-4fi-4fi.out
 58 61 0 0 0
SMALL
GASTEIGER

@<TRIPOS>ATOM
      1 C          -0.2826    0.0340   -0.0815 C.ar    1  LIG1        0.1175
      2 C           1.1077   -0.0168   -0.0842 C.ar    1  LIG1       -0.0121
      3 C          -0.9307    1.2675   -0.0809 C.ar    1  LIG1       -0.0199
      4 C           1.8545    1.1642   -0.0806 C.ar    1  LIG1       -0.0080
      5 H           1.6260   -0.9695   -0.0954 H       1  LIG1        0.0660
      6 C          -0.1801    2.4347   -0.0777 C.ar    1  LIG1       -0.0548
      7 C           1.2181    2.4147   -0.0768 C.ar    1  LIG1       -0.0424
      8 H          -0.6912    3.3896   -0.0684 H       1  LIG1        0.0622
      9 H          -2.0121    1.2860   -0.0810 H       1  LIG1        0.0654
     10 O          -1.0590   -1.0841   -0.0882 O.3     1  LIG1       -0.5067
     11 H          -0.5126   -1.8766   -0.0998 H       1  LIG1        0.2921
     12 C           2.0200    3.7051   -0.0412 C.3     1  LIG1       -0.0391
     13 H           1.3519    4.5538    0.1010 H       1  LIG1        0.0278
     14 H           2.5729    3.8465   -0.9722 H       1  LIG1        0.0278
     15 H           2.7383    3.6788    0.7794 H       1  LIG1        0.0278
     16 C           4.0487    1.4547   -1.2431 C.ar    1  LIG1        0.1251
     17 C           5.4392    1.3753   -1.2704 C.ar    1  LIG1       -0.0115
     18 C           3.3490    1.0738   -0.0952 C.ar    1  LIG1        0.0242
     19 C           6.1413    0.9095   -0.1575 C.ar    1  LIG1       -0.0080
     20 H           5.9628    1.6565   -2.1756 H       1  LIG1        0.0660
     21 C           4.0663    0.6115    1.0089 C.ar    1  LIG1       -0.0470
     22 C           5.4568    0.5282    1.0096 C.ar    1  LIG1       -0.0418
     23 H           3.5116    0.3309    1.8972 H       1  LIG1        0.0628
     24 O           3.4107    1.9086   -2.3538 O.3     1  LIG1       -0.5061
     25 H           2.4553    1.8096   -2.2379 H       1  LIG1        0.2922
     26 C           6.2059    0.0567    2.2434 C.3     1  LIG1       -0.0391
     27 H           7.0533    0.7131    2.4448 H       1  LIG1        0.0278
     28 H           6.5937   -0.9534    2.1027 H       1  LIG1        0.0278
     29 H           5.5403    0.0566    3.1063 H       1  LIG1        0.0278
     30 C           8.3620    2.0517   -0.2159 C.ar    1  LIG1        0.1251
     31 C           9.7545    2.0179   -0.2552 C.ar    1  LIG1       -0.0115
     32 C           7.6370    0.8587   -0.2165 C.ar    1  LIG1        0.0242
     33 C          10.4305    0.8029   -0.3005 C.ar    1  LIG1       -0.0080
     34 H          10.2970    2.9540   -0.2618 H       1  LIG1        0.0660
     35 C           8.3323   -0.3516   -0.2533 C.ar    1  LIG1       -0.0470
     36 C           9.7213   -0.4110   -0.2942 C.ar    1  LIG1       -0.0418
     37 H           7.7591   -1.2722   -0.2515 H       1  LIG1        0.0628
     38 O           7.7554    3.2677   -0.1680 O.3     1  LIG1       -0.5061
     39 H           6.7965    3.1485   -0.1531 H       1  LIG1        0.2922
     40 C          10.4392   -1.7470   -0.3110 C.3     1  LIG1       -0.0391
     41 H          11.2287   -1.7622    0.4425 H       1  LIG1        0.0278
     42 H          10.8945   -1.9116   -1.2883 H       1  LIG1        0.0278
     43 H           9.7360   -2.5530   -0.1017 H       1  LIG1        0.0278
     44 C          12.6646    0.3430   -1.3904 C.ar    1  LIG1        0.1246
     45 C          14.0545    0.3891   -1.3691 C.ar    1  LIG1       -0.0193
     46 C          11.9270    0.8273   -0.3025 C.ar    1  LIG1        0.0242
     47 C          14.7188    0.9304   -0.2714 C.ar    1  LIG1       -0.0554
     48 H          14.6179    0.0065   -2.2130 H       1  LIG1        0.0654
     49 C          12.6188    1.3670    0.7795 C.ar    1  LIG1       -0.0476
     50 C          14.0135    1.4311    0.8188 C.ar    1  LIG1       -0.0496
     51 H          12.0402    1.7408    1.6175 H       1  LIG1        0.0627
     52 H          15.8020    0.9609   -0.2713 H       1  LIG1        0.0621
     53 O          11.9740   -0.1620   -2.4525 O.3     1  LIG1       -0.5062
     54 H          12.5755   -0.3694   -3.1754 H       1  LIG1        0.2922
     55 C          14.7251    2.0483    2.0096 C.3     1  LIG1       -0.0397
     56 H          14.2686    1.7149    2.9419 H       1  LIG1        0.0278
     57 H          14.6623    3.1373    1.9673 H       1  LIG1        0.0278
     58 H          15.7771    1.7635    2.0176 H       1  LIG1        0.0278
@<TRIPOS>BOND
     1    54    53    1
     2    53    44    1
     3    24    25    1
     4    24    16    1
     5    48    45    1
     6    20    17    1
     7    44    45   ar
     8    44    46   ar
     9    45    47   ar
    10    42    40    1
    11    17    16   ar
    12    17    19   ar
    13    16    18   ar
    14    14    12    1
    15    40    36    1
    16    40    43    1
    17    40    41    1
    18    46    33    1
    19    46    49   ar
    20    33    36   ar
    21    33    31   ar
    22    36    35   ar
    23    47    52    1
    24    47    50   ar
    25    34    31    1
    26    31    30   ar
    27    35    37    1
    28    35    32   ar
    29    32    30   ar
    30    32    19    1
    31    30    38    1
    32    38    39    1
    33    19    22   ar
    34    11    10    1
    35     5     2    1
    36    18     4    1
    37    18    21   ar
    38    10     1    1
    39     2     1   ar
    40     2     4   ar
    41     1     3   ar
    42     9     3    1
    43     3     6   ar
    44     4     7   ar
    45     6     7   ar
    46     6     8    1
    47     7    12    1
    48    12    13    1
    49    12    15    1
    50    49    50   ar
    51    49    51    1
    52    50    55    1
    53    21    22   ar
    54    21    23    1
    55    22    26    1
    56    57    55    1
    57    55    58    1
    58    55    56    1
    59    28    26    1
    60    26    27    1
    61    26    29    1
