@<TRIPOS>MOLECULE
mol_data/opt/m06hf/geoms/mol2/4fi4fi-.out
 30 31 0 0 0
SMALL
GASTEIGER

@<TRIPOS>ATOM
      1 C          -0.1320    0.6168   -1.1082 C.ar    1  LIG1        0.1175
      2 C           1.2560    0.5193   -1.1516 C.ar    1  LIG1       -0.0121
      3 C          -0.7381    1.4188   -0.1441 C.ar    1  LIG1       -0.0199
      4 C           2.0430    1.2183   -0.2298 C.ar    1  LIG1       -0.0080
      5 H           1.7419   -0.1122   -1.8886 H       1  LIG1        0.0660
      6 C           0.0524    2.1178    0.7580 C.ar    1  LIG1       -0.0548
      7 C           1.4477    2.0415    0.7349 C.ar    1  LIG1       -0.0424
      8 H          -0.4270    2.7475    1.4976 H       1  LIG1        0.0622
      9 H          -1.8173    1.4831   -0.1242 H       1  LIG1        0.0654
     10 O          -0.9418   -0.0471   -1.9786 O.3     1  LIG1       -0.5067
     11 H          -0.4182   -0.5549   -2.6069 H       1  LIG1        0.2921
     12 C           2.2871    2.8359    1.7199 C.3     1  LIG1       -0.0391
     13 H           1.6763    3.6026    2.1959 H       1  LIG1        0.0278
     14 H           3.1246    3.3128    1.2091 H       1  LIG1        0.0278
     15 H           2.6955    2.1867    2.4962 H       1  LIG1        0.0278
     16 C           4.2011    1.6950   -1.3918 C.ar    1  LIG1        0.1246
     17 C           5.5892    1.5981   -1.4914 C.ar    1  LIG1       -0.0193
     18 C           3.5331    1.0944   -0.3221 C.ar    1  LIG1        0.0242
     19 C           6.3015    0.9037   -0.5253 C.ar    1  LIG1       -0.0554
     20 H           6.0804    2.0777   -2.3270 H       1  LIG1        0.0654
     21 C           4.2741    0.4012    0.6382 C.ar    1  LIG1       -0.0476
     22 C           5.6581    0.2908    0.5557 C.ar    1  LIG1       -0.0496
     23 H           3.7410   -0.0657    1.4593 H       1  LIG1        0.0627
     24 H           7.3801    0.8356   -0.6096 H       1  LIG1        0.0621
     25 O           3.5400    2.3903   -2.3550 O.3     1  LIG1       -0.5062
     26 H           2.5980    2.4223   -2.1411 H       1  LIG1        0.2922
     27 C           6.4527   -0.4867    1.5899 C.3     1  LIG1       -0.0397
     28 H           7.3280    0.0820    1.9062 H       1  LIG1        0.0278
     29 H           6.7939   -1.4370    1.1748 H       1  LIG1        0.0278
     30 H           5.8403   -0.6951    2.4668 H       1  LIG1        0.0278
@<TRIPOS>BOND
     1    11    10    1
     2    25    26    1
     3    25    16    1
     4    20    17    1
     5    10     1    1
     6     5     2    1
     7    17    16   ar
     8    17    19   ar
     9    16    18   ar
    10     2     1   ar
    11     2     4   ar
    12     1     3   ar
    13    24    19    1
    14    19    22   ar
    15    18     4    1
    16    18    21   ar
    17     4     7   ar
    18     3     9    1
    19     3     6   ar
    20    22    21   ar
    21    22    27    1
    22    21    23    1
    23     7     6   ar
    24     7    12    1
    25     6     8    1
    26    29    27    1
    27    14    12    1
    28    27    28    1
    29    27    30    1
    30    12    13    1
    31    12    15    1
