@<TRIPOS>MOLECULE
mol_data/opt/m06hf/geoms/mol2/4fi4fi-4fi4fi.out
 58 61 0 0 0
SMALL
GASTEIGER

@<TRIPOS>ATOM
      1 C          -0.2497    0.3228   -0.9756 C.ar    1  LIG1        0.1175
      2 C           1.1380    0.2461   -0.9167 C.ar    1  LIG1       -0.0121
      3 C          -0.9106    1.3934   -0.3767 C.ar    1  LIG1       -0.0199
      4 C           1.8714    1.2297   -0.2482 C.ar    1  LIG1       -0.0080
      5 H           1.6671   -0.5726   -1.3929 H       1  LIG1        0.0660
      6 C          -0.1744    2.3646    0.2875 C.ar    1  LIG1       -0.0548
      7 C           1.2199    2.3074    0.3733 C.ar    1  LIG1       -0.0424
      8 H          -0.6961    3.1865    0.7632 H       1  LIG1        0.0622
      9 H          -1.9895    1.4390   -0.4387 H       1  LIG1        0.0654
     10 O          -1.0105   -0.6114   -1.6109 O.3     1  LIG1       -0.5067
     11 H          -0.4553   -1.3109   -1.9705 H       1  LIG1        0.2921
     12 C           1.9998    3.3543    1.1519 C.3     1  LIG1       -0.0391
     13 H           1.3117    4.0044    1.6914 H       1  LIG1        0.0278
     14 H           2.6119    3.9641    0.4844 H       1  LIG1        0.0278
     15 H           2.6646    2.8675    1.8668 H       1  LIG1        0.0278
     16 C           4.1445    2.0564   -0.8889 C.ar    1  LIG1        0.1251
     17 C           5.5326    1.9672   -0.8491 C.ar    1  LIG1       -0.0115
     18 C           3.3634    1.1192   -0.2097 C.ar    1  LIG1        0.0242
     19 C           6.1531    0.9384   -0.1454 C.ar    1  LIG1       -0.0080
     20 H           6.1185    2.6991   -1.3893 H       1  LIG1        0.0660
     21 C           4.0030    0.0918    0.4875 C.ar    1  LIG1       -0.0470
     22 C           5.3892   -0.0215    0.5394 C.ar    1  LIG1       -0.0418
     23 H           3.3868   -0.6238    1.0206 H       1  LIG1        0.0628
     24 O           3.5902    3.0764   -1.6019 O.3     1  LIG1       -0.5061
     25 H           2.6322    2.9513   -1.6446 H       1  LIG1        0.2922
     26 C           6.0470   -1.1370    1.3293 C.3     1  LIG1       -0.0391
     27 H           6.8643   -0.7414    1.9347 H       1  LIG1        0.0278
     28 H           6.4590   -1.8809    0.6460 H       1  LIG1        0.0278
     29 H           5.3183   -1.6134    1.9852 H       1  LIG1        0.0278
     30 C           8.3880   -0.1278   -0.6610 C.ar    1  LIG1        0.1251
     31 C           9.7749   -0.1112   -0.6029 C.ar    1  LIG1       -0.0115
     32 C           7.6482    0.9169   -0.0960 C.ar    1  LIG1        0.0242
     33 C          10.4559    0.9434    0.0092 C.ar    1  LIG1       -0.0080
     34 H          10.3454   -0.9266   -1.0341 H       1  LIG1        0.0660
     35 C           8.3440    1.9556    0.5160 C.ar    1  LIG1       -0.0470
     36 C           9.7381    1.9962    0.5910 C.ar    1  LIG1       -0.0418
     37 H           7.7659    2.7544    0.9678 H       1  LIG1        0.0628
     38 O           7.7036   -1.1399   -1.2680 O.3     1  LIG1       -0.5061
     39 H           8.3206   -1.7613   -1.6688 H       1  LIG1        0.2922
     40 C          10.4098    3.1472    1.3235 C.3     1  LIG1       -0.0391
     41 H           9.7485    3.5118    2.1097 H       1  LIG1        0.0278
     42 H          10.6209    3.9781    0.6467 H       1  LIG1        0.0278
     43 H          11.3488    2.8244    1.7721 H       1  LIG1        0.0278
     44 C          12.6590   -0.1541    0.5550 C.ar    1  LIG1        0.1246
     45 C          14.0516   -0.1429    0.5685 C.ar    1  LIG1       -0.0193
     46 C          11.9517    0.9262    0.0137 C.ar    1  LIG1        0.0242
     47 C          14.7470    0.9393    0.0408 C.ar    1  LIG1       -0.0554
     48 H          14.5904   -0.9807    0.9974 H       1  LIG1        0.0654
     49 C          12.6779    1.9904   -0.5209 C.ar    1  LIG1       -0.0476
     50 C          14.0720    2.0224   -0.5185 C.ar    1  LIG1       -0.0496
     51 H          12.1261    2.8155   -0.9579 H       1  LIG1        0.0627
     52 H          15.8305    0.9348    0.0637 H       1  LIG1        0.0621
     53 O          11.9435   -1.1990    1.0616 O.3     1  LIG1       -0.5062
     54 H          12.5311   -1.8228    1.5006 H       1  LIG1        0.2922
     55 C          14.8270    3.1877   -1.1334 C.3     1  LIG1       -0.0397
     56 H          14.2434    4.1050   -1.0558 H       1  LIG1        0.0278
     57 H          15.0287    2.9967   -2.1891 H       1  LIG1        0.0278
     58 H          15.7786    3.3385   -0.6236 H       1  LIG1        0.0278
@<TRIPOS>BOND
     1    57    55    1
     2    11    10    1
     3    39    38    1
     4    25    24    1
     5    10     1    1
     6    24    16    1
     7     5     2    1
     8    20    17    1
     9    38    30    1
    10    55    56    1
    11    55    58    1
    12    55    50    1
    13    34    31    1
    14     1     2   ar
    15     1     3   ar
    16    51    49    1
    17     2     4   ar
    18    16    17   ar
    19    16    18   ar
    20    17    19   ar
    21    30    31   ar
    22    30    32   ar
    23    31    33   ar
    24    49    50   ar
    25    49    46   ar
    26    50    47   ar
    27     9     3    1
    28     3     6   ar
    29     4    18    1
    30     4     7   ar
    31    18    21   ar
    32    19    32    1
    33    19    22   ar
    34    32    35   ar
    35    33    46    1
    36    33    36   ar
    37    46    44   ar
    38    47    52    1
    39    47    45   ar
    40     6     7   ar
    41     6     8    1
    42     7    12    1
    43    14    12    1
    44    21    22   ar
    45    21    23    1
    46    35    36   ar
    47    35    37    1
    48    22    26    1
    49    44    45   ar
    50    44    53    1
    51    45    48    1
    52    36    40    1
    53    28    26    1
    54    42    40    1
    55    53    54    1
    56    12    13    1
    57    12    15    1
    58    40    43    1
    59    40    41    1
    60    26    27    1
    61    26    29    1
