@<TRIPOS>MOLECULE
mol_data/opt/m06hf/geoms/mol2/4fi4fi-4fi.out
 44 46 0 0 0
SMALL
GASTEIGER

@<TRIPOS>ATOM
      1 C          -0.1638    0.1831   -0.7027 C.ar    1  LIG1        0.1175
      2 C           1.2256    0.1237   -0.6674 C.ar    1  LIG1       -0.0121
      3 C          -0.8204    1.3254   -0.2495 C.ar    1  LIG1       -0.0199
      4 C           1.9647    1.1999   -0.1683 C.ar    1  LIG1       -0.0080
      5 H           1.7512   -0.7515   -1.0340 H       1  LIG1        0.0660
      6 C          -0.0784    2.3884    0.2466 C.ar    1  LIG1       -0.0548
      7 C           1.3182    2.3525    0.3045 C.ar    1  LIG1       -0.0424
      8 H          -0.5962    3.2676    0.6102 H       1  LIG1        0.0622
      9 H          -1.9007    1.3543   -0.2898 H       1  LIG1        0.0654
     10 O          -0.9301   -0.8374   -1.1783 O.3     1  LIG1       -0.5067
     11 H          -0.3771   -1.5862   -1.4242 H       1  LIG1        0.2921
     12 C           2.1072    3.5083    0.8982 C.3     1  LIG1       -0.0391
     13 H           1.4272    4.2312    1.3475 H       1  LIG1        0.0278
     14 H           2.7013    4.0107    0.1321 H       1  LIG1        0.0278
     15 H           2.7903    3.1379    1.6640 H       1  LIG1        0.0278
     16 C           4.2095    1.9347   -0.9938 C.ar    1  LIG1        0.1251
     17 C           5.5983    1.8521   -0.9918 C.ar    1  LIG1       -0.0115
     18 C           3.4585    1.1056   -0.1575 C.ar    1  LIG1        0.0242
     19 C           6.2501    0.9390   -0.1670 C.ar    1  LIG1       -0.0080
     20 H           6.1596    2.4938   -1.6584 H       1  LIG1        0.0660
     21 C           4.1286    0.1960    0.6622 C.ar    1  LIG1       -0.0470
     22 C           5.5169    0.0938    0.6824 C.ar    1  LIG1       -0.0418
     23 H           3.5363   -0.4337    1.3170 H       1  LIG1        0.0628
     24 O           3.6239    2.8388   -1.8276 O.3     1  LIG1       -0.5061
     25 H           2.6660    2.7050   -1.8207 H       1  LIG1        0.2922
     26 C           6.2035   -0.8893    1.6109 C.3     1  LIG1       -0.0391
     27 H           7.0623   -0.4202    2.0935 H       1  LIG1        0.0278
     28 H           6.5593   -1.7498    1.0430 H       1  LIG1        0.0278
     29 H           5.5082   -1.2278    2.3789 H       1  LIG1        0.0278
     30 C           8.4565   -0.2097   -0.6075 C.ar    1  LIG1        0.1246
     31 C           9.8483   -0.1956   -0.6213 C.ar    1  LIG1       -0.0193
     32 C           7.7464    0.9192   -0.1824 C.ar    1  LIG1        0.0242
     33 C          10.5392    0.9450   -0.2245 C.ar    1  LIG1       -0.0554
     34 H          10.3910   -1.0765   -0.9458 H       1  LIG1        0.0654
     35 C           8.4655    2.0493    0.2041 C.ar    1  LIG1       -0.0476
     36 C           9.8606    2.0879    0.1922 C.ar    1  LIG1       -0.0496
     37 H           7.9070    2.9191    0.5320 H       1  LIG1        0.0627
     38 H          11.6228    0.9396   -0.2416 H       1  LIG1        0.0621
     39 O           7.7420   -1.3021   -1.0035 O.3     1  LIG1       -0.5062
     40 H           8.3338   -1.9785   -1.3490 H       1  LIG1        0.2922
     41 C          10.6096    3.3456    0.5954 C.3     1  LIG1       -0.0397
     42 H          10.0499    3.8990    1.3494 H       1  LIG1        0.0278
     43 H          10.7552    3.9954   -0.2697 H       1  LIG1        0.0278
     44 H          11.5880    3.0941    1.0048 H       1  LIG1        0.0278
@<TRIPOS>BOND
     1    24    25    1
     2    24    16    1
     3    20    17    1
     4    11    10    1
     5    40    39    1
     6    10     1    1
     7     5     2    1
     8    39    30    1
     9    16    17   ar
    10    16    18   ar
    11    17    19   ar
    12    34    31    1
    13     1     2   ar
    14     1     3   ar
    15     2     4   ar
    16    31    30   ar
    17    31    33   ar
    18    30    32   ar
    19     9     3    1
    20    43    41    1
    21     3     6   ar
    22    38    33    1
    23    33    36   ar
    24    32    19    1
    25    32    35   ar
    26     4    18    1
    27     4     7   ar
    28    19    22   ar
    29    18    21   ar
    30    14    12    1
    31    36    35   ar
    32    36    41    1
    33    35    37    1
    34     6     7   ar
    35     6     8    1
    36     7    12    1
    37    41    44    1
    38    41    42    1
    39    21    22   ar
    40    21    23    1
    41    22    26    1
    42    12    13    1
    43    12    15    1
    44    28    26    1
    45    26    27    1
    46    26    29    1
