@<TRIPOS>MOLECULE
mol_data/opt/m06hf/geoms/mol2/4fi4fi-4fi-4fi-.out
 58 61 0 0 0
SMALL
GASTEIGER

@<TRIPOS>ATOM
      1 C           7.1559    1.1179   -0.1943 C.ar    1  LIG1        0.1175
      2 C           5.7648    1.1193   -0.1826 C.ar    1  LIG1       -0.0121
      3 C           7.8489   -0.0776   -0.0134 C.ar    1  LIG1       -0.0199
      4 C           5.0621   -0.0716    0.0195 C.ar    1  LIG1       -0.0080
      5 H           5.2121    2.0399   -0.3357 H       1  LIG1        0.0660
      6 C           7.1419   -1.2545    0.1867 C.ar    1  LIG1       -0.0548
      7 C           5.7438   -1.2828    0.2117 C.ar    1  LIG1       -0.0424
      8 H           7.6880   -2.1774    0.3391 H       1  LIG1        0.0622
      9 H           8.9301   -0.0585   -0.0295 H       1  LIG1        0.0654
     10 O           7.8912    2.2473   -0.3835 O.3     1  LIG1       -0.5067
     11 H           7.3178    3.0104   -0.5089 H       1  LIG1        0.2921
     12 C           4.9937   -2.5771    0.4814 C.3     1  LIG1       -0.0391
     13 H           5.6971   -3.3620    0.7568 H       1  LIG1        0.0278
     14 H           4.4351   -2.8998   -0.3995 H       1  LIG1        0.0278
     15 H           4.2852   -2.4359    1.2989 H       1  LIG1        0.0278
     16 C           2.8598   -0.6422   -1.0226 C.ar    1  LIG1        0.1251
     17 C           1.4682   -0.6215   -1.0291 C.ar    1  LIG1       -0.0115
     18 C           3.5654   -0.0341    0.0208 C.ar    1  LIG1        0.0242
     19 C           0.7697    0.0206   -0.0081 C.ar    1  LIG1       -0.0080
     20 H           0.9401   -1.1092   -1.8381 H       1  LIG1        0.0660
     21 C           2.8512    0.6159    1.0275 C.ar    1  LIG1       -0.0470
     22 C           1.4582    0.6624    1.0392 C.ar    1  LIG1       -0.0418
     23 H           3.4102    1.0967    1.8227 H       1  LIG1        0.0628
     24 O           3.4945   -1.2717   -2.0454 O.3     1  LIG1       -0.5061
     25 H           4.4476   -1.1218   -1.9727 H       1  LIG1        0.2922
     26 C           0.7129    1.4194    2.1267 C.3     1  LIG1       -0.0391
     27 H           0.1375    0.7379    2.7563 H       1  LIG1        0.0278
     28 H           0.0188    2.1306    1.6766 H       1  LIG1        0.0278
     29 H           1.4205    1.9625    2.7521 H       1  LIG1        0.0278
     30 C          -1.4395   -0.6768    0.9399 C.ar    1  LIG1        0.1251
     31 C          -2.8308   -0.6588    0.9375 C.ar    1  LIG1       -0.0115
     32 C          -0.7271    0.0244   -0.0380 C.ar    1  LIG1        0.0242
     33 C          -3.5251    0.0392   -0.0489 C.ar    1  LIG1       -0.0080
     34 H          -3.3637   -1.1915    1.7144 H       1  LIG1        0.0660
     35 C          -1.4366    0.7018   -1.0301 C.ar    1  LIG1       -0.0470
     36 C          -2.8299    0.7246   -1.0638 C.ar    1  LIG1       -0.0418
     37 H          -0.8735    1.2251   -1.7947 H       1  LIG1        0.0628
     38 O          -0.8125   -1.3789    1.9212 O.3     1  LIG1       -0.5061
     39 H           0.1386   -1.3970    1.7461 H       1  LIG1        0.2922
     40 C          -3.5706    1.4378   -2.1834 C.3     1  LIG1       -0.0391
     41 H          -4.1165    2.3029   -1.8020 H       1  LIG1        0.0278
     42 H          -4.2917    0.7605   -2.6431 H       1  LIG1        0.0278
     43 H          -2.8637    1.7722   -2.9419 H       1  LIG1        0.0278
     44 C          -5.6918    1.2515    0.2482 C.ar    1  LIG1        0.1246
     45 C          -7.0844    1.2831    0.2817 C.ar    1  LIG1       -0.0193
     46 C          -5.0218    0.0532   -0.0118 C.ar    1  LIG1        0.0242
     47 C          -7.8031    0.1157    0.0686 C.ar    1  LIG1       -0.0554
     48 H          -7.5742    2.2255    0.4848 H       1  LIG1        0.0654
     49 C          -5.7686   -1.1104   -0.2099 C.ar    1  LIG1       -0.0476
     50 C          -7.1598   -1.1018   -0.1761 C.ar    1  LIG1       -0.0496
     51 H          -5.2363   -2.0345   -0.4053 H       1  LIG1        0.0627
     52 H          -8.8865    0.1475    0.0975 H       1  LIG1        0.0621
     53 O          -5.0205    2.4154    0.4729 O.3     1  LIG1       -0.5062
     54 H          -4.0761    2.2265    0.5609 H       1  LIG1        0.2922
     55 C          -7.9645   -2.3723   -0.3848 C.3     1  LIG1       -0.0397
     56 H          -8.7397   -2.2138   -1.1358 H       1  LIG1        0.0278
     57 H          -8.4469   -2.6749    0.5465 H       1  LIG1        0.0278
     58 H          -7.3197   -3.1846   -0.7187 H       1  LIG1        0.0278
@<TRIPOS>BOND
     1    43    40    1
     2    42    40    1
     3    40    41    1
     4    40    36    1
     5    24    25    1
     6    24    16    1
     7    20    17    1
     8    37    35    1
     9    56    55    1
    10    36    35   ar
    11    36    33   ar
    12    35    32   ar
    13    17    16   ar
    14    17    19   ar
    15    16    18   ar
    16    58    55    1
    17    11    10    1
    18    51    49    1
    19    14    12    1
    20    55    50    1
    21    55    57    1
    22    10     1    1
    23     5     2    1
    24    49    50   ar
    25    49    46   ar
    26     1     2   ar
    27     1     3   ar
    28     2     4   ar
    29    50    47   ar
    30    33    46    1
    31    33    31   ar
    32    32    19    1
    33    32    30   ar
    34     9     3    1
    35     3     6   ar
    36    46    44   ar
    37    19    22   ar
    38     4    18    1
    39     4     7   ar
    40    18    21   ar
    41    47    52    1
    42    47    45   ar
    43     6     7   ar
    44     6     8    1
    45     7    12    1
    46    44    45   ar
    47    44    53    1
    48    45    48    1
    49    53    54    1
    50    12    13    1
    51    12    15    1
    52    31    30   ar
    53    31    34    1
    54    30    38    1
    55    21    22   ar
    56    21    23    1
    57    22    26    1
    58    28    26    1
    59    39    38    1
    60    26    29    1
    61    26    27    1
