@<TRIPOS>MOLECULE
mol_data/opt/m06hf/geoms/mol2/4fi4fi4fi-4fi.out
 58 61 0 0 0
SMALL
GASTEIGER

@<TRIPOS>ATOM
      1 C          -0.1899    0.8304   -1.4461 C.ar    1  LIG1        0.1175
      2 C           1.1955    0.7701   -1.3713 C.ar    1  LIG1       -0.0121
      3 C          -0.9171    1.4041   -0.4052 C.ar    1  LIG1       -0.0199
      4 C           1.8644    1.2831   -0.2578 C.ar    1  LIG1       -0.0080
      5 H           1.7703    0.3190   -2.1729 H       1  LIG1        0.0660
      6 C          -0.2434    1.8989    0.7011 C.ar    1  LIG1       -0.0548
      7 C           1.1503    1.8505    0.8038 C.ar    1  LIG1       -0.0424
      8 H          -0.8139    2.3288    1.5161 H       1  LIG1        0.0622
      9 H          -1.9954    1.4397   -0.4806 H       1  LIG1        0.0654
     10 O          -0.8907    0.3476   -2.5119 O.3     1  LIG1       -0.5067
     11 H          -0.2948   -0.0658   -3.1451 H       1  LIG1        0.2921
     12 C           1.8367    2.3850    2.0499 C.3     1  LIG1       -0.0391
     13 H           1.1487    2.3423    2.8943 H       1  LIG1        0.0278
     14 H           2.1468    3.4236    1.9152 H       1  LIG1        0.0278
     15 H           2.7224    1.7955    2.2857 H       1  LIG1        0.0278
     16 C           4.0317   -0.0015   -0.2259 C.ar    1  LIG1        0.1251
     17 C           5.4230   -0.0345   -0.1908 C.ar    1  LIG1       -0.0115
     18 C           3.3600    1.2261   -0.2314 C.ar    1  LIG1        0.0242
     19 C           6.1647    1.1473   -0.1552 C.ar    1  LIG1       -0.0080
     20 H           5.9475   -0.9841   -0.1974 H       1  LIG1        0.0660
     21 C           4.1186    2.3954   -0.2034 C.ar    1  LIG1       -0.0470
     22 C           5.5138    2.3912   -0.1602 C.ar    1  LIG1       -0.0418
     23 H           3.5918    3.3430   -0.2124 H       1  LIG1        0.0628
     24 O           3.2851   -1.1392   -0.2641 O.3     1  LIG1       -0.5061
     25 H           3.8492   -1.9130   -0.1632 H       1  LIG1        0.2922
     26 C           6.2979    3.6907   -0.0801 C.3     1  LIG1       -0.0391
     27 H           5.6151    4.5307    0.0416 H       1  LIG1        0.0278
     28 H           6.8916    3.8449   -0.9832 H       1  LIG1        0.0278
     29 H           6.9813    3.6605    0.7698 H       1  LIG1        0.0278
     30 C           8.4052    1.5043   -1.2132 C.ar    1  LIG1        0.1251
     31 C           9.7944    1.4226   -1.1877 C.ar    1  LIG1       -0.0115
     32 C           7.6583    1.0618   -0.1196 C.ar    1  LIG1        0.0242
     33 C          10.4484    0.8884   -0.0813 C.ar    1  LIG1       -0.0080
     34 H          10.3523    1.7589   -2.0518 H       1  LIG1        0.0660
     35 C           8.3316    0.5291    0.9815 C.ar    1  LIG1       -0.0470
     36 C           9.7191    0.4342    1.0302 C.ar    1  LIG1       -0.0418
     37 H           7.7426    0.1987    1.8300 H       1  LIG1        0.0628
     38 O           7.8158    2.0191   -2.3285 O.3     1  LIG1       -0.5061
     39 H           6.8582    1.8970   -2.2689 H       1  LIG1        0.2922
     40 C          10.4135   -0.1255    2.2570 C.3     1  LIG1       -0.0391
     41 H          11.2258    0.5340    2.5671 H       1  LIG1        0.0278
     42 H          10.8348   -1.1058    2.0302 H       1  LIG1        0.0278
     43 H           9.7038   -0.2206    3.0787 H       1  LIG1        0.0278
     44 C          12.6365   -0.3714   -0.0877 C.ar    1  LIG1        0.1246
     45 C          14.0265   -0.3855   -0.1115 C.ar    1  LIG1       -0.0193
     46 C          11.9444    0.8470   -0.0935 C.ar    1  LIG1        0.0242
     47 C          14.7362    0.8124   -0.1510 C.ar    1  LIG1       -0.0554
     48 H          14.5551   -1.3321   -0.1033 H       1  LIG1        0.0654
     49 C          12.6802    2.0283   -0.1393 C.ar    1  LIG1       -0.0476
     50 C          14.0774    2.0376   -0.1674 C.ar    1  LIG1       -0.0496
     51 H          12.1371    2.9672   -0.1448 H       1  LIG1        0.0627
     52 H          15.8192    0.7840   -0.1701 H       1  LIG1        0.0621
     53 O          11.9015   -1.5203   -0.0609 O.3     1  LIG1       -0.5062
     54 H          12.4769   -2.2866   -0.1534 H       1  LIG1        0.2922
     55 C          14.8372    3.3507   -0.2261 C.3     1  LIG1       -0.0397
     56 H          14.4868    4.0291    0.5529 H       1  LIG1        0.0278
     57 H          14.6884    3.8338   -1.1933 H       1  LIG1        0.0278
     58 H          15.9045    3.1823   -0.0843 H       1  LIG1        0.0278
@<TRIPOS>BOND
     1    11    10    1
     2    10     1    1
     3    38    39    1
     4    38    30    1
     5     5     2    1
     6    34    31    1
     7     1     2   ar
     8     1     3   ar
     9     2     4   ar
    10    30    31   ar
    11    30    32   ar
    12    57    55    1
    13    31    33   ar
    14    28    26    1
    15     9     3    1
    16     3     6   ar
    17    24    16    1
    18    24    25    1
    19     4    18    1
    20     4     7   ar
    21    18    16   ar
    22    18    21   ar
    23    55    50    1
    24    55    58    1
    25    55    56    1
    26    16    17   ar
    27    23    21    1
    28    21    22   ar
    29    20    17    1
    30    17    19   ar
    31    52    47    1
    32    50    47   ar
    33    50    49   ar
    34    22    19   ar
    35    22    26    1
    36    19    32    1
    37    54    53    1
    38    47    45   ar
    39    51    49    1
    40    49    46   ar
    41    32    35   ar
    42    45    48    1
    43    45    44   ar
    44    46    44   ar
    45    46    33    1
    46    44    53    1
    47    33    36   ar
    48    26    27    1
    49    26    29    1
    50     6     7   ar
    51     6     8    1
    52     7    12    1
    53    35    36   ar
    54    35    37    1
    55    36    40    1
    56    14    12    1
    57    42    40    1
    58    12    15    1
    59    12    13    1
    60    40    41    1
    61    40    43    1
