@<TRIPOS>MOLECULE
mol_data/opt/m06hf/geoms/mol2/4fi4fi-4fi4fi-.out
 58 61 0 0 0
SMALL
GASTEIGER

@<TRIPOS>ATOM
      1 C          -0.2811    0.4367   -0.9406 C.ar    1  LIG1        0.1175
      2 C           1.1066    0.3464   -0.9052 C.ar    1  LIG1       -0.0121
      3 C          -0.9261    1.4647   -0.2557 C.ar    1  LIG1       -0.0199
      4 C           1.8550    1.2759   -0.1785 C.ar    1  LIG1       -0.0080
      5 H           1.6238   -0.4407   -1.4436 H       1  LIG1        0.0660
      6 C          -0.1742    2.3834    0.4633 C.ar    1  LIG1       -0.0548
      7 C           1.2209    2.3133    0.5228 C.ar    1  LIG1       -0.0424
      8 H          -0.6838    3.1734    1.0018 H       1  LIG1        0.0622
      9 H          -2.0053    1.5206   -0.2981 H       1  LIG1        0.0654
     10 O          -1.0568   -0.4444   -1.6308 O.3     1  LIG1       -0.5067
     11 H          -0.5100   -1.1079   -2.0640 H       1  LIG1        0.2921
     12 C           2.0210    3.3055    1.3506 C.3     1  LIG1       -0.0391
     13 H           1.3465    3.9378    1.9270 H       1  LIG1        0.0278
     14 H           2.6379    3.9405    0.7115 H       1  LIG1        0.0278
     15 H           2.6823    2.7734    2.0359 H       1  LIG1        0.0278
     16 C           4.1221    2.1081   -0.8292 C.ar    1  LIG1        0.1251
     17 C           5.5090    2.0004   -0.8296 C.ar    1  LIG1       -0.0115
     18 C           3.3468    1.1521   -0.1690 C.ar    1  LIG1        0.0242
     19 C           6.1343    0.9379   -0.1812 C.ar    1  LIG1       -0.0080
     20 H           6.0887    2.7447   -1.3598 H       1  LIG1        0.0660
     21 C           3.9906    0.0953    0.4768 C.ar    1  LIG1       -0.0470
     22 C           5.3768   -0.0345    0.4929 C.ar    1  LIG1       -0.0418
     23 H           3.3789   -0.6328    0.9978 H       1  LIG1        0.0628
     24 O           3.5619    3.1614   -1.4844 O.3     1  LIG1       -0.5061
     25 H           2.6009    3.0530   -1.5002 H       1  LIG1        0.2922
     26 C           6.0339   -1.1826    1.2359 C.3     1  LIG1       -0.0391
     27 H           6.8958   -0.8246    1.8014 H       1  LIG1        0.0278
     28 H           6.3792   -1.9355    0.5265 H       1  LIG1        0.0278
     29 H           5.3236   -1.6371    1.9263 H       1  LIG1        0.0278
     30 C           8.3320   -0.1560   -0.7866 C.ar    1  LIG1        0.1251
     31 C           9.7231   -0.1520   -0.7930 C.ar    1  LIG1       -0.0115
     32 C           7.6297    0.8951   -0.1858 C.ar    1  LIG1        0.0242
     33 C          10.4380    0.8948   -0.2082 C.ar    1  LIG1       -0.0080
     34 H          10.2691   -0.9585   -1.2714 H       1  LIG1        0.0660
     35 C           8.3613    1.9327    0.3902 C.ar    1  LIG1       -0.0470
     36 C           9.7573    1.9605    0.4011 C.ar    1  LIG1       -0.0418
     37 H           7.8103    2.7383    0.8624 H       1  LIG1        0.0628
     38 O           7.6136   -1.1539   -1.3720 O.3     1  LIG1       -0.5061
     39 H           8.2025   -1.7753   -1.8130 H       1  LIG1        0.2922
     40 C          10.5102    3.0880    1.0884 C.3     1  LIG1       -0.0391
     41 H           9.8100    3.7324    1.6184 H       1  LIG1        0.0278
     42 H          11.0634    3.6888    0.3637 H       1  LIG1        0.0278
     43 H          11.2266    2.6777    1.8014 H       1  LIG1        0.0278
     44 C          12.6152    1.8064   -1.0315 C.ar    1  LIG1        0.1246
     45 C          14.0075    1.7878   -1.0906 C.ar    1  LIG1       -0.0193
     46 C          11.9336    0.8659   -0.2548 C.ar    1  LIG1        0.0242
     47 C          14.7135    0.8272   -0.3811 C.ar    1  LIG1       -0.0554
     48 H          14.5072    2.5257   -1.7034 H       1  LIG1        0.0654
     49 C          12.6677   -0.0978    0.4411 C.ar    1  LIG1       -0.0476
     50 C          14.0579   -0.1336    0.3957 C.ar    1  LIG1       -0.0496
     51 H          12.1253   -0.8231    1.0376 H       1  LIG1        0.0627
     52 H          15.7964    0.8190   -0.4346 H       1  LIG1        0.0621
     53 O          11.9583    2.7574   -1.7501 O.3     1  LIG1       -0.5062
     54 H          11.0064    2.5913   -1.7071 H       1  LIG1        0.2922
     55 C          14.8485   -1.1691    1.1755 C.3     1  LIG1       -0.0397
     56 H          15.3759   -0.6996    2.0079 H       1  LIG1        0.0278
     57 H          15.5858   -1.6512    0.5319 H       1  LIG1        0.0278
     58 H          14.1858   -1.9353    1.5768 H       1  LIG1        0.0278
@<TRIPOS>BOND
     1    11    10    1
     2    39    38    1
     3    53    54    1
     4    53    44    1
     5    48    45    1
     6    10     1    1
     7    25    24    1
     8    24    16    1
     9     5     2    1
    10    38    30    1
    11    20    17    1
    12    34    31    1
    13    45    44   ar
    14    45    47   ar
    15    44    46   ar
    16     1     2   ar
    17     1     3   ar
    18     2     4   ar
    19    17    16   ar
    20    17    19   ar
    21    16    18   ar
    22    31    30   ar
    23    31    33   ar
    24    30    32   ar
    25    52    47    1
    26    47    50   ar
    27     9     3    1
    28     3     6   ar
    29    46    33    1
    30    46    49   ar
    31    33    36   ar
    32    32    19    1
    33    32    35   ar
    34    19    22   ar
    35     4    18    1
    36     4     7   ar
    37    18    21   ar
    38    42    40    1
    39    35    36   ar
    40    35    37    1
    41    50    49   ar
    42    50    55    1
    43    36    40    1
    44    49    51    1
    45     6     7   ar
    46     6     8    1
    47    21    22   ar
    48    21    23    1
    49    22    26    1
    50     7    12    1
    51    28    26    1
    52    57    55    1
    53    14    12    1
    54    40    41    1
    55    40    43    1
    56    55    58    1
    57    55    56    1
    58    26    27    1
    59    26    29    1
    60    12    13    1
    61    12    15    1
