@<TRIPOS>MOLECULE
mol_data/opt/m06hf/geoms/mol2/4fi4fi.out
 30 31 0 0 0
SMALL
GASTEIGER

@<TRIPOS>ATOM
      1 C           0.0508    0.1758   -0.8227 C.ar    1  LIG1        0.1175
      2 C           1.4343    0.1808   -0.6988 C.ar    1  LIG1       -0.0121
      3 C          -0.6993    1.2127   -0.2722 C.ar    1  LIG1       -0.0199
      4 C           2.0791    1.2211   -0.0269 C.ar    1  LIG1       -0.0080
      5 H           2.0269   -0.6249   -1.1178 H       1  LIG1        0.0660
      6 C          -0.0496    2.2343    0.4043 C.ar    1  LIG1       -0.0548
      7 C           1.3413    2.2642    0.5444 C.ar    1  LIG1       -0.0424
      8 H          -0.6379    3.0309    0.8441 H       1  LIG1        0.0622
      9 H          -1.7753    1.1917   -0.3774 H       1  LIG1        0.0654
     10 O          -0.6234   -0.8162   -1.4734 O.3     1  LIG1       -0.5067
     11 H          -0.0077   -1.4899   -1.7790 H       1  LIG1        0.2921
     12 C           2.0030    3.3951    1.3139 C.3     1  LIG1       -0.0391
     13 H           1.2951    3.8170    2.0275 H       1  LIG1        0.0278
     14 H           2.3256    4.1936    0.6421 H       1  LIG1        0.0278
     15 H           2.8776    3.0337    1.8543 H       1  LIG1        0.0278
     16 C           4.2452    0.1948    0.7482 C.ar    1  LIG1        0.1246
     17 C           5.6359    0.2012    0.8210 C.ar    1  LIG1       -0.0193
     18 C           3.5742    1.2051    0.0494 C.ar    1  LIG1        0.0242
     19 C           6.3632    1.2080    0.1943 C.ar    1  LIG1       -0.0554
     20 H           6.1489   -0.5810    1.3694 H       1  LIG1        0.0654
     21 C           4.3294    2.1965   -0.5738 C.ar    1  LIG1       -0.0476
     22 C           5.7235    2.2200   -0.5179 C.ar    1  LIG1       -0.0496
     23 H           3.8016    2.9687   -1.1234 H       1  LIG1        0.0627
     24 H           7.4446    1.1994    0.2621 H       1  LIG1        0.0621
     25 O           3.4933   -0.7735    1.3444 O.3     1  LIG1       -0.5062
     26 H           4.0532   -1.3537    1.8707 H       1  LIG1        0.2922
     27 C           6.5135    3.2984   -1.2377 C.3     1  LIG1       -0.0397
     28 H           5.9800    4.2485   -1.2061 H       1  LIG1        0.0278
     29 H           6.6659    3.0250   -2.2838 H       1  LIG1        0.0278
     30 H           7.4896    3.4332   -0.7720 H       1  LIG1        0.0278
@<TRIPOS>BOND
     1    29    27    1
     2    11    10    1
     3    10     1    1
     4    27    28    1
     5    27    30    1
     6    27    22    1
     7    23    21    1
     8     5     2    1
     9     1     2   ar
    10     1     3   ar
    11     2     4   ar
    12    21    22   ar
    13    21    18   ar
    14    22    19   ar
    15     9     3    1
    16     3     6   ar
    17     4    18    1
    18     4     7   ar
    19    18    16   ar
    20    19    24    1
    21    19    17   ar
    22     6     7   ar
    23     6     8    1
    24     7    12    1
    25    14    12    1
    26    16    17   ar
    27    16    25    1
    28    17    20    1
    29    12    15    1
    30    12    13    1
    31    25    26    1
