@<TRIPOS>MOLECULE
mol_data/opt/m06hf/geoms/mol2/4fi4fi4fi-4fi-.out
 58 61 0 0 0
SMALL
GASTEIGER

@<TRIPOS>ATOM
      1 C          -0.2189    0.5475   -1.2253 C.ar    1  LIG1        0.1175
      2 C           1.1658    0.4836   -1.1446 C.ar    1  LIG1       -0.0121
      3 C          -0.9248    1.4056   -0.3842 C.ar    1  LIG1       -0.0199
      4 C           1.8570    1.2763   -0.2244 C.ar    1  LIG1       -0.0080
      5 H           1.7226   -0.1885   -1.7880 H       1  LIG1        0.0660
      6 C          -0.2305    2.1771    0.5344 C.ar    1  LIG1       -0.0548
      7 C           1.1636    2.1321    0.6399 C.ar    1  LIG1       -0.0424
      8 H          -0.7838    2.8298    1.1992 H       1  LIG1        0.0622
      9 H          -2.0030    1.4403   -0.4606 H       1  LIG1        0.0654
     10 O          -0.9400   -0.2044   -2.1050 O.3     1  LIG1       -0.5067
     11 H          -0.3552   -0.7628   -2.6275 H       1  LIG1        0.2921
     12 C           1.8639    2.9787    1.6910 C.3     1  LIG1       -0.0391
     13 H           1.1925    3.1409    2.5343 H       1  LIG1        0.0278
     14 H           2.1451    3.9548    1.2897 H       1  LIG1        0.0278
     15 H           2.7665    2.4842    2.0486 H       1  LIG1        0.0278
     16 C           4.0104   -0.0080    0.0588 C.ar    1  LIG1        0.1251
     17 C           5.4013   -0.0494    0.0967 C.ar    1  LIG1       -0.0115
     18 C           3.3513    1.2010   -0.1953 C.ar    1  LIG1        0.0242
     19 C           6.1566    1.1050   -0.1131 C.ar    1  LIG1       -0.0080
     20 H           5.9143   -0.9861    0.2884 H       1  LIG1        0.0660
     21 C           4.1256    2.3390   -0.4164 C.ar    1  LIG1       -0.0470
     22 C           5.5206    2.3279   -0.3775 C.ar    1  LIG1       -0.0418
     23 H           3.6099    3.2697   -0.6241 H       1  LIG1        0.0628
     24 O           3.2538   -1.1219    0.2567 O.3     1  LIG1       -0.5061
     25 H           3.8141   -1.8727    0.4793 H       1  LIG1        0.2922
     26 C           6.3169    3.6081   -0.5704 C.3     1  LIG1       -0.0391
     27 H           5.6395    4.4559   -0.6639 H       1  LIG1        0.0278
     28 H           6.9383    3.5540   -1.4662 H       1  LIG1        0.0278
     29 H           6.9725    3.7719    0.2864 H       1  LIG1        0.0278
     30 C           8.3991    1.1992   -1.2230 C.ar    1  LIG1        0.1251
     31 C           9.7880    1.1266   -1.1783 C.ar    1  LIG1       -0.0115
     32 C           7.6497    1.0146   -0.0570 C.ar    1  LIG1        0.0242
     33 C          10.4411    0.8512    0.0217 C.ar    1  LIG1       -0.0080
     34 H          10.3509    1.2864   -2.0887 H       1  LIG1        0.0660
     35 C           8.3177    0.7266    1.1333 C.ar    1  LIG1       -0.0470
     36 C           9.7069    0.6373    1.2036 C.ar    1  LIG1       -0.0418
     37 H           7.7252    0.5707    2.0280 H       1  LIG1        0.0628
     38 O           7.8114    1.4602   -2.4207 O.3     1  LIG1       -0.5061
     39 H           6.8512    1.3822   -2.3334 H       1  LIG1        0.2922
     40 C          10.4004    0.2893    2.5102 C.3     1  LIG1       -0.0391
     41 H          10.9660    1.1422    2.8906 H       1  LIG1        0.0278
     42 H          11.0988   -0.5341    2.3544 H       1  LIG1        0.0278
     43 H           9.6627   -0.0049    3.2561 H       1  LIG1        0.0278
     44 C          12.6642    1.7545    0.7297 C.ar    1  LIG1        0.1246
     45 C          14.0562    1.6964    0.7621 C.ar    1  LIG1       -0.0193
     46 C          11.9368    0.7832    0.0378 C.ar    1  LIG1        0.0242
     47 C          14.7168    0.6750    0.0952 C.ar    1  LIG1       -0.0554
     48 H          14.5919    2.4625    1.3058 H       1  LIG1        0.0654
     49 C          12.6266   -0.2277   -0.6363 C.ar    1  LIG1       -0.0476
     50 C          14.0160   -0.3020   -0.6193 C.ar    1  LIG1       -0.0496
     51 H          12.0497   -0.9733   -1.1721 H       1  LIG1        0.0627
     52 H          15.7999    0.6364    0.1250 H       1  LIG1        0.0621
     53 O          12.0522    2.7757    1.3910 O.3     1  LIG1       -0.5062
     54 H          11.1087    2.7736    1.1789 H       1  LIG1        0.2922
     55 C          14.7584   -1.3999   -1.3604 C.3     1  LIG1       -0.0397
     56 H          15.4738   -1.8915   -0.6994 H       1  LIG1        0.0278
     57 H          15.3054   -0.9848   -2.2087 H       1  LIG1        0.0278
     58 H          14.0610   -2.1492   -1.7338 H       1  LIG1        0.0278
@<TRIPOS>BOND
     1    11    10    1
     2    38    39    1
     3    38    30    1
     4    57    55    1
     5    10     1    1
     6    34    31    1
     7     5     2    1
     8    58    55    1
     9    28    26    1
    10    55    56    1
    11    55    50    1
    12     1     2   ar
    13     1     3   ar
    14    30    31   ar
    15    30    32   ar
    16    31    33   ar
    17    51    49    1
    18     2     4   ar
    19    27    26    1
    20    49    50   ar
    21    49    46   ar
    22    23    21    1
    23    50    47   ar
    24    26    22    1
    25    26    29    1
    26     9     3    1
    27    21    22   ar
    28    21    18   ar
    29     3     6   ar
    30    22    19   ar
    31     4    18    1
    32     4     7   ar
    33    18    16   ar
    34    19    32    1
    35    19    17   ar
    36    32    35   ar
    37    33    46    1
    38    33    36   ar
    39    46    44   ar
    40    16    17   ar
    41    16    24    1
    42    47    52    1
    43    47    45   ar
    44    17    20    1
    45    24    25    1
    46     6     7   ar
    47     6     8    1
    48     7    12    1
    49    44    45   ar
    50    44    53    1
    51    45    48    1
    52    35    36   ar
    53    35    37    1
    54    54    53    1
    55    36    40    1
    56    14    12    1
    57    12    15    1
    58    12    13    1
    59    42    40    1
    60    40    41    1
    61    40    43    1
