@<TRIPOS>MOLECULE
mol_data/opt/m06hf/geoms/mol2/4fi4fi4fi4fi.out
 58 61 0 0 0
SMALL
GASTEIGER

@<TRIPOS>ATOM
      1 C          -7.1353    1.2928    0.0225 C.ar    1  LIG1        0.1175
      2 C          -5.7490    1.2385   -0.0271 C.ar    1  LIG1       -0.0121
      3 C          -7.8723    0.1193    0.1672 C.ar    1  LIG1       -0.0199
      4 C          -5.0839    0.0124    0.0631 C.ar    1  LIG1       -0.0080
      5 H          -5.1680    2.1463   -0.1466 H       1  LIG1        0.0660
      6 C          -7.2048   -1.0935    0.2394 C.ar    1  LIG1       -0.0548
      7 C          -5.8096   -1.1794    0.1865 C.ar    1  LIG1       -0.0424
      8 H          -7.7810   -2.0070    0.3307 H       1  LIG1        0.0622
      9 H          -8.9514    0.1816    0.2048 H       1  LIG1        0.0654
     10 O          -7.8279    2.4656   -0.0634 O.3     1  LIG1       -0.5067
     11 H          -7.2224    3.2009   -0.2026 H       1  LIG1        0.2921
     12 C          -5.1444   -2.5456    0.2325 C.3     1  LIG1       -0.0391
     13 H          -5.8113   -3.2895   -0.2044 H       1  LIG1        0.0278
     14 H          -4.9289   -2.8471    1.2601 H       1  LIG1        0.0278
     15 H          -4.2081   -2.5400   -0.3242 H       1  LIG1        0.0278
     16 C          -2.8720    0.5632   -1.0225 C.ar    1  LIG1        0.1251
     17 C          -1.4833    0.5358   -1.0209 C.ar    1  LIG1       -0.0115
     18 C          -3.5880    0.0096    0.0454 C.ar    1  LIG1        0.0242
     19 C          -0.7748   -0.0352    0.0380 C.ar    1  LIG1       -0.0080
     20 H          -0.9334    0.9497   -1.8589 H       1  LIG1        0.0660
     21 C          -2.8630   -0.5542    1.0920 C.ar    1  LIG1       -0.0470
     22 C          -1.4681   -0.5997    1.1174 C.ar    1  LIG1       -0.0418
     23 H          -3.4173   -0.9789    1.9220 H       1  LIG1        0.0628
     24 O          -3.5775    1.1211   -2.0484 O.3     1  LIG1       -0.5061
     25 H          -2.9769    1.3836   -2.7536 H       1  LIG1        0.2922
     26 C          -0.7711   -1.2839    2.2831 C.3     1  LIG1       -0.0391
     27 H          -1.4083   -2.0800    2.6690 H       1  LIG1        0.0278
     28 H          -0.5776   -0.5817    3.0972 H       1  LIG1        0.0278
     29 H           0.1795   -1.7127    1.9674 H       1  LIG1        0.0278
     30 C           1.4189   -0.5545   -1.0942 C.ar    1  LIG1        0.1251
     31 C           2.8077   -0.5503   -1.1021 C.ar    1  LIG1       -0.0115
     32 C           0.7196   -0.0187   -0.0056 C.ar    1  LIG1        0.0242
     33 C           3.5324   -0.0135   -0.0373 C.ar    1  LIG1       -0.0080
     34 H           3.3453   -0.9817   -1.9395 H       1  LIG1        0.0660
     35 C           1.4621    0.5174    1.0439 C.ar    1  LIG1       -0.0470
     36 C           2.8577    0.5300    1.0635 C.ar    1  LIG1       -0.0418
     37 H           0.9220    0.9399    1.8841 H       1  LIG1        0.0628
     38 O           0.6990   -1.0730   -2.1310 O.3     1  LIG1       -0.5061
     39 H           1.2883   -1.5168   -2.7499 H       1  LIG1        0.2922
     40 C           3.5809    1.0978    2.2740 C.3     1  LIG1       -0.0391
     41 H           2.9518    0.9899    3.1578 H       1  LIG1        0.0278
     42 H           3.8004    2.1595    2.1423 H       1  LIG1        0.0278
     43 H           4.5208    0.5736    2.4430 H       1  LIG1        0.0278
     44 C           5.7318   -1.2160   -0.2886 C.ar    1  LIG1        0.1246
     45 C           7.1236   -1.2069   -0.3388 C.ar    1  LIG1       -0.0193
     46 C           5.0265   -0.0194   -0.1120 C.ar    1  LIG1        0.0242
     47 C           7.8192   -0.0083   -0.2234 C.ar    1  LIG1       -0.0554
     48 H           7.6621   -2.1397   -0.4636 H       1  LIG1        0.0654
     49 C           5.7517    1.1678   -0.0112 C.ar    1  LIG1       -0.0476
     50 C           7.1450    1.2008   -0.0640 C.ar    1  LIG1       -0.0496
     51 H           5.2004    2.0946    0.1034 H       1  LIG1        0.0627
     52 H           8.9021   -0.0190   -0.2620 H       1  LIG1        0.0621
     53 O           5.0149   -2.3703   -0.4035 O.3     1  LIG1       -0.5062
     54 H           5.6082   -3.1250   -0.4774 H       1  LIG1        0.2922
     55 C           7.8989    2.5162    0.0183 C.3     1  LIG1       -0.0397
     56 H           7.3504    3.2343    0.6279 H       1  LIG1        0.0278
     57 H           8.0323    2.9423   -0.9779 H       1  LIG1        0.0278
     58 H           8.8830    2.3653    0.4620 H       1  LIG1        0.0278
@<TRIPOS>BOND
     1    25    24    1
     2    39    38    1
     3    38    30    1
     4    24    16    1
     5    34    31    1
     6    20    17    1
     7    31    30   ar
     8    31    33   ar
     9    30    32   ar
    10    16    17   ar
    11    16    18   ar
    12    17    19   ar
    13    57    55    1
    14    54    53    1
    15    48    45    1
    16    53    44    1
    17    45    44   ar
    18    45    47   ar
    19    15    12    1
    20    44    46   ar
    21    52    47    1
    22    47    50   ar
    23    13    12    1
    24    11    10    1
    25     5     2    1
    26    46    33    1
    27    46    49   ar
    28    50    49   ar
    29    50    55    1
    30    10     1    1
    31    33    36   ar
    32     2     1   ar
    33     2     4   ar
    34    49    51    1
    35    32    19    1
    36    32    35   ar
    37    55    58    1
    38    55    56    1
    39     1     3   ar
    40    19    22   ar
    41    18     4    1
    42    18    21   ar
    43     4     7   ar
    44     3     9    1
    45     3     6   ar
    46     7    12    1
    47     7     6   ar
    48    12    14    1
    49     6     8    1
    50    35    36   ar
    51    35    37    1
    52    36    40    1
    53    21    22   ar
    54    21    23    1
    55    22    26    1
    56    29    26    1
    57    42    40    1
    58    40    43    1
    59    40    41    1
    60    26    27    1
    61    26    28    1
