@<TRIPOS>MOLECULE
mol_data/opt/m06hf/geoms/mol2/4fi6aa-12df6li.out
 50 53 0 0 0
SMALL
GASTEIGER

@<TRIPOS>ATOM
      1 C          -0.2385    0.4378   -0.7689 C.ar    1  LIG1        0.1175
      2 C           1.1503    0.4825   -0.7697 C.ar    1  LIG1       -0.0122
      3 C          -0.9517    1.1211    0.2139 C.ar    1  LIG1       -0.0199
      4 C           1.8350    1.2133    0.2068 C.ar    1  LIG1       -0.0101
      5 H           1.7139   -0.0319   -1.5409 H       1  LIG1        0.0660
      6 C          -0.2619    1.8344    1.1824 C.ar    1  LIG1       -0.0548
      7 C           1.1350    1.9002    1.2062 C.ar    1  LIG1       -0.0425
      8 H          -0.8224    2.3509    1.9525 H       1  LIG1        0.0622
      9 H          -2.0322    1.0741    0.2006 H       1  LIG1        0.0654
     10 O          -0.9539   -0.2517   -1.6999 O.3     1  LIG1       -0.5067
     11 H          -0.3670   -0.6785   -2.3324 H       1  LIG1        0.2921
     12 C           1.8341    2.6784    2.3093 C.3     1  LIG1       -0.0391
     13 H           1.1981    2.7083    3.1940 H       1  LIG1        0.0278
     14 H           2.0328    3.7066    2.0006 H       1  LIG1        0.0278
     15 H           2.7820    2.2120    2.5773 H       1  LIG1        0.0278
     16 C           4.0427    2.4202    0.0387 C.ar    1  LIG1        0.0361
     17 C           3.3272    1.2221    0.1485 C.ar    1  LIG1        0.0006
     18 C           4.0643    0.0396    0.1700 C.ar    1  LIG1       -0.0505
     19 C           5.4504    0.0903    0.0928 C.ar    1  LIG1       -0.0321
     20 C           6.0540    1.3447   -0.0056 C.ar    1  LIG1        0.1074
     21 N           5.3641    2.4852   -0.0346 N.ar    1  LIG1       -0.2512
     22 H           3.5539   -0.9115    0.2607 H       1  LIG1        0.0625
     23 H           3.5106    3.3635   -0.0049 H       1  LIG1        0.0836
     24 H           6.0392   -0.8159    0.1153 H       1  LIG1        0.0640
     25 C           7.5238    1.4851   -0.0807 C.ar    1  LIG1        0.1748
     26 C           8.5509    0.5729   -0.1209 C.ar    1  LIG1        0.1409
     27 C           9.7587    1.3429   -0.1722 C.ar    1  LIG1        0.1813
     28 C           9.3793    2.6485   -0.1570 C.ar    1  LIG1        0.1834
     29 O           8.0259    2.7180   -0.1086 O.2     1  LIG1       -0.4480
     30 N           8.3899   -2.0004   -0.1420 N.1     1  LIG1       -0.1906
     31 C           8.4695   -0.8549   -0.1314 C.1     1  LIG1        0.1067
     32 O          10.9958    0.8035   -0.2296 O.3     1  LIG1       -0.5023
     33 H          11.6248    1.4631   -0.5481 H       1  LIG1        0.2923
     34 C           9.9563    4.9227   -1.0724 C.ar    1  LIG1        0.2255
     35 C          10.2020    3.8630   -0.1667 C.ar    1  LIG1        0.0826
     36 C          11.2866    3.9944    0.6842 C.ar    1  LIG1       -0.0415
     37 C          12.0996    5.1367    0.6365 C.ar    1  LIG1       -0.0314
     38 C          11.7443    6.1048   -0.2877 C.ar    1  LIG1        0.0343
     39 N          10.7002    6.0049   -1.1222 N.ar    1  LIG1       -0.2205
     40 H          11.4888    3.2080    1.4051 H       1  LIG1        0.0629
     41 H          12.3237    7.0174   -0.3717 H       1  LIG1        0.0833
     42 O           8.9211    4.7872   -1.9041 O.3     1  LIG1       -0.4792
     43 C           8.6803    5.8544   -2.8186 C.3     1  LIG1        0.0804
     44 H           7.8003    5.5530   -3.3783 H       1  LIG1        0.0660
     45 H           8.4993    6.7809   -2.2751 H       1  LIG1        0.0660
     46 H           9.5392    5.9851   -3.4765 H       1  LIG1        0.0660
     47 C          13.2892    5.3032    1.5602 C.3     1  LIG1       -0.0383
     48 H          13.7512    6.2786    1.4103 H       1  LIG1        0.0278
     49 H          14.0365    4.5325    1.3659 H       1  LIG1        0.0278
     50 H          12.9754    5.2242    2.6018 H       1  LIG1        0.0278
@<TRIPOS>BOND
     1    46    43    1
     2    44    43    1
     3    43    45    1
     4    43    42    1
     5    11    10    1
     6    42    34    1
     7    10     1    1
     8     5     2    1
     9    39    34   ar
    10    39    38   ar
    11    34    35   ar
    12     2     1   ar
    13     2     4   ar
    14     1     3   ar
    15    33    32    1
    16    41    38    1
    17    38    37   ar
    18    32    27    1
    19    27    28   ar
    20    27    26   ar
    21    35    28    1
    22    35    36   ar
    23    28    29   ar
    24    30    31    3
    25    31    26    1
    26    26    25   ar
    27    29    25   ar
    28    25    20    1
    29    21    20   ar
    30    21    16   ar
    31    20    19   ar
    32    23    16    1
    33    16    17   ar
    34    19    24    1
    35    19    18   ar
    36    17    18   ar
    37    17     4    1
    38    18    22    1
    39     9     3    1
    40     4     7   ar
    41     3     6   ar
    42    37    36   ar
    43    37    47    1
    44    36    40    1
    45     6     7   ar
    46     6     8    1
    47     7    12    1
    48    49    47    1
    49    48    47    1
    50    47    50    1
    51    14    12    1
    52    12    15    1
    53    12    13    1
