@<TRIPOS>MOLECULE
mol_data/opt/m06hf/geoms/mol2/4fl.out
 17 17 0 0 0
SMALL
GASTEIGER

@<TRIPOS>ATOM
      1 C           0.0362   -0.0074    0.0004 C.ar    1  LIG1        0.1171
      2 C           1.4202   -0.0871    0.0001 C.ar    1  LIG1       -0.0167
      3 C          -0.5839    1.2452    0.0003 C.ar    1  LIG1       -0.0167
      4 C           2.1982    1.0752   -0.0004 C.ar    1  LIG1       -0.0165
      5 H           1.9090   -1.0546    0.0002 H       1  LIG1        0.0655
      6 C           0.1820    2.3956   -0.0002 C.ar    1  LIG1       -0.0165
      7 C           1.5801    2.3202   -0.0006 C.ar    1  LIG1        0.1203
      8 H          -0.2752    3.3756   -0.0003 H       1  LIG1        0.0655
      9 H           3.2750    0.9824   -0.0007 H       1  LIG1        0.0655
     10 H          -1.6644    1.2878    0.0006 H       1  LIG1        0.0655
     11 O          -0.7754   -1.1067    0.0009 O.3     1  LIG1       -0.5068
     12 H          -0.2483   -1.9120    0.0010 H       1  LIG1        0.2921
     13 O           2.2411    3.5115   -0.0010 O.3     1  LIG1       -0.4951
     14 C           3.6528    3.4794   -0.0014 C.3     1  LIG1        0.0788
     15 H           3.9759    4.5170   -0.0018 H       1  LIG1        0.0660
     16 H           4.0306    2.9762    0.8933 H       1  LIG1        0.0660
     17 H           4.0301    2.9758   -0.8962 H       1  LIG1        0.0660
@<TRIPOS>BOND
     1    17    14    1
     2    15    14    1
     3    14    13    1
     4    14    16    1
     5    13     7    1
     6     9     4    1
     7     7     4   ar
     8     7     6   ar
     9     4     2   ar
    10     8     6    1
    11     6     3   ar
    12     2     5    1
    13     2     1   ar
    14     3     1   ar
    15     3    10    1
    16     1    11    1
    17    11    12    1
