@<TRIPOS>MOLECULE
mol_data/opt/m06hf/geoms/mol2/4fl12ia-6ld-4eh-.out
 55 58 0 0 0
SMALL
GASTEIGER

@<TRIPOS>ATOM
      1 C          -0.2815    0.6391   -0.5303 C.ar    1  LIG1        0.1178
      2 C           1.0764    0.7750   -0.8079 C.ar    1  LIG1       -0.0060
      3 C          -0.7764    1.0810    0.6894 C.ar    1  LIG1       -0.0167
      4 C           1.9396    1.3394    0.1279 C.ar    1  LIG1        0.0626
      5 H           1.4788    0.4628   -1.7655 H       1  LIG1        0.0662
      6 C           0.0775    1.6484    1.6319 C.ar    1  LIG1       -0.0158
      7 C           1.4397    1.7785    1.3634 C.ar    1  LIG1        0.1310
      8 H          -0.3319    1.9776    2.5760 H       1  LIG1        0.0655
      9 H          -1.8339    0.9759    0.8887 H       1  LIG1        0.0655
     10 O          -1.1652    0.0944   -1.4179 O.3     1  LIG1       -0.5067
     11 H          -0.7133   -0.1544   -2.2304 H       1  LIG1        0.2921
     12 O           2.3433    2.2926    2.2337 O.3     1  LIG1       -0.4944
     13 C           1.8720    2.7611    3.4808 C.3     1  LIG1        0.0788
     14 H           2.7442    3.1458    4.0014 H       1  LIG1        0.0660
     15 H           1.1420    3.5628    3.3413 H       1  LIG1        0.0660
     16 H           1.4247    1.9468    4.0577 H       1  LIG1        0.0660
     17 C           3.3779    1.4401   -0.1900 C.ar    1  LIG1        0.1422
     18 C           4.2621    0.5034   -0.6387 C.ar    1  LIG1       -0.0040
     19 C           5.5038    1.2068   -0.8076 C.ar    1  LIG1       -0.0122
     20 C           5.2654    2.4963   -0.4449 C.ar    1  LIG1        0.1411
     21 O           3.9813    2.6427   -0.0708 O.2     1  LIG1       -0.4543
     22 C           4.0087   -0.9630   -0.8805 C.3     1  LIG1       -0.0361
     23 H           4.8010   -1.5566   -0.4235 H       1  LIG1        0.0279
     24 H           3.9901   -1.1837   -1.9495 H       1  LIG1        0.0279
     25 H           3.0548   -1.2563   -0.4431 H       1  LIG1        0.0279
     26 H           6.4364    0.8042   -1.1690 H       1  LIG1        0.0658
     27 C           5.7700    4.9526   -0.8055 C.ar    1  LIG1        0.2260
     28 C           6.1653    3.6577   -0.3852 C.ar    1  LIG1        0.0800
     29 C           7.4726    3.5193    0.0327 C.ar    1  LIG1       -0.0265
     30 C           8.3322    4.6278    0.0386 C.ar    1  LIG1        0.0786
     31 C           7.8310    5.8664   -0.3576 C.ar    1  LIG1        0.0934
     32 N           6.5715    5.9994   -0.7835 N.ar    1  LIG1       -0.2110
     33 H           7.8362    2.5548    0.3618 H       1  LIG1        0.0640
     34 O           4.5282    5.1029   -1.2553 O.3     1  LIG1       -0.4792
     35 C           4.1232    6.4172   -1.6375 C.3     1  LIG1        0.0804
     36 H           3.0854    6.3134   -1.9393 H       1  LIG1        0.0660
     37 H           4.2212    7.0980   -0.7934 H       1  LIG1        0.0660
     38 H           4.7380    6.7751   -2.4624 H       1  LIG1        0.0660
     39 N          10.8147    4.2368    0.6689 N.1     1  LIG1       -0.1908
     40 C           9.7178    4.4432    0.4023 C.1     1  LIG1        0.1013
     41 C           9.3318    7.5772    0.7498 C.ar    1  LIG1        0.0340
     42 C          10.1048    8.7380    0.6339 C.ar    1  LIG1       -0.0440
     43 C           8.6734    7.0996   -0.3921 C.ar    1  LIG1        0.0188
     44 C          10.2197    9.4052   -0.5731 C.ar    1  LIG1       -0.0399
     45 H          10.6119    9.1138    1.5120 H       1  LIG1        0.0630
     46 C           8.7674    7.7818   -1.5987 C.ar    1  LIG1       -0.0307
     47 C           9.5496    8.9353   -1.7119 C.ar    1  LIG1        0.0252
     48 H           8.2227    7.4061   -2.4564 H       1  LIG1        0.0643
     49 H          10.8217   10.3030   -0.6397 H       1  LIG1        0.0636
     50 C           9.1950    6.9354    2.0343 C.1     1  LIG1       -0.0690
     51 C           9.0916    6.4243    3.1172 C.1     1  LIG1       -0.1139
     52 H           9.0112    5.9561    4.0702 H       1  LIG1        0.1232
     53 N           9.6205    9.6276   -2.9131 N.pl3   1  LIG1       -0.3579
     54 H          10.4274   10.2225   -3.0316 H       1  LIG1        0.1423
     55 H           9.3985    9.0955   -3.7412 H       1  LIG1        0.1423
@<TRIPOS>BOND
     1    55    53    1
     2    54    53    1
     3    53    47    1
     4    38    35    1
     5    48    46    1
     6    11    10    1
     7    24    22    1
     8    36    35    1
     9     5     2    1
    10    47    46   ar
    11    47    44   ar
    12    35    34    1
    13    35    37    1
    14    46    43   ar
    15    10     1    1
    16    34    27    1
    17    26    19    1
    18    22    18    1
    19    22    25    1
    20    22    23    1
    21     2     1   ar
    22     2     4   ar
    23    19    18   ar
    24    19    20   ar
    25    27    32   ar
    26    27    28   ar
    27    32    31   ar
    28    49    44    1
    29    18    17   ar
    30    44    42   ar
    31     1     3   ar
    32    20    28    1
    33    20    21   ar
    34    43    31    1
    35    43    41   ar
    36    28    29   ar
    37    31    30   ar
    38    17    21   ar
    39    17     4    1
    40    29    30   ar
    41    29    33    1
    42    30    40    1
    43     4     7   ar
    44    40    39    3
    45    42    41   ar
    46    42    45    1
    47     3     9    1
    48     3     6   ar
    49    41    50    1
    50     7     6   ar
    51     7    12    1
    52     6     8    1
    53    50    51    3
    54    12    13    1
    55    51    52    1
    56    15    13    1
    57    13    14    1
    58    13    16    1
