@<TRIPOS>MOLECULE
mol_data/opt/m06hf/geoms/mol2/4fl13hh-6fa-4df-.out
 51 54 0 0 0
SMALL
GASTEIGER

@<TRIPOS>ATOM
      1 C          -0.1403    0.0211    0.4111 C.ar    1  LIG1        0.1177
      2 C           1.2401    0.0187    0.2481 C.ar    1  LIG1       -0.0075
      3 C          -0.8370    1.2227    0.4363 C.ar    1  LIG1       -0.0167
      4 C           1.9468    1.2146    0.1051 C.ar    1  LIG1        0.0452
      5 H           1.8020   -0.9092    0.2173 H       1  LIG1        0.0662
      6 C          -0.1466    2.4219    0.2989 C.ar    1  LIG1       -0.0159
      7 C           1.2357    2.4282    0.1325 C.ar    1  LIG1        0.1295
      8 H          -0.6998    3.3499    0.3241 H       1  LIG1        0.0655
      9 H          -1.9100    1.2052    0.5652 H       1  LIG1        0.0655
     10 O          -0.8585   -1.1309    0.5489 O.3     1  LIG1       -0.5067
     11 H          -0.2685   -1.8918    0.5362 H       1  LIG1        0.2921
     12 O           1.9600    3.5859   -0.0045 O.3     1  LIG1       -0.4944
     13 C           1.2632    4.8170   -0.0904 C.3     1  LIG1        0.0788
     14 H           2.0244    5.5733   -0.2627 H       1  LIG1        0.0660
     15 H           0.5612    4.7990   -0.9267 H       1  LIG1        0.0660
     16 H           0.7340    5.0261    0.8417 H       1  LIG1        0.0660
     17 C           3.4123    1.1622   -0.0668 C.ar    1  LIG1        0.0733
     18 C           4.2522    0.0964   -0.3637 C.ar    1  LIG1        0.0719
     19 C           5.5853    0.5923   -0.3902 C.ar    1  LIG1        0.0719
     20 C           5.5294    1.9402   -0.0955 C.ar    1  LIG1        0.0748
     21 N           4.2035    2.2623    0.0777 N.ar    1  LIG1       -0.3510
     22 H           3.8398    3.1479    0.4038 H       1  LIG1        0.1660
     23 N           3.8731   -1.2569   -0.5965 N.pl3   1  LIG1       -0.3549
     24 H           3.7716   -1.4618   -1.5870 H       1  LIG1        0.1424
     25 H           4.5656   -1.8857   -0.1997 H       1  LIG1        0.1424
     26 N           6.7168   -0.2015   -0.6550 N.pl3   1  LIG1       -0.3549
     27 H           6.5603   -0.8147   -1.4483 H       1  LIG1        0.1424
     28 H           7.5466    0.3571   -0.8241 H       1  LIG1        0.1424
     29 C           6.4500    4.2196   -0.5992 C.ar    1  LIG1        0.2223
     30 C           6.6005    2.9379   -0.0154 C.ar    1  LIG1        0.0615
     31 C           7.8105    2.6802    0.6135 C.ar    1  LIG1       -0.0454
     32 C           8.8160    3.6467    0.6347 C.ar    1  LIG1       -0.0348
     33 C           8.5615    4.8646    0.0152 C.ar    1  LIG1        0.0762
     34 N           7.3876    5.1357   -0.5723 N.ar    1  LIG1       -0.2124
     35 H           7.9509    1.7295    1.1142 H       1  LIG1        0.0626
     36 O           5.2989    4.5766   -1.2116 O.3     1  LIG1       -0.4919
     37 H           4.7566    3.7934   -1.3834 H       1  LIG1        0.2937
     38 H           9.7483    3.4515    1.1411 H       1  LIG1        0.0639
     39 C          10.9359    5.8433    0.0533 C.ar    1  LIG1        0.0611
     40 C          11.7737    6.9658    0.0445 C.ar    1  LIG1       -0.0403
     41 C           9.5429    5.9970   -0.0067 C.ar    1  LIG1        0.0213
     42 C          11.2461    8.2407   -0.0325 C.ar    1  LIG1       -0.0189
     43 H          12.8442    6.8184    0.0881 H       1  LIG1        0.0632
     44 C           9.0226    7.2859   -0.1061 C.ar    1  LIG1       -0.0098
     45 C           9.8607    8.3959   -0.1182 C.ar    1  LIG1        0.1176
     46 H           7.9471    7.3920   -0.1870 H       1  LIG1        0.0661
     47 H          11.8747    9.1195   -0.0413 H       1  LIG1        0.0654
     48 N          12.1409    3.5451    0.0986 N.1     1  LIG1       -0.1908
     49 C          11.5833    4.5490    0.0764 C.1     1  LIG1        0.0998
     50 O           9.3837    9.6598   -0.2075 O.3     1  LIG1       -0.5067
     51 H           8.4249    9.6576   -0.3002 H       1  LIG1        0.2921
@<TRIPOS>BOND
     1    24    23    1
     2    27    26    1
     3    37    36    1
     4    36    29    1
     5    15    13    1
     6    28    26    1
     7    26    19    1
     8    29    34   ar
     9    29    30   ar
    10    23    18    1
    11    23    25    1
    12    34    33   ar
    13    19    18   ar
    14    19    20   ar
    15    18    17   ar
    16    51    50    1
    17    14    13    1
    18    50    45    1
    19    46    44    1
    20    45    44   ar
    21    45    42   ar
    22    44    41   ar
    23    20    30    1
    24    20    21   ar
    25    13    12    1
    26    13    16    1
    27    17    21   ar
    28    17     4    1
    29    47    42    1
    30    42    40   ar
    31    30    31   ar
    32    41    33    1
    33    41    39   ar
    34    12     7    1
    35    33    32   ar
    36    40    39   ar
    37    40    43    1
    38    39    49    1
    39    49    48    3
    40    21    22    1
    41     4     7   ar
    42     4     2   ar
    43     7     6   ar
    44     5     2    1
    45     2     1   ar
    46     6     8    1
    47     6     3   ar
    48     1     3   ar
    49     1    10    1
    50     3     9    1
    51    11    10    1
    52    31    32   ar
    53    31    35    1
    54    32    38    1
