@<TRIPOS>MOLECULE
mol_data/opt/m06hf/geoms/mol2/4fl13el-12ha-13fa-.out
 49 52 0 0 0
SMALL
GASTEIGER

@<TRIPOS>ATOM
      1 C          -0.2148    0.2509   -0.7224 C.ar    1  LIG1        0.1177
      2 C           1.1723    0.1660   -0.7041 C.ar    1  LIG1       -0.0075
      3 C          -0.8584    1.4338   -0.3599 C.ar    1  LIG1       -0.0167
      4 C           1.9456    1.2597   -0.3032 C.ar    1  LIG1        0.0447
      5 H           1.6681   -0.7496   -1.0032 H       1  LIG1        0.0662
      6 C          -0.0957    2.5252    0.0289 C.ar    1  LIG1       -0.0159
      7 C           1.2913    2.4441    0.0601 C.ar    1  LIG1        0.1294
      8 H          -0.5586    3.4630    0.3074 H       1  LIG1        0.0655
      9 H          -1.9380    1.4745   -0.3963 H       1  LIG1        0.0655
     10 O          -0.9996   -0.7952   -1.1038 O.3     1  LIG1       -0.5067
     11 H          -0.4558   -1.5486   -1.3558 H       1  LIG1        0.2921
     12 O           2.0141    3.5568    0.4544 O.3     1  LIG1       -0.4944
     13 C           2.3074    3.5605    1.8556 C.3     1  LIG1        0.0788
     14 H           2.8977    4.4541    2.0461 H       1  LIG1        0.0660
     15 H           1.3776    3.5930    2.4256 H       1  LIG1        0.0660
     16 H           2.8781    2.6689    2.1220 H       1  LIG1        0.0660
     17 C           3.4150    1.1573   -0.2868 C.ar    1  LIG1        0.0699
     18 C           4.2546    0.0487   -0.2169 C.ar    1  LIG1        0.0923
     19 C           5.5906    0.5414   -0.2563 C.ar    1  LIG1        0.1643
     20 C           5.5348    1.9183   -0.3420 C.ar    1  LIG1        0.1278
     21 N           4.2135    2.2559   -0.3639 N.ar    1  LIG1       -0.3477
     22 H           3.8481    3.1980   -0.4089 H       1  LIG1        0.1661
     23 C           3.9044   -1.3326   -0.0870 C.1     1  LIG1       -0.0638
     24 C           3.6411   -2.5005    0.0349 C.1     1  LIG1       -0.1137
     25 H           3.4142   -3.5349    0.1486 H       1  LIG1        0.1232
     26 O           6.7236   -0.2202   -0.2021 O.3     1  LIG1       -0.4916
     27 C           7.0994   -0.5794    1.1325 C.3     1  LIG1        0.0789
     28 H           7.9888   -1.1984    1.0401 H       1  LIG1        0.0660
     29 H           7.3263    0.3218    1.7040 H       1  LIG1        0.0660
     30 H           6.2920   -1.1416    1.6023 H       1  LIG1        0.0660
     31 C           6.5629    2.9386   -0.3950 C.ar    1  LIG1        0.1760
     32 C           7.9250    2.9170   -0.4781 C.ar    1  LIG1        0.0732
     33 C           8.3454    4.2966   -0.4820 C.ar    1  LIG1        0.0072
     34 C           7.2100    5.0378   -0.4106 C.ar    1  LIG1        0.1572
     35 O           6.1214    4.2372   -0.3484 O.2     1  LIG1       -0.4497
     36 N           8.7705    1.8112   -0.5002 N.pl3   1  LIG1       -0.3550
     37 H           8.2917    0.9465   -0.7315 H       1  LIG1        0.1424
     38 H           9.6030    1.9586   -1.0540 H       1  LIG1        0.1424
     39 H           9.3497    4.6805   -0.5315 H       1  LIG1        0.0675
     40 C           6.9658    6.4646   -0.3895 C.ar    1  LIG1        0.1241
     41 C           7.8535    7.5179   -0.3925 C.ar    1  LIG1        0.1450
     42 C           7.1055    8.7239   -0.3684 C.ar    1  LIG1       -0.0021
     43 C           5.7766    8.3572   -0.3522 C.ar    1  LIG1        0.0058
     44 N           5.7044    7.0031   -0.3662 N.ar    1  LIG1       -0.3553
     45 H           4.8621    6.4503   -0.3732 H       1  LIG1        0.1655
     46 H           4.8893    8.9654   -0.3347 H       1  LIG1        0.0808
     47 O           9.2067    7.3455   -0.4254 O.3     1  LIG1       -0.5045
     48 H           9.6461    8.1914   -0.2964 H       1  LIG1        0.2922
     49 H           7.4918    9.7294   -0.3665 H       1  LIG1        0.0669
@<TRIPOS>BOND
     1    11    10    1
     2    10     1    1
     3    38    36    1
     4     5     2    1
     5    37    36    1
     6     1     2   ar
     7     1     3   ar
     8     2     4   ar
     9    39    33    1
    10    36    32    1
    11    33    32   ar
    12    33    34   ar
    13    32    31   ar
    14    47    41    1
    15    47    48    1
    16    34    40    1
    17    34    35   ar
    18    22    21    1
    19     9     3    1
    20    31    35   ar
    21    31    20    1
    22    41    40   ar
    23    41    42   ar
    24    40    44   ar
    25    45    44    1
    26    42    49    1
    27    42    43   ar
    28    44    43   ar
    29    21    20   ar
    30    21    17   ar
    31     3     6   ar
    32    43    46    1
    33    20    19   ar
    34     4    17    1
    35     4     7   ar
    36    17    18   ar
    37    19    18   ar
    38    19    26    1
    39    18    23    1
    40    26    27    1
    41    23    24    3
    42     6     7   ar
    43     6     8    1
    44    24    25    1
    45     7    12    1
    46    12    13    1
    47    28    27    1
    48    27    30    1
    49    27    29    1
    50    13    14    1
    51    13    16    1
    52    13    15    1
