@<TRIPOS>MOLECULE
mol_data/opt/m06hf/geoms/mol2/4fl6hi-6dh-6ia.out
 55 58 0 0 0
SMALL
GASTEIGER

@<TRIPOS>ATOM
      1 C          -0.0309    0.1927   -1.0863 C.ar    1  LIG1        0.1177
      2 C           1.3516    0.2827   -0.9491 C.ar    1  LIG1       -0.0089
      3 C          -0.8352    1.2281   -0.6271 C.ar    1  LIG1       -0.0167
      4 C           1.9474    1.3971   -0.3597 C.ar    1  LIG1        0.0305
      5 H           1.9900   -0.5138   -1.3161 H       1  LIG1        0.0661
      6 C          -0.2573    2.3490   -0.0405 C.ar    1  LIG1       -0.0159
      7 C           1.1269    2.4393    0.0947 C.ar    1  LIG1        0.1281
      8 H          -0.8977    3.1455    0.3111 H       1  LIG1        0.0655
      9 H          -1.9075    1.1462   -0.7414 H       1  LIG1        0.0655
     10 O          -0.6440   -0.8815   -1.6625 O.3     1  LIG1       -0.5067
     11 H           0.0105   -1.5118   -1.9796 H       1  LIG1        0.2921
     12 O           1.7609    3.5130    0.6526 O.3     1  LIG1       -0.4945
     13 C           0.9755    4.4897    1.3144 C.3     1  LIG1        0.0788
     14 H           1.6829    5.1854    1.7570 H       1  LIG1        0.0660
     15 H           0.3315    5.0162    0.6060 H       1  LIG1        0.0660
     16 H           0.3711    4.0229    2.0953 H       1  LIG1        0.0660
     17 C           4.2745    2.4210   -0.6989 C.ar    1  LIG1        0.1247
     18 C           3.4295    1.4061   -0.1815 C.ar    1  LIG1        0.0255
     19 C           4.0436    0.3468    0.4658 C.ar    1  LIG1       -0.0457
     20 C           5.4342    0.2518    0.5923 C.ar    1  LIG1       -0.0237
     21 C           6.1566    1.2880    0.0029 C.ar    1  LIG1        0.0788
     22 N           5.5959    2.3279   -0.6117 N.ar    1  LIG1       -0.2315
     23 H           3.4166   -0.4226    0.9047 H       1  LIG1        0.0628
     24 N           3.7792    3.5137   -1.3673 N.pl3   1  LIG1       -0.3426
     25 H           4.4943    4.2109   -1.5276 H       1  LIG1        0.1437
     26 H           2.9125    3.8787   -0.9941 H       1  LIG1        0.1437
     27 C           6.0635   -0.8943    1.3639 C.3     1  LIG1       -0.0377
     28 H           6.9986   -0.5834    1.8287 H       1  LIG1        0.0278
     29 H           6.2677   -1.7487    0.7145 H       1  LIG1        0.0278
     30 H           5.3796   -1.2225    2.1469 H       1  LIG1        0.0278
     31 C           8.3335    2.4793    0.4613 C.ar    1  LIG1        0.1500
     32 C           7.6520    1.3336    0.0341 C.ar    1  LIG1        0.0383
     33 C           8.4216    0.2648   -0.4036 C.ar    1  LIG1       -0.0270
     34 C           9.8164    0.3495   -0.4019 C.ar    1  LIG1        0.0517
     35 C          10.3958    1.5453    0.0816 C.ar    1  LIG1        0.0947
     36 N           9.6584    2.5689    0.4867 N.ar    1  LIG1       -0.2338
     37 H           7.9348   -0.6283   -0.7768 H       1  LIG1        0.0644
     38 N           7.0724    4.5852    1.3321 N.1     1  LIG1       -0.1893
     39 C           7.6120    3.6539    0.9368 C.1     1  LIG1        0.1198
     40 N          10.6007   -0.7013   -0.8344 N.pl3   1  LIG1       -0.3563
     41 H          10.1469   -1.3787   -1.4293 H       1  LIG1        0.1424
     42 H          11.5399   -0.4610   -1.1214 H       1  LIG1        0.1424
     43 C          12.5192    2.8004   -0.4637 C.ar    1  LIG1        0.0474
     44 C          11.8805    1.7033    0.1433 C.ar    1  LIG1        0.0232
     45 C          12.6573    0.7702    0.8281 C.ar    1  LIG1       -0.0494
     46 C          14.0343    0.9496    0.8951 C.ar    1  LIG1       -0.0430
     47 C          14.5733    2.0641    0.2640 C.ar    1  LIG1        0.0279
     48 N          13.8408    2.9593   -0.3970 N.ar    1  LIG1       -0.2595
     49 H          12.1806   -0.0786    1.3051 H       1  LIG1        0.0625
     50 H          15.6407    2.2489    0.2861 H       1  LIG1        0.0829
     51 C          11.7502    3.8625   -1.2215 C.3     1  LIG1       -0.0217
     52 H          11.2023    4.4915   -0.5197 H       1  LIG1        0.0293
     53 H          11.0256    3.4086   -1.8993 H       1  LIG1        0.0293
     54 H          12.4678    4.4592   -1.7794 H       1  LIG1        0.0293
     55 H          14.6697    0.2527    1.4234 H       1  LIG1        0.0633
@<TRIPOS>BOND
     1    11    10    1
     2    53    51    1
     3    54    51    1
     4    10     1    1
     5    25    24    1
     6    41    40    1
     7    24    26    1
     8    24    17    1
     9     5     2    1
    10    51    52    1
    11    51    43    1
    12    42    40    1
    13     1     2   ar
    14     1     3   ar
    15     2     4   ar
    16    40    34    1
    17    37    33    1
    18     9     3    1
    19    17    22   ar
    20    17    18   ar
    21     3     6   ar
    22    22    21   ar
    23    43    48   ar
    24    43    44   ar
    25    33    34   ar
    26    33    32   ar
    27    34    35   ar
    28    48    47   ar
    29     4    18    1
    30     4     7   ar
    31    18    19   ar
    32     6     7   ar
    33     6     8    1
    34    21    32    1
    35    21    20   ar
    36    32    31   ar
    37    35    44    1
    38    35    36   ar
    39     7    12    1
    40    44    45   ar
    41    47    50    1
    42    47    46   ar
    43    31    36   ar
    44    31    39    1
    45    19    20   ar
    46    19    23    1
    47    20    27    1
    48    15    13    1
    49    12    13    1
    50    29    27    1
    51    45    46   ar
    52    45    49    1
    53    46    55    1
    54    39    38    3
    55    13    14    1
    56    13    16    1
    57    27    28    1
    58    27    30    1
