@<TRIPOS>MOLECULE
mol_data/opt/m06hf/geoms/mol2/4ga.out
 13 13 0 0 0
SMALL
GASTEIGER

@<TRIPOS>ATOM
      1 C           0.1318    0.1010   -0.0295 C.ar    1  LIG1        0.0047
      2 C           1.5262    0.0921   -0.0271 C.ar    1  LIG1       -0.0486
      3 C          -0.5539    1.3164   -0.0115 C.ar    1  LIG1       -0.0486
      4 C           2.2271    1.2945   -0.0018 C.ar    1  LIG1       -0.0607
      5 H           2.0668   -0.8456   -0.0478 H       1  LIG1        0.0628
      6 C           0.1538    2.5133    0.0058 C.ar    1  LIG1       -0.0607
      7 C           1.5463    2.5080    0.0127 C.ar    1  LIG1       -0.0617
      8 H          -0.3866    3.4506    0.0185 H       1  LIG1        0.0618
      9 H           3.3091    1.2777    0.0032 H       1  LIG1        0.0618
     10 H          -1.6368    1.3241   -0.0068 H       1  LIG1        0.0628
     11 S          -0.8420   -1.3912   -0.0756 S.3     1  LIG1       -0.1426
     12 H           0.1716   -2.2379    0.1303 H       1  LIG1        0.1071
     13 H           2.0949    3.4402    0.0299 H       1  LIG1        0.0618
@<TRIPOS>BOND
     1    11     1    1
     2    11    12    1
     3     5     2    1
     4     1     2   ar
     5     1     3   ar
     6     2     4   ar
     7     3    10    1
     8     3     6   ar
     9     4     9    1
    10     4     7   ar
    11     6     7   ar
    12     6     8    1
    13     7    13    1
