@<TRIPOS>MOLECULE
mol_data/opt/m06hf/geoms/mol2/4ga4ga.out
 24 25 0 0 0
SMALL
GASTEIGER

@<TRIPOS>ATOM
      1 C          -0.0169    0.2541    0.4814 C.ar    1  LIG1        0.0053
      2 C           1.3727    0.2382    0.5885 C.ar    1  LIG1       -0.0408
      3 C          -0.6481    1.2720   -0.2328 C.ar    1  LIG1       -0.0485
      4 C           2.1353    1.2233   -0.0405 C.ar    1  LIG1       -0.0158
      5 H           1.8709   -0.5302    1.1679 H       1  LIG1        0.0635
      6 C           0.1124    2.2701   -0.8340 C.ar    1  LIG1       -0.0602
      7 C           1.5005    2.2465   -0.7466 C.ar    1  LIG1       -0.0539
      8 H          -0.3811    3.0578   -1.3877 H       1  LIG1        0.0618
      9 H          -1.7266    1.2752   -0.3254 H       1  LIG1        0.0628
     10 S          -1.0393   -0.9690    1.2824 S.3     1  LIG1       -0.1426
     11 H          -0.1357   -1.9515    1.2611 H       1  LIG1        0.1071
     12 H           2.0990    3.0053   -1.2340 H       1  LIG1        0.0624
     13 C           4.3715    0.1234   -0.4474 C.ar    1  LIG1        0.0124
     14 C           5.7621    0.1276   -0.3248 C.ar    1  LIG1       -0.0480
     15 C           3.6269    1.1942    0.0649 C.ar    1  LIG1       -0.0047
     16 C           6.4122    1.1932    0.2872 C.ar    1  LIG1       -0.0607
     17 H           6.3413   -0.7007   -0.7126 H       1  LIG1        0.0629
     18 C           4.2950    2.2578    0.6745 C.ar    1  LIG1       -0.0530
     19 C           5.6805    2.2658    0.7879 C.ar    1  LIG1       -0.0611
     20 H           3.7070    3.0766    1.0699 H       1  LIG1        0.0624
     21 H           7.4908    1.1804    0.3717 H       1  LIG1        0.0618
     22 S           3.5098   -1.2055   -1.2725 S.3     1  LIG1       -0.1420
     23 H           4.6158   -1.7955   -1.7360 H       1  LIG1        0.1071
     24 H           6.1817    3.0967    1.2658 H       1  LIG1        0.0618
@<TRIPOS>BOND
     1    23    22    1
     2     8     6    1
     3    22    13    1
     4    12     7    1
     5     6     7   ar
     6     6     3   ar
     7     7     4   ar
     8    17    14    1
     9    13    14   ar
    10    13    15   ar
    11     9     3    1
    12    14    16   ar
    13     3     1   ar
    14     4    15    1
    15     4     2   ar
    16    15    18   ar
    17    16    21    1
    18    16    19   ar
    19     1     2   ar
    20     1    10    1
    21     2     5    1
    22    18    19   ar
    23    18    20    1
    24    19    24    1
    25    11    10    1
