@<TRIPOS>MOLECULE
mol_data/opt/m06hf/geoms/mol2/4ga4ga4ga-4ga-.out
 46 49 0 0 0
SMALL
GASTEIGER

@<TRIPOS>ATOM
      1 C          -0.2390    0.3481    0.5300 C.ar    1  LIG1        0.0053
      2 C           1.1517    0.2819    0.5943 C.ar    1  LIG1       -0.0408
      3 C          -0.8562    1.3794   -0.1764 C.ar    1  LIG1       -0.0485
      4 C           1.9284    1.2307   -0.0718 C.ar    1  LIG1       -0.0158
      5 H           1.6384   -0.4991    1.1663 H       1  LIG1        0.0635
      6 C          -0.0803    2.3435   -0.8130 C.ar    1  LIG1       -0.0602
      7 C           1.3076    2.2682   -0.7704 C.ar    1  LIG1       -0.0539
      8 H          -0.5619    3.1430   -1.3605 H       1  LIG1        0.0618
      9 H          -1.9365    1.4172   -0.2365 H       1  LIG1        0.0628
     10 S          -1.2738   -0.8334    1.3811 S.3     1  LIG1       -0.1426
     11 H          -0.4727   -1.8858    1.1956 H       1  LIG1        0.1071
     12 H           1.9171    2.9989   -1.2865 H       1  LIG1        0.0624
     13 C           4.1182    0.0686   -0.5619 C.ar    1  LIG1        0.0130
     14 C           5.5119    0.0457   -0.5162 C.ar    1  LIG1       -0.0402
     15 C           3.4210    1.1563   -0.0187 C.ar    1  LIG1       -0.0047
     16 C           6.2225    1.0914    0.0737 C.ar    1  LIG1       -0.0158
     17 H           6.0597   -0.7776   -0.9594 H       1  LIG1        0.0635
     18 C           4.1419    2.2027    0.5586 C.ar    1  LIG1       -0.0524
     19 C           5.5296    2.1765    0.6117 C.ar    1  LIG1       -0.0534
     20 H           3.5945    3.0350    0.9832 H       1  LIG1        0.0624
     21 S           3.1913   -1.2343   -1.3522 S.3     1  LIG1       -0.1420
     22 H           4.2632   -1.9601   -1.6847 H       1  LIG1        0.1071
     23 H           6.0783    2.9837    1.0797 H       1  LIG1        0.0624
     24 C           8.4359    0.0287    0.6989 C.ar    1  LIG1        0.0130
     25 C           9.8304    0.0513    0.6844 C.ar    1  LIG1       -0.0402
     26 C           7.7170    1.0700    0.0936 C.ar    1  LIG1       -0.0047
     27 C          10.5226    1.0987    0.0764 C.ar    1  LIG1       -0.0158
     28 H          10.3937   -0.7419    1.1619 H       1  LIG1        0.0635
     29 C           8.4202    2.1215   -0.4978 C.ar    1  LIG1       -0.0524
     30 C           9.8086    2.1437   -0.5113 C.ar    1  LIG1       -0.0534
     31 H           7.8580    2.9173   -0.9706 H       1  LIG1        0.0624
     32 S           7.5411   -1.2816    1.5148 S.3     1  LIG1       -0.1420
     33 H           8.6302   -1.8899    1.9932 H       1  LIG1        0.1071
     34 H          10.3426    2.9534   -0.9919 H       1  LIG1        0.0624
     35 C          12.7616    0.0904   -0.5272 C.ar    1  LIG1        0.0124
     36 C          14.1565    0.1451   -0.5049 C.ar    1  LIG1       -0.0480
     37 C          12.0179    1.1151    0.0742 C.ar    1  LIG1       -0.0047
     38 C          14.8101    1.2160    0.0943 C.ar    1  LIG1       -0.0607
     39 H          14.7357   -0.6466   -0.9632 H       1  LIG1        0.0629
     40 C          12.6899    2.1853    0.6687 C.ar    1  LIG1       -0.0530
     41 C          14.0783    2.2440    0.6810 C.ar    1  LIG1       -0.0611
     42 H          12.1032    2.9685    1.1327 H       1  LIG1        0.0624
     43 H          15.8919    1.2438    0.0994 H       1  LIG1        0.0618
     44 S          11.8903   -1.2377   -1.3396 S.3     1  LIG1       -0.1420
     45 H          12.9848   -1.7940   -1.8689 H       1  LIG1        0.1071
     46 H          14.5824    3.0794    1.1475 H       1  LIG1        0.0618
@<TRIPOS>BOND
     1    45    44    1
     2    22    21    1
     3     8     6    1
     4    21    13    1
     5    44    35    1
     6    12     7    1
     7    34    30    1
     8    31    29    1
     9    39    36    1
    10    17    14    1
    11     6     7   ar
    12     6     3   ar
    13     7     4   ar
    14    13    14   ar
    15    13    15   ar
    16    35    36   ar
    17    35    37   ar
    18    14    16   ar
    19    30    29   ar
    20    30    27   ar
    21    36    38   ar
    22    29    26   ar
    23     9     3    1
    24     3     1   ar
    25     4    15    1
    26     4     2   ar
    27    15    18   ar
    28    16    26    1
    29    16    19   ar
    30    37    27    1
    31    37    40   ar
    32    27    25   ar
    33    26    24   ar
    34    38    43    1
    35    38    41   ar
    36     1     2   ar
    37     1    10    1
    38    18    19   ar
    39    18    20    1
    40     2     5    1
    41    19    23    1
    42    40    41   ar
    43    40    42    1
    44    41    46    1
    45    25    24   ar
    46    25    28    1
    47    24    32    1
    48    11    10    1
    49    32    33    1
