@<TRIPOS>MOLECULE
mol_data/opt/m06hf/geoms/mol2/4ga4ga-4ga-4ga.out
 46 49 0 0 0
SMALL
GASTEIGER

@<TRIPOS>ATOM
      1 C          -0.2116    0.0824   -0.1872 C.ar    1  LIG1        0.0053
      2 C           1.1795    0.0324   -0.1360 C.ar    1  LIG1       -0.0408
      3 C          -0.8606    1.3161   -0.2555 C.ar    1  LIG1       -0.0485
      4 C           1.9249    1.2129   -0.1289 C.ar    1  LIG1       -0.0158
      5 H           1.6973   -0.9185   -0.1048 H       1  LIG1        0.0635
      6 C          -0.1157    2.4896   -0.2678 C.ar    1  LIG1       -0.0602
      7 C           1.2737    2.4446   -0.1993 C.ar    1  LIG1       -0.0539
      8 H          -0.6230    3.4438   -0.3183 H       1  LIG1        0.0618
      9 H          -1.9424    1.3556   -0.2928 H       1  LIG1        0.0628
     10 S          -1.2163   -1.3898   -0.1783 S.3     1  LIG1       -0.1426
     11 H          -0.2204   -2.2413    0.0853 H       1  LIG1        0.1071
     12 H           1.8560    3.3570   -0.1854 H       1  LIG1        0.0624
     13 C           4.0904    0.5489    0.9995 C.ar    1  LIG1        0.0130
     14 C           5.4847    0.5172    1.0124 C.ar    1  LIG1       -0.0402
     15 C           3.4181    1.1538   -0.0720 C.ar    1  LIG1       -0.0047
     16 C           6.2206    1.0811   -0.0297 C.ar    1  LIG1       -0.0158
     17 H           6.0144    0.0681    1.8443 H       1  LIG1        0.0635
     18 C           4.1660    1.7254   -1.1037 C.ar    1  LIG1       -0.0524
     19 C           5.5545    1.6944   -1.0906 C.ar    1  LIG1       -0.0534
     20 H           3.6383    2.1808   -1.9323 H       1  LIG1        0.0624
     21 S           3.1357   -0.1183    2.3511 S.3     1  LIG1       -0.1420
     22 H           4.1937   -0.5467    3.0456 H       1  LIG1        0.1071
     23 H           6.1245    2.1237   -1.9044 H       1  LIG1        0.0624
     24 C           8.4186   -0.1635   -0.0268 C.ar    1  LIG1        0.0130
     25 C           9.8125   -0.1564    0.0307 C.ar    1  LIG1       -0.0402
     26 C           7.7147    1.0474    0.0086 C.ar    1  LIG1       -0.0047
     27 C          10.5162    1.0461    0.0910 C.ar    1  LIG1       -0.0158
     28 H          10.3633   -1.0894    0.0349 H       1  LIG1        0.0635
     29 C           8.4280    2.2456    0.0731 C.ar    1  LIG1       -0.0524
     30 C           9.8164    2.2534    0.1097 C.ar    1  LIG1       -0.0534
     31 H           7.8751    3.1761    0.0974 H       1  LIG1        0.0624
     32 S           7.5028   -1.6889   -0.1655 S.3     1  LIG1       -0.1420
     33 H           8.5663   -2.4317   -0.4875 H       1  LIG1        0.1071
     34 H          10.3619    3.1875    0.1461 H       1  LIG1        0.0624
     35 C          12.7898    0.4945   -0.8674 C.ar    1  LIG1        0.0124
     36 C          14.1815    0.5024   -0.7563 C.ar    1  LIG1       -0.0480
     37 C          12.0098    1.0394    0.1617 C.ar    1  LIG1       -0.0047
     38 C          14.7961    1.0608    0.3586 C.ar    1  LIG1       -0.0607
     39 H          14.7891    0.0756   -1.5443 H       1  LIG1        0.0629
     40 C          12.6426    1.5991    1.2735 C.ar    1  LIG1       -0.0530
     41 C          14.0283    1.6146    1.3789 C.ar    1  LIG1       -0.0611
     42 H          12.0267    2.0129    2.0624 H       1  LIG1        0.0624
     43 H          15.8761    1.0600    0.4276 H       1  LIG1        0.0618
     44 S          11.9688   -0.1695   -2.3070 S.3     1  LIG1       -0.1420
     45 H          13.0883   -0.3142   -3.0242 H       1  LIG1        0.1071
     46 H          14.5027    2.0485    2.2488 H       1  LIG1        0.0618
@<TRIPOS>BOND
     1    45    44    1
     2    44    35    1
     3    20    18    1
     4    23    19    1
     5    39    36    1
     6    18    19   ar
     7    18    15   ar
     8    19    16   ar
     9    35    36   ar
    10    35    37   ar
    11    36    38   ar
    12    33    32    1
    13     8     6    1
    14     9     3    1
    15     6     3   ar
    16     6     7   ar
    17     3     1   ar
    18     7    12    1
    19     7     4   ar
    20     1    10    1
    21     1     2   ar
    22    10    11    1
    23    32    24    1
    24     2     4   ar
    25     2     5    1
    26     4    15    1
    27    15    13   ar
    28    16    26    1
    29    16    14   ar
    30    24    26   ar
    31    24    25   ar
    32    26    29   ar
    33    25    28    1
    34    25    27   ar
    35    29    31    1
    36    29    30   ar
    37    27    30   ar
    38    27    37    1
    39    30    34    1
    40    37    40   ar
    41    38    43    1
    42    38    41   ar
    43    13    14   ar
    44    13    21    1
    45    14    17    1
    46    40    41   ar
    47    40    42    1
    48    41    46    1
    49    21    22    1
