@<TRIPOS>MOLECULE
mol_data/opt/m06hf/geoms/mol2/4ga4ga4ga-.out
 35 37 0 0 0
SMALL
GASTEIGER

@<TRIPOS>ATOM
      1 C          -0.0928    0.1758    0.4898 C.ar    1  LIG1        0.0053
      2 C           1.2997    0.1376    0.4786 C.ar    1  LIG1       -0.0408
      3 C          -0.7607    1.3062    0.0158 C.ar    1  LIG1       -0.0485
      4 C           2.0266    1.2234   -0.0146 C.ar    1  LIG1       -0.0158
      5 H           1.8336   -0.7258    0.8566 H       1  LIG1        0.0635
      6 C          -0.0341    2.3914   -0.4605 C.ar    1  LIG1       -0.0602
      7 C           1.3571    2.3546   -0.4807 C.ar    1  LIG1       -0.0539
      8 H          -0.5570    3.2645   -0.8276 H       1  LIG1        0.0618
      9 H          -1.8434    1.3334    0.0181 H       1  LIG1        0.0628
     10 S          -1.0800   -1.1680    1.1153 S.3     1  LIG1       -0.1426
     11 H          -0.0780   -2.0376    1.2566 H       1  LIG1        0.1071
     12 H           1.9274    3.1894   -0.8673 H       1  LIG1        0.0624
     13 C           4.2189    0.2480   -0.8044 C.ar    1  LIG1        0.0130
     14 C           5.6133    0.2365   -0.7882 C.ar    1  LIG1       -0.0402
     15 C           3.5217    1.1783   -0.0218 C.ar    1  LIG1       -0.0047
     16 C           6.3241    1.1401    0.0019 C.ar    1  LIG1       -0.0158
     17 H           6.1625   -0.4665   -1.4033 H       1  LIG1        0.0635
     18 C           4.2423    2.0873    0.7542 C.ar    1  LIG1       -0.0524
     19 C           5.6314    2.0740    0.7727 C.ar    1  LIG1       -0.0534
     20 H           3.6936    2.7973    1.3604 H       1  LIG1        0.0624
     21 S           3.2873   -0.8645   -1.8418 S.3     1  LIG1       -0.1420
     22 H           4.3607   -1.4500   -2.3813 H       1  LIG1        0.1071
     23 H           6.1820    2.7697    1.3925 H       1  LIG1        0.0624
     24 C           8.5404   -0.0024    0.4184 C.ar    1  LIG1        0.0124
     25 C           9.9359    0.0216    0.3930 C.ar    1  LIG1       -0.0480
     26 C           7.8196    1.1240   -0.0018 C.ar    1  LIG1       -0.0047
     27 C          10.6132    1.1589   -0.0323 C.ar    1  LIG1       -0.0607
     28 H          10.4972   -0.8470    0.7129 H       1  LIG1        0.0629
     29 C           8.5149    2.2593   -0.4222 C.ar    1  LIG1       -0.0530
     30 C           9.9046    2.2853   -0.4391 C.ar    1  LIG1       -0.0611
     31 H           7.9459    3.1208   -0.7487 H       1  LIG1        0.0624
     32 H          11.6954    1.1608   -0.0432 H       1  LIG1        0.0618
     33 S           7.6372   -1.4234    1.0108 S.3     1  LIG1       -0.1420
     34 H           8.7194   -2.0925    1.4195 H       1  LIG1        0.1071
     35 H          10.4269    3.1722   -0.7710 H       1  LIG1        0.0618
@<TRIPOS>BOND
     1    22    21    1
     2    21    13    1
     3    17    14    1
     4    12     7    1
     5     8     6    1
     6    13    14   ar
     7    13    15   ar
     8    14    16   ar
     9    35    30    1
    10    31    29    1
    11     7     6   ar
    12     7     4   ar
    13     6     3   ar
    14    30    29   ar
    15    30    27   ar
    16    29    26   ar
    17    32    27    1
    18    27    25   ar
    19    15     4    1
    20    15    18   ar
    21     4     2   ar
    22    26    16    1
    23    26    24   ar
    24    16    19   ar
    25     3     9    1
    26     3     1   ar
    27    25    24   ar
    28    25    28    1
    29    24    33    1
    30     2     1   ar
    31     2     5    1
    32     1    10    1
    33    18    19   ar
    34    18    20    1
    35    19    23    1
    36    33    34    1
    37    10    11    1
