@<TRIPOS>MOLECULE
mol_data/opt/m06hf/geoms/mol2/4ga4ga-4ga-4ga-.out
 46 49 0 0 0
SMALL
GASTEIGER

@<TRIPOS>ATOM
      1 C          -0.2124    0.0889   -0.1812 C.ar    1  LIG1        0.0053
      2 C           1.1786    0.0378   -0.1291 C.ar    1  LIG1       -0.0408
      3 C          -0.8601    1.3226   -0.2613 C.ar    1  LIG1       -0.0485
      4 C           1.9253    1.2175   -0.1328 C.ar    1  LIG1       -0.0158
      5 H           1.6953   -0.9133   -0.0889 H       1  LIG1        0.0635
      6 C          -0.1138    2.4951   -0.2844 C.ar    1  LIG1       -0.0602
      7 C           1.2755    2.4492   -0.2150 C.ar    1  LIG1       -0.0539
      8 H          -0.6200    3.4493   -0.3439 H       1  LIG1        0.0618
      9 H          -1.9417    1.3630   -0.2993 H       1  LIG1        0.0628
     10 S          -1.2187   -1.3821   -0.1587 S.3     1  LIG1       -0.1426
     11 H          -0.2239   -2.2321    0.1138 H       1  LIG1        0.1071
     12 H           1.8589    3.3611   -0.2095 H       1  LIG1        0.0624
     13 C           4.0897    0.5616    1.0023 C.ar    1  LIG1        0.0130
     14 C           5.4840    0.5284    1.0160 C.ar    1  LIG1       -0.0402
     15 C           3.4184    1.1572   -0.0750 C.ar    1  LIG1       -0.0047
     16 C           6.2209    1.0816   -0.0311 C.ar    1  LIG1       -0.0158
     17 H           6.0129    0.0866    1.8523 H       1  LIG1        0.0635
     18 C           4.1673    1.7183   -1.1117 C.ar    1  LIG1       -0.0524
     19 C           5.5558    1.6858   -1.0979 C.ar    1  LIG1       -0.0534
     20 H           3.6403    2.1665   -1.9447 H       1  LIG1        0.0624
     21 S           3.1339   -0.0915    2.3600 S.3     1  LIG1       -0.1420
     22 H           4.1912   -0.5147    3.0588 H       1  LIG1        0.1071
     23 H           6.1265    2.1069   -1.9155 H       1  LIG1        0.0624
     24 C           8.4173   -0.1654   -0.0154 C.ar    1  LIG1        0.0130
     25 C           9.8113   -0.1594    0.0425 C.ar    1  LIG1       -0.0402
     26 C           7.7149    1.0466    0.0080 C.ar    1  LIG1       -0.0047
     27 C          10.5163    1.0427    0.0915 C.ar    1  LIG1       -0.0158
     28 H          10.3609   -1.0930    0.0559 H       1  LIG1        0.0635
     29 C           8.4296    2.2445    0.0613 C.ar    1  LIG1       -0.0524
     30 C           9.8180    2.2510    0.0983 C.ar    1  LIG1       -0.0534
     31 H           7.8779    3.1759    0.0764 H       1  LIG1        0.0624
     32 S           7.4999   -1.6911   -0.1398 S.3     1  LIG1       -0.1420
     33 H           8.5627   -2.4380   -0.4544 H       1  LIG1        0.1071
     34 H          10.3646    3.1848    0.1260 H       1  LIG1        0.0624
     35 C          12.7896    0.4790   -0.8607 C.ar    1  LIG1        0.0124
     36 C          14.1813    0.4862   -0.7492 C.ar    1  LIG1       -0.0480
     37 C          12.0100    1.0349    0.1628 C.ar    1  LIG1       -0.0047
     38 C          14.7962    1.0547    0.3605 C.ar    1  LIG1       -0.0607
     39 H          14.7886    0.0511   -1.5328 H       1  LIG1        0.0629
     40 C          12.6430    1.6045    1.2693 C.ar    1  LIG1       -0.0530
     41 C          14.0288    1.6194    1.3751 C.ar    1  LIG1       -0.0611
     42 H          12.0275    2.0267    2.0540 H       1  LIG1        0.0624
     43 H          15.8762    1.0532    0.4298 H       1  LIG1        0.0618
     44 S          11.9682   -0.1979   -2.2940 S.3     1  LIG1       -0.1420
     45 H          13.0878   -0.3513   -3.0093 H       1  LIG1        0.1071
     46 H          14.5034    2.0610    2.2408 H       1  LIG1        0.0618
@<TRIPOS>BOND
     1    45    44    1
     2    44    35    1
     3    20    18    1
     4    23    19    1
     5    39    36    1
     6    18    19   ar
     7    18    15   ar
     8    19    16   ar
     9    35    36   ar
    10    35    37   ar
    11    36    38   ar
    12    33    32    1
    13     8     6    1
    14     9     3    1
    15     6     3   ar
    16     6     7   ar
    17     3     1   ar
    18     7    12    1
    19     7     4   ar
    20     1    10    1
    21     1     2   ar
    22    10    11    1
    23    32    24    1
    24     4     2   ar
    25     4    15    1
    26     2     5    1
    27    15    13   ar
    28    16    26    1
    29    16    14   ar
    30    24    26   ar
    31    24    25   ar
    32    26    29   ar
    33    25    28    1
    34    25    27   ar
    35    29    31    1
    36    29    30   ar
    37    27    30   ar
    38    27    37    1
    39    30    34    1
    40    37    40   ar
    41    38    43    1
    42    38    41   ar
    43    13    14   ar
    44    13    21    1
    45    14    17    1
    46    40    41   ar
    47    40    42    1
    48    41    46    1
    49    21    22    1
