@<TRIPOS>MOLECULE
mol_data/opt/m06hf/geoms/mol2/4ga4ga4ga4ga-.out
 46 49 0 0 0
SMALL
GASTEIGER

@<TRIPOS>ATOM
      1 C          -0.1724    0.6885    0.9652 C.ar    1  LIG1        0.0053
      2 C           1.2213    0.6888    0.9661 C.ar    1  LIG1       -0.0408
      3 C          -0.8677    1.1965   -0.1304 C.ar    1  LIG1       -0.0485
      4 C           1.9238    1.1669   -0.1402 C.ar    1  LIG1       -0.0158
      5 H           1.7676    0.3267    1.8290 H       1  LIG1        0.0635
      6 C          -0.1651    1.7054   -1.2194 C.ar    1  LIG1       -0.0602
      7 C           1.2255    1.6852   -1.2326 C.ar    1  LIG1       -0.0539
      8 H          -0.7069    2.0979   -2.0697 H       1  LIG1        0.0618
      9 H          -1.9501    1.1800   -0.1344 H       1  LIG1        0.0628
     10 S          -1.1018    0.0903    2.3696 S.3     1  LIG1       -0.1426
     11 H          -0.2557   -0.8965    2.6833 H       1  LIG1        0.1071
     12 H           1.7757    2.0517   -2.0897 H       1  LIG1        0.0624
     13 C           4.1201   -0.0727   -0.0597 C.ar    1  LIG1        0.0130
     14 C           5.5141   -0.0657   -0.0433 C.ar    1  LIG1       -0.0402
     15 C           3.4188    1.1387   -0.1401 C.ar    1  LIG1       -0.0047
     16 C           6.2208    1.1341   -0.1306 C.ar    1  LIG1       -0.0158
     17 H           6.0661   -0.9938    0.0419 H       1  LIG1        0.0635
     18 C           4.1350    2.3334   -0.2258 C.ar    1  LIG1       -0.0524
     19 C           5.5248    2.3394   -0.2252 C.ar    1  LIG1       -0.0534
     20 H           3.5842    3.2638   -0.2867 H       1  LIG1        0.0624
     21 S           3.1991   -1.5994   -0.0029 S.3     1  LIG1       -0.1420
     22 H           4.2654   -2.3859   -0.1715 H       1  LIG1        0.1071
     23 H           6.0725    3.2697   -0.3005 H       1  LIG1        0.0624
     24 C           8.4778    0.4712   -1.0634 C.ar    1  LIG1        0.0130
     25 C           9.8694    0.4715   -0.9717 C.ar    1  LIG1       -0.0402
     26 C           7.7157    1.1219   -0.0831 C.ar    1  LIG1       -0.0047
     27 C          10.5133    1.1072    0.0905 C.ar    1  LIG1       -0.0158
     28 H          10.4689   -0.0120   -1.7339 H       1  LIG1        0.0635
     29 C           8.3705    1.7710    0.9650 C.ar    1  LIG1       -0.0524
     30 C           9.7565    1.7667    1.0593 C.ar    1  LIG1       -0.0534
     31 H           7.7725    2.2627    1.7223 H       1  LIG1        0.0624
     32 S           7.6316   -0.2961   -2.4330 S.3     1  LIG1       -0.1420
     33 H           8.7391   -0.7693   -3.0116 H       1  LIG1        0.1071
     34 H          10.2546    2.2524    1.8881 H       1  LIG1        0.0624
     35 C          12.7308   -0.0885    0.2972 C.ar    1  LIG1        0.0124
     36 C          14.1243   -0.0463    0.3728 C.ar    1  LIG1       -0.0480
     37 C          12.0068    1.1052    0.1733 C.ar    1  LIG1       -0.0047
     38 C          14.7948    1.1708    0.3340 C.ar    1  LIG1       -0.0607
     39 H          14.6885   -0.9651    0.4704 H       1  LIG1        0.0629
     40 C          12.6952    2.3195    0.1410 C.ar    1  LIG1       -0.0530
     41 C          14.0824    2.3608    0.2206 C.ar    1  LIG1       -0.0611
     42 H          12.1238    3.2339    0.0399 H       1  LIG1        0.0624
     43 H          15.8752    1.1850    0.3968 H       1  LIG1        0.0618
     44 S          11.8334   -1.6279    0.3945 S.3     1  LIG1       -0.1420
     45 H          12.9174   -2.3881    0.5692 H       1  LIG1        0.1071
     46 H          14.6005    3.3095    0.1909 H       1  LIG1        0.0618
@<TRIPOS>BOND
     1    33    32    1
     2    32    24    1
     3    12     7    1
     4     8     6    1
     5    28    25    1
     6     7     6   ar
     7     7     4   ar
     8     6     3   ar
     9    24    25   ar
    10    24    26   ar
    11    25    27   ar
    12    23    19    1
    13    20    18    1
    14    18    19   ar
    15    18    15   ar
    16    19    16   ar
    17    22    21    1
    18     4    15    1
    19     4     2   ar
    20    15    13   ar
    21     9     3    1
    22    16    26    1
    23    16    14   ar
    24     3     1   ar
    25    26    29   ar
    26    13    14   ar
    27    13    21    1
    28    14    17    1
    29    42    40    1
    30    27    37    1
    31    27    30   ar
    32    40    37   ar
    33    40    41   ar
    34    37    35   ar
    35    46    41    1
    36    41    38   ar
    37    35    36   ar
    38    35    44    1
    39    38    36   ar
    40    38    43    1
    41    36    39    1
    42    44    45    1
    43    29    30   ar
    44    29    31    1
    45     1     2   ar
    46     1    10    1
    47     2     5    1
    48    30    34    1
    49    10    11    1
