@<TRIPOS>MOLECULE
mol_data/opt/m06hf/geoms/mol2/4ga4ga-4ga-.out
 35 37 0 0 0
SMALL
GASTEIGER

@<TRIPOS>ATOM
      1 C          -0.0926    0.1511   -0.4460 C.ar    1  LIG1        0.0053
      2 C           1.3001    0.1185   -0.4422 C.ar    1  LIG1       -0.0408
      3 C          -0.7623    1.2843    0.0187 C.ar    1  LIG1       -0.0485
      4 C           2.0255    1.2128    0.0343 C.ar    1  LIG1       -0.0158
      5 H           1.8353   -0.7471   -0.8133 H       1  LIG1        0.0635
      6 C          -0.0374    2.3777    0.4784 C.ar    1  LIG1       -0.0602
      7 C           1.3540    2.3466    0.4913 C.ar    1  LIG1       -0.0539
      8 H          -0.5617    3.2529    0.8383 H       1  LIG1        0.0618
      9 H          -1.8450    1.3072    0.0221 H       1  LIG1        0.0628
     10 S          -1.0777   -1.2038   -1.0505 S.3     1  LIG1       -0.1426
     11 H          -0.0730   -2.0709   -1.1875 H       1  LIG1        0.1071
     12 H           1.9232    3.1880    0.8650 H       1  LIG1        0.0624
     13 C           4.2259    0.2548    0.8226 C.ar    1  LIG1        0.0130
     14 C           5.6202    0.2485    0.7987 C.ar    1  LIG1       -0.0402
     15 C           3.5207    1.1736    0.0337 C.ar    1  LIG1       -0.0047
     16 C           6.3231    1.1459   -0.0054 C.ar    1  LIG1       -0.0158
     17 H           6.1757   -0.4454    1.4184 H       1  LIG1        0.0635
     18 C           4.2334    2.0766   -0.7565 C.ar    1  LIG1       -0.0524
     19 C           5.6224    2.0685   -0.7827 C.ar    1  LIG1       -0.0534
     20 H           3.6785    2.7776   -1.3675 H       1  LIG1        0.0624
     21 S           3.3046   -0.8498    1.8776 S.3     1  LIG1       -0.1420
     22 H           4.3833   -1.4249    2.4176 H       1  LIG1        0.1071
     23 H           6.1668    2.7594   -1.4133 H       1  LIG1        0.0624
     24 C           8.5414    0.0075   -0.4218 C.ar    1  LIG1        0.0124
     25 C           9.9370    0.0371   -0.4047 C.ar    1  LIG1       -0.0480
     26 C           7.8186    1.1356   -0.0101 C.ar    1  LIG1       -0.0047
     27 C          10.6122    1.1817    0.0040 C.ar    1  LIG1       -0.0607
     28 H          10.4998   -0.8328   -0.7181 H       1  LIG1        0.0629
     29 C           8.5118    2.2783    0.3937 C.ar    1  LIG1       -0.0530
     30 C           9.9015    2.3098    0.4023 C.ar    1  LIG1       -0.0611
     31 H           7.9414    3.1411    0.7138 H       1  LIG1        0.0624
     32 H          11.6944    1.1878    0.0088 H       1  LIG1        0.0618
     33 S           7.6405   -1.4235   -0.9932 S.3     1  LIG1       -0.1420
     34 H           8.7231   -2.0931   -1.4002 H       1  LIG1        0.1071
     35 H          10.4222    3.2024    0.7213 H       1  LIG1        0.0618
@<TRIPOS>BOND
     1    23    19    1
     2    34    33    1
     3    20    18    1
     4    11    10    1
     5    10     1    1
     6    33    24    1
     7     5     2    1
     8    19    18   ar
     9    19    16   ar
    10    18    15   ar
    11    28    25    1
    12     1     2   ar
    13     1     3   ar
    14     2     4   ar
    15    24    25   ar
    16    24    26   ar
    17    25    27   ar
    18    26    16    1
    19    26    29   ar
    20    16    14   ar
    21    27    32    1
    22    27    30   ar
    23     3     9    1
    24     3     6   ar
    25    15     4    1
    26    15    13   ar
    27     4     7   ar
    28    29    30   ar
    29    29    31    1
    30    30    35    1
    31     6     7   ar
    32     6     8    1
    33     7    12    1
    34    14    13   ar
    35    14    17    1
    36    13    21    1
    37    21    22    1
