@<TRIPOS>MOLECULE
mol_data/opt/m06hf/geoms/mol2/4ga4ga-4ga4ga-.out
 46 49 0 0 0
SMALL
GASTEIGER

@<TRIPOS>ATOM
      1 C          -0.2389    0.3254   -0.4933 C.ar    1  LIG1        0.0053
      2 C           1.1517    0.2595   -0.5578 C.ar    1  LIG1       -0.0408
      3 C          -0.8566    1.3735    0.1876 C.ar    1  LIG1       -0.0485
      4 C           1.9280    1.2259    0.0828 C.ar    1  LIG1       -0.0158
      5 H           1.6387   -0.5351   -1.1106 H       1  LIG1        0.0635
      6 C          -0.0811    2.3545    0.7984 C.ar    1  LIG1       -0.0602
      7 C           1.3068    2.2801    0.7558 C.ar    1  LIG1       -0.0539
      8 H          -0.5632    3.1670    1.3260 H       1  LIG1        0.0618
      9 H          -1.9368    1.4114    0.2482 H       1  LIG1        0.0628
     10 S          -1.2734   -0.8786   -1.3125 S.3     1  LIG1       -0.1426
     11 H          -0.4708   -1.9251   -1.1011 H       1  LIG1        0.1071
     12 H           1.9160    3.0245    1.2523 H       1  LIG1        0.0624
     13 C           4.1201    0.0796    0.5991 C.ar    1  LIG1        0.0130
     14 C           5.5138    0.0574    0.5519 C.ar    1  LIG1       -0.0402
     15 C           3.4207    1.1523    0.0295 C.ar    1  LIG1       -0.0047
     16 C           6.2221    1.0888   -0.0654 C.ar    1  LIG1       -0.0158
     17 H           6.0634   -0.7537    1.0149 H       1  LIG1        0.0635
     18 C           4.1393    2.1846   -0.5753 C.ar    1  LIG1       -0.0524
     19 C           5.5269    2.1590   -0.6296 C.ar    1  LIG1       -0.0534
     20 H           3.5901    3.0052   -1.0200 H       1  LIG1        0.0624
     21 S           3.1961   -1.2040    1.4235 S.3     1  LIG1       -0.1420
     22 H           4.2695   -1.9198    1.7728 H       1  LIG1        0.1071
     23 H           6.0739    2.9548   -1.1188 H       1  LIG1        0.0624
     24 C           8.4361    0.0137   -0.6668 C.ar    1  LIG1        0.0130
     25 C           9.8306    0.0385   -0.6548 C.ar    1  LIG1       -0.0402
     26 C           7.7167    1.0689   -0.0869 C.ar    1  LIG1       -0.0047
     27 C          10.5221    1.1018   -0.0743 C.ar    1  LIG1       -0.0158
     28 H          10.3944   -0.7657   -1.1131 H       1  LIG1        0.0635
     29 C           8.4192    2.1358    0.4770 C.ar    1  LIG1       -0.0524
     30 C           9.8075    2.1603    0.4880 C.ar    1  LIG1       -0.0534
     31 H           7.8565    2.9425    0.9303 H       1  LIG1        0.0624
     32 S           7.5419   -1.3179   -1.4483 S.3     1  LIG1       -0.1420
     33 H           8.6313   -1.9368   -1.9124 H       1  LIG1        0.1071
     34 H          10.3411    2.9824    0.9474 H       1  LIG1        0.0624
     35 C          12.7635    0.1120    0.5514 C.ar    1  LIG1        0.0124
     36 C          14.1582    0.1680    0.5258 C.ar    1  LIG1       -0.0480
     37 C          12.0174    1.1202   -0.0745 C.ar    1  LIG1       -0.0047
     38 C          14.8095    1.2243   -0.1011 C.ar    1  LIG1       -0.0607
     39 H          14.7391   -0.6111    1.0030 H       1  LIG1        0.0629
     40 C          12.6871    2.1760   -0.6967 C.ar    1  LIG1       -0.0530
     41 C          14.0755    2.2362   -0.7123 C.ar    1  LIG1       -0.0611
     42 H          12.0987    2.9466   -1.1795 H       1  LIG1        0.0624
     43 H          15.8913    1.2535   -0.1084 H       1  LIG1        0.0618
     44 S          11.8951   -1.1965    1.3981 S.3     1  LIG1       -0.1420
     45 H          12.9911   -1.7379    1.9395 H       1  LIG1        0.1071
     46 H          14.5778    3.0603   -1.2005 H       1  LIG1        0.0618
@<TRIPOS>BOND
     1    33    32    1
     2    32    24    1
     3    10    11    1
     4    10     1    1
     5    46    41    1
     6    42    40    1
     7    23    19    1
     8    28    25    1
     9     5     2    1
    10    20    18    1
    11    41    40   ar
    12    41    38   ar
    13    40    37   ar
    14    24    25   ar
    15    24    26   ar
    16    25    27   ar
    17    19    18   ar
    18    19    16   ar
    19    18    15   ar
    20     2     1   ar
    21     2     4   ar
    22     1     3   ar
    23    43    38    1
    24    38    36   ar
    25    26    16    1
    26    26    29   ar
    27    37    27    1
    28    37    35   ar
    29    27    30   ar
    30    16    14   ar
    31    15     4    1
    32    15    13   ar
    33     4     7   ar
    34     3     9    1
    35     3     6   ar
    36    29    30   ar
    37    29    31    1
    38    30    34    1
    39    36    35   ar
    40    36    39    1
    41    35    44    1
    42    14    13   ar
    43    14    17    1
    44    13    21    1
    45     7     6   ar
    46     7    12    1
    47     6     8    1
    48    44    45    1
    49    21    22    1
