@<TRIPOS>MOLECULE
mol_data/opt/m06hf/geoms/mol2/4ga4ga-.out
 24 25 0 0 0
SMALL
GASTEIGER

@<TRIPOS>ATOM
      1 C          -0.0156    0.2473   -0.4770 C.ar    1  LIG1        0.0053
      2 C           1.3744    0.2293   -0.5792 C.ar    1  LIG1       -0.0408
      3 C          -0.6488    1.2769    0.2183 C.ar    1  LIG1       -0.0485
      4 C           2.1353    1.2242    0.0361 C.ar    1  LIG1       -0.0158
      5 H           1.8743   -0.5487   -1.1442 H       1  LIG1        0.0635
      6 C           0.1101    2.2845    0.8057 C.ar    1  LIG1       -0.0602
      7 C           1.4984    2.2591    0.7233 C.ar    1  LIG1       -0.0539
      8 H          -0.3850    3.0814    1.3447 H       1  LIG1        0.0618
      9 H          -1.7276    1.2820    0.3073 H       1  LIG1        0.0628
     10 S          -1.0356   -0.9887   -1.2610 S.3     1  LIG1       -0.1426
     11 H          -0.1313   -1.9698   -1.2229 H       1  LIG1        0.1071
     12 H           2.0956    3.0256    1.2002 H       1  LIG1        0.0624
     13 C           4.3695    0.1301    0.4679 C.ar    1  LIG1        0.0124
     14 C           5.7606    0.1317    0.3499 C.ar    1  LIG1       -0.0480
     15 C           3.6271    1.1929   -0.0638 C.ar    1  LIG1       -0.0047
     16 C           6.4132    1.1872   -0.2767 C.ar    1  LIG1       -0.0607
     17 H           6.3381   -0.6905    0.7526 H       1  LIG1        0.0629
     18 C           4.2978    2.2465   -0.6880 C.ar    1  LIG1       -0.0530
     19 C           5.6836    2.2521   -0.7968 C.ar    1  LIG1       -0.0611
     20 H           3.7114    3.0591   -1.0982 H       1  LIG1        0.0624
     21 H           7.4921    1.1727   -0.3575 H       1  LIG1        0.0618
     22 S           3.5045   -1.1853    1.3110 S.3     1  LIG1       -0.1420
     23 H           4.6088   -1.7682    1.7877 H       1  LIG1        0.1071
     24 H           6.1869    3.0751   -1.2861 H       1  LIG1        0.0618
@<TRIPOS>BOND
     1    24    19    1
     2    10    11    1
     3    10     1    1
     4     5     2    1
     5    20    18    1
     6    19    18   ar
     7    19    16   ar
     8    18    15   ar
     9     2     1   ar
    10     2     4   ar
    11     1     3   ar
    12    21    16    1
    13    16    14   ar
    14    15     4    1
    15    15    13   ar
    16     4     7   ar
    17     3     9    1
    18     3     6   ar
    19    14    13   ar
    20    14    17    1
    21    13    22    1
    22     7     6   ar
    23     7    12    1
    24     6     8    1
    25    22    23    1
