@<TRIPOS>MOLECULE
mol_data/opt/m06hf/geoms/mol2/4ga4ga4ga4ga.out
 46 49 0 0 0
SMALL
GASTEIGER

@<TRIPOS>ATOM
      1 C          -0.2380    1.2889    0.7160 C.ar    1  LIG1        0.0053
      2 C           1.1516    1.2623    0.8258 C.ar    1  LIG1       -0.0408
      3 C          -0.8423    1.1412   -0.5309 C.ar    1  LIG1       -0.0485
      4 C           1.9389    1.0645   -0.3089 C.ar    1  LIG1       -0.0158
      5 H           1.6276    1.4104    1.7880 H       1  LIG1        0.0635
      6 C          -0.0539    0.9738   -1.6668 C.ar    1  LIG1       -0.0602
      7 C           1.3312    0.9290   -1.5593 C.ar    1  LIG1       -0.0539
      8 H          -0.5256    0.8601   -2.6339 H       1  LIG1        0.0618
      9 H          -1.9218    1.1488   -0.6077 H       1  LIG1        0.0628
     10 S          -1.2809    1.5894    2.1359 S.3     1  LIG1       -0.1426
     11 H          -0.6097    0.8036    2.9848 H       1  LIG1        0.1071
     12 H           1.9495    0.7753   -2.4344 H       1  LIG1        0.0624
     13 C           4.0796    0.0135    0.5212 C.ar    1  LIG1        0.0130
     14 C           5.4720    0.0083    0.6047 C.ar    1  LIG1       -0.0402
     15 C           3.4293    1.0269   -0.1947 C.ar    1  LIG1       -0.0047
     16 C           6.2269    0.9866   -0.0419 C.ar    1  LIG1       -0.0158
     17 H           5.9830   -0.7591    1.1738 H       1  LIG1        0.0635
     18 C           4.1939    2.0075   -0.8296 C.ar    1  LIG1       -0.0524
     19 C           5.5811    1.9930   -0.7610 C.ar    1  LIG1       -0.0534
     20 H           3.6819    2.7867   -1.3799 H       1  LIG1        0.0624
     21 S           3.0986   -1.2621    1.2913 S.3     1  LIG1       -0.1420
     22 H           4.1327   -2.0757    1.5293 H       1  LIG1        0.1071
     23 H           6.1675    2.7478   -1.2688 H       1  LIG1        0.0624
     24 C           8.4659   -0.0990   -0.4732 C.ar    1  LIG1        0.0130
     25 C           9.8567   -0.0856   -0.3687 C.ar    1  LIG1       -0.0402
     26 C           7.7191    0.9649    0.0502 C.ar    1  LIG1       -0.0047
     27 C          10.5155    0.9877    0.2309 C.ar    1  LIG1       -0.0158
     28 H          10.4431   -0.9113   -0.7545 H       1  LIG1        0.0635
     29 C           8.3875    2.0312    0.6540 C.ar    1  LIG1       -0.0524
     30 C           9.7735    2.0510    0.7461 C.ar    1  LIG1       -0.0534
     31 H           7.8007    2.8479    1.0558 H       1  LIG1        0.0624
     32 S           7.6043   -1.4327   -1.2872 S.3     1  LIG1       -0.1420
     33 H           8.7093   -2.0365   -1.7362 H       1  LIG1        0.1071
     34 H          10.2848    2.8876    1.2043 H       1  LIG1        0.0624
     35 C          12.8166    0.9928   -0.8098 C.ar    1  LIG1        0.0124
     36 C          14.2059    0.9865   -0.6734 C.ar    1  LIG1       -0.0480
     37 C          12.0076    0.9869    0.3345 C.ar    1  LIG1       -0.0047
     38 C          14.7886    0.9856    0.5889 C.ar    1  LIG1       -0.0607
     39 H          14.8359    0.9868   -1.5538 H       1  LIG1        0.0629
     40 C          12.6081    0.9906    1.5949 C.ar    1  LIG1       -0.0530
     41 C          13.9916    0.9905    1.7298 C.ar    1  LIG1       -0.0611
     42 H          11.9701    0.9819    2.4700 H       1  LIG1        0.0624
     43 H          15.8671    0.9820    0.6776 H       1  LIG1        0.0618
     44 S          12.0296    1.0368   -2.4114 S.3     1  LIG1       -0.1420
     45 H          13.1615    1.2231   -3.0982 H       1  LIG1        0.1071
     46 H          14.4422    0.9890    2.7130 H       1  LIG1        0.0618
@<TRIPOS>BOND
     1    45    44    1
     2     8     6    1
     3    12     7    1
     4    44    35    1
     5    33    32    1
     6     6     7   ar
     7     6     3   ar
     8     7     4   ar
     9    39    36    1
    10    20    18    1
    11    32    24    1
    12    23    19    1
    13    18    19   ar
    14    18    15   ar
    15    35    36   ar
    16    35    37   ar
    17    19    16   ar
    18    28    25    1
    19    36    38   ar
    20     9     3    1
    21     3     1   ar
    22    24    25   ar
    23    24    26   ar
    24    25    27   ar
    25     4    15    1
    26     4     2   ar
    27    15    13   ar
    28    16    26    1
    29    16    14   ar
    30    26    29   ar
    31    27    37    1
    32    27    30   ar
    33    37    40   ar
    34    13    14   ar
    35    13    21    1
    36    38    43    1
    37    38    41   ar
    38    14    17    1
    39    29    30   ar
    40    29    31    1
    41     1     2   ar
    42     1    10    1
    43    30    34    1
    44     2     5    1
    45    21    22    1
    46    40    41   ar
    47    40    42    1
    48    41    46    1
    49    10    11    1
