@<TRIPOS>MOLECULE
mol_data/opt/m06hf/geoms/mol2/4ga4ga-4ga4ga.out
 46 49 0 0 0
SMALL
GASTEIGER

@<TRIPOS>ATOM
      1 C          -0.2363    0.3307   -0.5192 C.ar    1  LIG1        0.0053
      2 C           1.1544    0.2610   -0.5622 C.ar    1  LIG1       -0.0408
      3 C          -0.8593    1.3595    0.1893 C.ar    1  LIG1       -0.0485
      4 C           1.9241    1.2119    0.1106 C.ar    1  LIG1       -0.0158
      5 H           1.6528   -0.5220   -1.1213 H       1  LIG1        0.0635
      6 C          -0.0903    2.3137    0.8451 C.ar    1  LIG1       -0.0602
      7 C           1.2991    2.2432    0.8120 C.ar    1  LIG1       -0.0539
      8 H          -0.5783    3.1088    1.3934 H       1  LIG1        0.0618
      9 H          -1.9406    1.4083    0.2296 H       1  LIG1        0.0628
     10 S          -1.2797   -0.8352   -1.3715 S.3     1  LIG1       -0.1426
     11 H          -0.3228   -1.7245   -1.6458 H       1  LIG1        0.1071
     12 H           1.9035    2.9724    1.3357 H       1  LIG1        0.0624
     13 C           4.1190    0.0679    0.6237 C.ar    1  LIG1        0.0130
     14 C           5.5128    0.0484    0.5754 C.ar    1  LIG1       -0.0402
     15 C           3.4174    1.1423    0.0603 C.ar    1  LIG1       -0.0047
     16 C           6.2185    1.0838   -0.0382 C.ar    1  LIG1       -0.0158
     17 H           6.0639   -0.7641    1.0340 H       1  LIG1        0.0635
     18 C           4.1334    2.1796   -0.5388 C.ar    1  LIG1       -0.0524
     19 C           5.5211    2.1563   -0.5953 C.ar    1  LIG1       -0.0534
     20 H           3.5822    3.0021   -0.9775 H       1  LIG1        0.0624
     21 S           3.1954   -1.2215    1.4383 S.3     1  LIG1       -0.1420
     22 H           4.2691   -1.9391    1.7831 H       1  LIG1        0.1071
     23 H           6.0661    2.9553   -1.0811 H       1  LIG1        0.0624
     24 C           8.4312    0.0114   -0.6491 C.ar    1  LIG1        0.0130
     25 C           9.8258    0.0379   -0.6433 C.ar    1  LIG1       -0.0402
     26 C           7.7130    1.0652   -0.0650 C.ar    1  LIG1       -0.0047
     27 C          10.5186    1.1021   -0.0660 C.ar    1  LIG1       -0.0158
     28 H          10.3885   -0.7653   -1.1045 H       1  LIG1        0.0635
     29 C           8.4169    2.1326    0.4964 C.ar    1  LIG1       -0.0524
     30 C           9.8052    2.1592    0.5005 C.ar    1  LIG1       -0.0534
     31 H           7.8553    2.9381    0.9531 H       1  LIG1        0.0624
     32 S           7.5361   -1.3201   -1.4300 S.3     1  LIG1       -0.1420
     33 H           8.6248   -1.9366   -1.8990 H       1  LIG1        0.1071
     34 H          10.3398    2.9821    0.9572 H       1  LIG1        0.0624
     35 C          12.7654    0.1173    0.5478 C.ar    1  LIG1        0.0124
     36 C          14.1599    0.1753    0.5129 C.ar    1  LIG1       -0.0480
     37 C          12.0139    1.1232   -0.0752 C.ar    1  LIG1       -0.0047
     38 C          14.8054    1.2313   -0.1206 C.ar    1  LIG1       -0.0607
     39 H          14.7452   -0.6020    0.9878 H       1  LIG1        0.0629
     40 C          12.6778    2.1788   -0.7040 C.ar    1  LIG1       -0.0530
     41 C          14.0659    2.2409   -0.7291 C.ar    1  LIG1       -0.0611
     42 H          12.0850    2.9474   -1.1845 H       1  LIG1        0.0624
     43 H          15.8871    1.2620   -0.1354 H       1  LIG1        0.0618
     44 S          11.9040   -1.1913    1.4010 S.3     1  LIG1       -0.1420
     45 H          13.0039   -1.7312    1.9361 H       1  LIG1        0.1071
     46 H          14.5639    3.0646   -1.2224 H       1  LIG1        0.0618
@<TRIPOS>BOND
     1    33    32    1
     2    11    10    1
     3    32    24    1
     4    10     1    1
     5    46    41    1
     6    42    40    1
     7     5     2    1
     8    28    25    1
     9    23    19    1
    10    20    18    1
    11    41    40   ar
    12    41    38   ar
    13    40    37   ar
    14    24    25   ar
    15    24    26   ar
    16    25    27   ar
    17    19    18   ar
    18    19    16   ar
    19     2     1   ar
    20     2     4   ar
    21    18    15   ar
    22     1     3   ar
    23    43    38    1
    24    38    36   ar
    25    37    27    1
    26    37    35   ar
    27    27    30   ar
    28    26    16    1
    29    26    29   ar
    30    16    14   ar
    31    15     4    1
    32    15    13   ar
    33     4     7   ar
    34     3     9    1
    35     3     6   ar
    36    29    30   ar
    37    29    31    1
    38    30    34    1
    39    36    35   ar
    40    36    39    1
    41    35    44    1
    42    14    13   ar
    43    14    17    1
    44    13    21    1
    45     7     6   ar
    46     7    12    1
    47     6     8    1
    48    44    45    1
    49    21    22    1
