@<TRIPOS>MOLECULE
mol_data/opt/m06hf/geoms/mol2/4ga4ga4ga-4ga.out
 46 49 0 0 0
SMALL
GASTEIGER

@<TRIPOS>ATOM
      1 C          -0.2386    0.3095    0.4926 C.ar    1  LIG1        0.0053
      2 C           1.1521    0.2437    0.5564 C.ar    1  LIG1       -0.0408
      3 C          -0.8570    1.3700   -0.1681 C.ar    1  LIG1       -0.0485
      4 C           1.9278    1.2230   -0.0652 C.ar    1  LIG1       -0.0158
      5 H           1.6396   -0.5609    1.0939 H       1  LIG1        0.0635
      6 C          -0.0822    2.3634   -0.7596 C.ar    1  LIG1       -0.0602
      7 C           1.3057    2.2894   -0.7179 C.ar    1  LIG1       -0.0539
      8 H          -0.5649    3.1855   -1.2716 H       1  LIG1        0.0618
      9 H          -1.9373    1.4080   -0.2283 H       1  LIG1        0.0628
     10 S          -1.2721   -0.9111    1.2881 S.3     1  LIG1       -0.1426
     11 H          -0.4683   -1.9525    1.0570 H       1  LIG1        0.1071
     12 H           1.9144    3.0438   -1.1997 H       1  LIG1        0.0624
     13 C           4.1210    0.0888   -0.6027 C.ar    1  LIG1        0.0130
     14 C           5.5147    0.0670   -0.5555 C.ar    1  LIG1       -0.0402
     15 C           3.4204    1.1496   -0.0129 C.ar    1  LIG1       -0.0047
     16 C           6.2219    1.0869    0.0818 C.ar    1  LIG1       -0.0158
     17 H           6.0652   -0.7345   -1.0339 H       1  LIG1        0.0635
     18 C           4.1379    2.1708    0.6119 C.ar    1  LIG1       -0.0524
     19 C           5.5256    2.1454    0.6663 C.ar    1  LIG1       -0.0534
     20 H           3.5879    2.9823    1.0721 H       1  LIG1        0.0624
     21 S           3.1985   -1.1796   -1.4520 S.3     1  LIG1       -0.1420
     22 H           4.2728   -1.8874   -1.8146 H       1  LIG1        0.1071
     23 H           6.0716    2.9321    1.1709 H       1  LIG1        0.0624
     24 C           8.4366    0.0022    0.6628 C.ar    1  LIG1        0.0130
     25 C           9.8312    0.0284    0.6516 C.ar    1  LIG1       -0.0402
     26 C           7.7164    1.0679    0.1034 C.ar    1  LIG1       -0.0047
     27 C          10.5219    1.1034    0.0920 C.ar    1  LIG1       -0.0158
     28 H          10.3955   -0.7841    1.0942 H       1  LIG1        0.0635
     29 C           8.4182    2.1462   -0.4395 C.ar    1  LIG1       -0.0524
     30 C           9.8065    2.1720   -0.4497 C.ar    1  LIG1       -0.0534
     31 H           7.8549    2.9611   -0.8771 H       1  LIG1        0.0624
     32 S           7.5435   -1.3452    1.4178 S.3     1  LIG1       -0.1420
     33 H           8.6333   -1.9719    1.8704 H       1  LIG1        0.1071
     34 H          10.3394    3.0034   -0.8929 H       1  LIG1        0.0624
     35 C          12.7641    0.1275   -0.5522 C.ar    1  LIG1        0.0124
     36 C          14.1587    0.1842   -0.5254 C.ar    1  LIG1       -0.0480
     37 C          12.0172    1.1230    0.0929 C.ar    1  LIG1       -0.0047
     38 C          14.8091    1.2288    0.1216 C.ar    1  LIG1       -0.0607
     39 H          14.7403   -0.5852   -1.0175 H       1  LIG1        0.0629
     40 C          12.6860    2.1672    0.7352 C.ar    1  LIG1       -0.0530
     41 C          14.0743    2.2283    0.7521 C.ar    1  LIG1       -0.0611
     42 H          12.0969    2.9279    1.2325 H       1  LIG1        0.0624
     43 H          15.8909    1.2587    0.1296 H       1  LIG1        0.0618
     44 S          11.8968   -1.1652   -1.4239 S.3     1  LIG1       -0.1420
     45 H          12.9933   -1.6950   -1.9757 H       1  LIG1        0.1071
     46 H          14.5759    3.0432    1.2559 H       1  LIG1        0.0618
@<TRIPOS>BOND
     1    45    44    1
     2    22    21    1
     3    21    13    1
     4    44    35    1
     5     8     6    1
     6    12     7    1
     7    17    14    1
     8    39    36    1
     9    34    30    1
    10    31    29    1
    11     6     7   ar
    12     6     3   ar
    13     7     4   ar
    14    13    14   ar
    15    13    15   ar
    16    14    16   ar
    17    35    36   ar
    18    35    37   ar
    19    36    38   ar
    20    30    29   ar
    21    30    27   ar
    22    29    26   ar
    23     9     3    1
    24     3     1   ar
    25     4    15    1
    26     4     2   ar
    27    15    18   ar
    28    16    26    1
    29    16    19   ar
    30    27    37    1
    31    27    25   ar
    32    37    40   ar
    33    26    24   ar
    34    38    43    1
    35    38    41   ar
    36     1     2   ar
    37     1    10    1
    38     2     5    1
    39    18    19   ar
    40    18    20    1
    41    25    24   ar
    42    25    28    1
    43    24    32    1
    44    19    23    1
    45    40    41   ar
    46    40    42    1
    47    41    46    1
    48    11    10    1
    49    32    33    1
