@<TRIPOS>MOLECULE
mol_data/opt/m06hf/geoms/mol2/4ga4ga-4ga.out
 35 37 0 0 0
SMALL
GASTEIGER

@<TRIPOS>ATOM
      1 C          -0.0934    0.1634   -0.4583 C.ar    1  LIG1        0.0053
      2 C           1.2992    0.1277   -0.4523 C.ar    1  LIG1       -0.0408
      3 C          -0.7615    1.2964    0.0092 C.ar    1  LIG1       -0.0485
      4 C           2.0261    1.2187    0.0292 C.ar    1  LIG1       -0.0158
      5 H           1.8331   -0.7378   -0.8256 H       1  LIG1        0.0635
      6 C          -0.0349    2.3865    0.4740 C.ar    1  LIG1       -0.0602
      7 C           1.3564    2.3523    0.4890 C.ar    1  LIG1       -0.0539
      8 H          -0.5579    3.2617    0.8361 H       1  LIG1        0.0618
      9 H          -1.8441    1.3217    0.0110 H       1  LIG1        0.0628
     10 S          -1.0806   -1.1872   -1.0692 S.3     1  LIG1       -0.1426
     11 H          -0.0776   -2.0561   -1.2074 H       1  LIG1        0.1071
     12 H           1.9268    3.1912    0.8666 H       1  LIG1        0.0624
     13 C           4.2232    0.2535    0.8182 C.ar    1  LIG1        0.0130
     14 C           5.6175    0.2442    0.7967 C.ar    1  LIG1       -0.0402
     15 C           3.5213    1.1762    0.0309 C.ar    1  LIG1       -0.0047
     16 C           6.3237    1.1427   -0.0035 C.ar    1  LIG1       -0.0158
     17 H           6.1704   -0.4528    1.4152 H       1  LIG1        0.0635
     18 C           4.2372    2.0801   -0.7553 C.ar    1  LIG1       -0.0524
     19 C           5.6263    2.0691   -0.7791 C.ar    1  LIG1       -0.0534
     20 H           3.6849    2.7843   -1.3649 H       1  LIG1        0.0624
     21 S           3.2977   -0.8523    1.8682 S.3     1  LIG1       -0.1420
     22 H           4.3742   -1.4315    2.4083 H       1  LIG1        0.1071
     23 H           6.1732    2.7608   -1.4066 H       1  LIG1        0.0624
     24 C           8.5403    0.0008   -0.4194 C.ar    1  LIG1        0.0124
     25 C           9.9359    0.0274   -0.3997 C.ar    1  LIG1       -0.0480
     26 C           7.8192    1.1292   -0.0056 C.ar    1  LIG1       -0.0047
     27 C          10.6128    1.1693    0.0137 C.ar    1  LIG1       -0.0607
     28 H          10.4975   -0.8427   -0.7147 H       1  LIG1        0.0629
     29 C           8.5141    2.2692    0.4029 C.ar    1  LIG1       -0.0530
     30 C           9.9038    2.2978    0.4141 C.ar    1  LIG1       -0.0611
     31 H           7.9448    3.1322    0.7246 H       1  LIG1        0.0624
     32 H          11.6950    1.1732    0.0204 H       1  LIG1        0.0618
     33 S           7.6374   -1.4266   -0.9967 S.3     1  LIG1       -0.1420
     34 H           8.7193   -2.0972   -1.4039 H       1  LIG1        0.1071
     35 H          10.4258    3.1883    0.7367 H       1  LIG1        0.0618
@<TRIPOS>BOND
     1    23    19    1
     2    34    33    1
     3    20    18    1
     4    11    10    1
     5    10     1    1
     6    33    24    1
     7     5     2    1
     8    19    18   ar
     9    19    16   ar
    10    18    15   ar
    11    28    25    1
    12     1     2   ar
    13     1     3   ar
    14     2     4   ar
    15    24    25   ar
    16    24    26   ar
    17    25    27   ar
    18    26    16    1
    19    26    29   ar
    20    16    14   ar
    21     3     9    1
    22     3     6   ar
    23    27    32    1
    24    27    30   ar
    25     4    15    1
    26     4     7   ar
    27    15    13   ar
    28    29    30   ar
    29    29    31    1
    30    30    35    1
    31     6     7   ar
    32     6     8    1
    33     7    12    1
    34    14    13   ar
    35    14    17    1
    36    13    21    1
    37    21    22    1
