@<TRIPOS>MOLECULE
mol_data/opt/m06hf/geoms/mol2/4gd.out
 14 14 0 0 0
SMALL
GASTEIGER

@<TRIPOS>ATOM
      1 C           0.1122    0.0652   -0.0149 C.ar    1  LIG1        0.0048
      2 C           1.5084    0.0530   -0.0138 C.ar    1  LIG1       -0.0473
      3 C          -0.5744    1.2830   -0.0083 C.ar    1  LIG1       -0.0473
      4 C           2.2142    1.2489   -0.0038 C.ar    1  LIG1       -0.0433
      5 H           2.0491   -0.8839   -0.0227 H       1  LIG1        0.0629
      6 C           0.1271    2.4791   -0.0017 C.ar    1  LIG1       -0.0433
      7 C           1.5231    2.4602    0.0015 C.ar    1  LIG1        0.0518
      8 H          -0.3978    3.4243    0.0036 H       1  LIG1        0.0631
      9 H           3.2954    1.2471   -0.0019 H       1  LIG1        0.0631
     10 H          -1.6567    1.2928   -0.0056 H       1  LIG1        0.0629
     11 S          -0.8652   -1.4163   -0.0341 S.3     1  LIG1       -0.1426
     12 H           0.1533   -2.2733    0.0710 H       1  LIG1        0.1071
     13 N           2.8421    4.6961    0.0185 N.1     1  LIG1       -0.1909
     14 C           2.2593    3.7079    0.0109 C.1     1  LIG1        0.0992
@<TRIPOS>BOND
     1    11     1    1
     2    11    12    1
     3     5     2    1
     4     1     2   ar
     5     1     3   ar
     6     2     4   ar
     7     3    10    1
     8     3     6   ar
     9     4     9    1
    10     4     7   ar
    11     6     7   ar
    12     6     8    1
    13     7    14    1
    14    14    13    3
