@<TRIPOS>MOLECULE
mol_data/opt/m06hf/geoms/mol2/4gd4gd-4gd4gd.out
 50 53 0 0 0
SMALL
GASTEIGER

@<TRIPOS>ATOM
      1 C          -0.2058    0.3119   -0.7559 C.ar    1  LIG1        0.0054
      2 C           1.1896    0.2995   -0.7648 C.ar    1  LIG1       -0.0396
      3 C          -0.8866    1.2355    0.0427 C.ar    1  LIG1       -0.0473
      4 C           1.9079    1.1973    0.0207 C.ar    1  LIG1        0.0016
      5 H           1.7352   -0.4028   -1.3831 H       1  LIG1        0.0635
      6 C          -0.1799    2.1354    0.8254 C.ar    1  LIG1       -0.0427
      7 C           1.2157    2.1146    0.8187 C.ar    1  LIG1        0.0596
      8 H          -0.6990    2.8506    1.4484 H       1  LIG1        0.0631
      9 H          -1.9691    1.2469    0.0530 H       1  LIG1        0.0629
     10 S          -1.1781   -0.7955   -1.7418 S.3     1  LIG1       -0.1426
     11 H          -0.1543   -1.5279   -2.1895 H       1  LIG1        0.1071
     12 N           2.5421    3.7774    2.3071 N.1     1  LIG1       -0.1909
     13 C           1.9560    3.0409    1.6506 C.1     1  LIG1        0.0998
     14 C           4.1071    0.1491    0.6492 C.ar    1  LIG1        0.0131
     15 C           5.5035    0.1538    0.6324 C.ar    1  LIG1       -0.0390
     16 C           3.4033    1.1770    0.0062 C.ar    1  LIG1       -0.0022
     17 C           6.2065    1.1612   -0.0207 C.ar    1  LIG1        0.0016
     18 H           6.0615   -0.6255    1.1368 H       1  LIG1        0.0635
     19 C           4.1008    2.1933   -0.6373 C.ar    1  LIG1       -0.0350
     20 C           5.4935    2.1845   -0.6583 C.ar    1  LIG1        0.0601
     21 H           3.5595    2.9928   -1.1260 H       1  LIG1        0.0637
     22 S           3.1718   -1.1042    1.4852 S.3     1  LIG1       -0.1420
     23 H           4.2319   -1.7736    1.9478 H       1  LIG1        0.1071
     24 N           6.7469    4.0809   -1.9112 N.1     1  LIG1       -0.1908
     25 C           6.1995    3.2387   -1.3567 C.1     1  LIG1        0.0998
     26 C           8.4106    0.1458   -0.6965 C.ar    1  LIG1        0.0131
     27 C           9.8071    0.1603   -0.6810 C.ar    1  LIG1       -0.0390
     28 C           7.7012    1.1518   -0.0246 C.ar    1  LIG1       -0.0022
     29 C          10.5038    1.1619   -0.0146 C.ar    1  LIG1        0.0016
     30 H          10.3720   -0.6097   -1.1918 H       1  LIG1        0.0635
     31 C           8.3942    2.1599    0.6398 C.ar    1  LIG1       -0.0350
     32 C           9.7863    2.1647    0.6492 C.ar    1  LIG1        0.0601
     33 H           7.8491    2.9411    1.1540 H       1  LIG1        0.0637
     34 S           7.4974   -1.1029   -1.5697 S.3     1  LIG1       -0.1420
     35 H           8.5724   -1.6891   -2.1021 H       1  LIG1        0.1071
     36 N          11.0561    4.0320    1.9285 N.1     1  LIG1       -0.1908
     37 C          10.4972    3.2056    1.3624 C.1     1  LIG1        0.0998
     38 C          12.7002    0.2609    0.8054 C.ar    1  LIG1        0.0126
     39 C          14.0976    0.2674    0.7995 C.ar    1  LIG1       -0.0468
     40 C          11.9996    1.1598   -0.0096 C.ar    1  LIG1       -0.0022
     41 C          14.7895    1.1614   -0.0033 C.ar    1  LIG1       -0.0433
     42 H          14.6486   -0.4231    1.4240 H       1  LIG1        0.0629
     43 C          12.6934    2.0631   -0.8091 C.ar    1  LIG1       -0.0355
     44 C          14.0864    2.0595   -0.8074 C.ar    1  LIG1        0.0524
     45 H          12.1494    2.7649   -1.4280 H       1  LIG1        0.0637
     46 H          15.8709    1.1687   -0.0099 H       1  LIG1        0.0631
     47 S          11.7541   -0.8425    1.8249 S.3     1  LIG1       -0.1420
     48 H          12.8108   -1.3636    2.4565 H       1  LIG1        0.1071
     49 N          15.4061    3.7065   -2.3187 N.1     1  LIG1       -0.1909
     50 C          14.8153    2.9855   -1.6496 C.1     1  LIG1        0.0992
@<TRIPOS>BOND
     1    49    50    3
     2    11    10    1
     3    35    34    1
     4    24    25    3
     5    10     1    1
     6    50    44    1
     7    34    26    1
     8    45    43    1
     9     5     2    1
    10    25    20    1
    11    30    27    1
    12    21    19    1
    13    43    44   ar
    14    43    40   ar
    15    44    41   ar
    16     2     1   ar
    17     2     4   ar
    18     1     3   ar
    19    26    27   ar
    20    26    28   ar
    21    27    29   ar
    22    20    19   ar
    23    20    17   ar
    24    19    16   ar
    25    28    17    1
    26    28    31   ar
    27    17    15   ar
    28    29    40    1
    29    29    32   ar
    30    46    41    1
    31    40    38   ar
    32    41    39   ar
    33    16     4    1
    34    16    14   ar
    35     4     7   ar
    36     3     9    1
    37     3     6   ar
    38    15    14   ar
    39    15    18    1
    40    31    32   ar
    41    31    33    1
    42    32    37    1
    43    14    22    1
    44    39    38   ar
    45    39    42    1
    46    38    47    1
    47     7     6   ar
    48     7    13    1
    49     6     8    1
    50    37    36    3
    51    22    23    1
    52    13    12    3
    53    47    48    1
