@<TRIPOS>MOLECULE
mol_data/opt/m06hf/geoms/mol2/4gd4gd.out
 26 27 0 0 0
SMALL
GASTEIGER

@<TRIPOS>ATOM
      1 C           0.0097    0.2288    0.6496 C.ar    1  LIG1        0.0054
      2 C           1.4047    0.2365    0.6685 C.ar    1  LIG1       -0.0396
      3 C          -0.6809    1.2292   -0.0411 C.ar    1  LIG1       -0.0473
      4 C           2.1173    1.2248   -0.0073 C.ar    1  LIG1        0.0016
      5 H           1.9560   -0.5249    1.2065 H       1  LIG1        0.0635
      6 C           0.0182    2.2210   -0.7107 C.ar    1  LIG1       -0.0427
      7 C           1.4142    2.2179   -0.6992 C.ar    1  LIG1        0.0596
      8 H          -0.5080    2.9966   -1.2498 H       1  LIG1        0.0631
      9 H          -1.7632    1.2275   -0.0568 H       1  LIG1        0.0629
     10 S          -0.9522   -1.0102    1.4765 S.3     1  LIG1       -0.1426
     11 H           0.0793   -1.7348    1.9140 H       1  LIG1        0.1071
     12 N           2.6976    4.0761   -1.9797 N.1     1  LIG1       -0.1909
     13 C           2.1358    3.2491   -1.4163 C.1     1  LIG1        0.0998
     14 C           4.3276    0.2036   -0.6439 C.ar    1  LIG1        0.0126
     15 C           5.7248    0.2091   -0.6085 C.ar    1  LIG1       -0.0468
     16 C           3.6129    1.2149    0.0139 C.ar    1  LIG1       -0.0022
     17 C           6.4053    1.2111    0.0660 C.ar    1  LIG1       -0.0433
     18 H           6.2851   -0.5671   -1.1122 H       1  LIG1        0.0629
     19 C           4.2976    2.2248    0.6839 C.ar    1  LIG1       -0.0355
     20 C           5.6901    2.2203    0.7118 C.ar    1  LIG1        0.0524
     21 H           3.7459    3.0110    1.1826 H       1  LIG1        0.0637
     22 H           7.4862    1.2171    0.0942 H       1  LIG1        0.0631
     23 S           3.4047   -1.0389   -1.5145 S.3     1  LIG1       -0.1420
     24 H           4.4702   -1.6611   -2.0282 H       1  LIG1        0.1071
     25 N           6.9769    4.0790    1.9874 N.1     1  LIG1       -0.1909
     26 C           6.4026    3.2627    1.4214 C.1     1  LIG1        0.0992
@<TRIPOS>BOND
     1    24    23    1
     2    12    13    3
     3    23    14    1
     4    13     7    1
     5     8     6    1
     6    18    15    1
     7     6     7   ar
     8     6     3   ar
     9     7     4   ar
    10    14    15   ar
    11    14    16   ar
    12    15    17   ar
    13     9     3    1
    14     3     1   ar
    15     4    16    1
    16     4     2   ar
    17    16    19   ar
    18    17    22    1
    19    17    20   ar
    20     1     2   ar
    21     1    10    1
    22     2     5    1
    23    19    20   ar
    24    19    21    1
    25    20    26    1
    26    26    25    3
    27    10    11    1
