@<TRIPOS>MOLECULE
mol_data/opt/m06hf/geoms/mol2/4gd4gd4gd.out
 38 40 0 0 0
SMALL
GASTEIGER

@<TRIPOS>ATOM
      1 C          -0.0895    0.7986    1.1155 C.ar    1  LIG1        0.0054
      2 C           1.3059    0.7997    1.1156 C.ar    1  LIG1       -0.0396
      3 C          -0.7836    1.1853   -0.0345 C.ar    1  LIG1       -0.0473
      4 C           2.0128    1.1774   -0.0236 C.ar    1  LIG1        0.0016
      5 H           1.8605    0.5123    2.0005 H       1  LIG1        0.0635
      6 C          -0.0888    1.5662   -1.1720 C.ar    1  LIG1       -0.0427
      7 C           1.3071    1.5603   -1.1694 C.ar    1  LIG1        0.0596
      8 H          -0.6178    1.8639   -2.0667 H       1  LIG1        0.0631
      9 H          -1.8662    1.1861   -0.0382 H       1  LIG1        0.0629
     10 S          -1.0461    0.3393    2.5362 S.3     1  LIG1       -0.1426
     11 H          -0.0118   -0.0183    3.3029 H       1  LIG1        0.1071
     12 N           2.5868    2.2631   -3.3159 N.1     1  LIG1       -0.1909
     13 C           2.0265    1.9473   -2.3654 C.1     1  LIG1        0.0998
     14 C           4.2182   -0.0326    0.0158 C.ar    1  LIG1        0.0131
     15 C           5.6146   -0.0113    0.0371 C.ar    1  LIG1       -0.0390
     16 C           3.5083    1.1751   -0.0094 C.ar    1  LIG1       -0.0022
     17 C           6.3108    1.1926    0.0205 C.ar    1  LIG1        0.0016
     18 H           6.1792   -0.9351    0.0647 H       1  LIG1        0.0635
     19 C           4.1999    2.3827   -0.0316 C.ar    1  LIG1       -0.0350
     20 C           5.5923    2.3934   -0.0172 C.ar    1  LIG1        0.0601
     21 H           3.6533    3.3162   -0.0659 H       1  LIG1        0.0637
     22 S           3.2994   -1.5516    0.0110 S.3     1  LIG1       -0.1420
     23 H           4.3688   -2.3413   -0.1286 H       1  LIG1        0.1071
     24 N           6.8545    4.6613   -0.0534 N.1     1  LIG1       -0.1908
     25 C           6.2999    3.6568   -0.0443 C.1     1  LIG1        0.0998
     26 C           8.5226    0.7947   -1.1027 C.ar    1  LIG1        0.0126
     27 C           9.9202    0.7867   -1.0695 C.ar    1  LIG1       -0.0468
     28 C           7.8064    1.1907    0.0356 C.ar    1  LIG1       -0.0022
     29 C          10.5971    1.1754    0.0762 C.ar    1  LIG1       -0.0433
     30 H          10.4824    0.4780   -1.9408 H       1  LIG1        0.0629
     31 C           8.4858    1.5899    1.1824 C.ar    1  LIG1       -0.0355
     32 C           9.8787    1.5793    1.2024 C.ar    1  LIG1        0.0524
     33 H           7.9316    1.9088    2.0557 H       1  LIG1        0.0637
     34 H          11.6783    1.1693    0.1036 H       1  LIG1        0.0631
     35 S           7.6009    0.3294   -2.5466 S.3     1  LIG1       -0.1420
     36 H           8.6647    0.2429   -3.3492 H       1  LIG1        0.1071
     37 N          11.1537    2.2904    3.3484 N.1     1  LIG1       -0.1909
     38 C          10.5865    1.9808    2.4004 C.1     1  LIG1        0.0992
@<TRIPOS>BOND
     1    36    35    1
     2    12    13    3
     3    35    26    1
     4    13     7    1
     5     8     6    1
     6    30    27    1
     7     6     7   ar
     8     6     3   ar
     9     7     4   ar
    10    26    27   ar
    11    26    28   ar
    12    27    29   ar
    13    23    22    1
    14    21    19    1
    15    24    25    3
    16    25    20    1
    17     9     3    1
    18     3     1   ar
    19    19    20   ar
    20    19    16   ar
    21     4    16    1
    22     4     2   ar
    23    20    17   ar
    24    16    14   ar
    25    22    14    1
    26    14    15   ar
    27    17    28    1
    28    17    15   ar
    29    28    31   ar
    30    15    18    1
    31    29    34    1
    32    29    32   ar
    33     1     2   ar
    34     1    10    1
    35     2     5    1
    36    31    32   ar
    37    31    33    1
    38    32    38    1
    39    38    37    3
    40    10    11    1
