@<TRIPOS>MOLECULE
mol_data/opt/m06hf/geoms/mol2/4gd4gd-.out
 26 27 0 0 0
SMALL
GASTEIGER

@<TRIPOS>ATOM
      1 C           0.0073    0.2248   -0.6324 C.ar    1  LIG1        0.0054
      2 C           1.4022    0.2321   -0.6562 C.ar    1  LIG1       -0.0396
      3 C          -0.6808    1.2303    0.0535 C.ar    1  LIG1       -0.0473
      4 C           2.1173    1.2250    0.0101 C.ar    1  LIG1        0.0016
      5 H           1.9515   -0.5332   -1.1906 H       1  LIG1        0.0635
      6 C           0.0209    2.2267    0.7135 C.ar    1  LIG1       -0.0427
      7 C           1.4169    2.2233    0.6972 C.ar    1  LIG1        0.0596
      8 H          -0.5033    3.0063    1.2489 H       1  LIG1        0.0631
      9 H          -1.7630    1.2289    0.0729 H       1  LIG1        0.0629
     10 S          -0.9577   -1.0198   -1.4471 S.3     1  LIG1       -0.1426
     11 H           0.0721   -1.7478   -1.8830 H       1  LIG1        0.1071
     12 N           2.7050    4.0903    1.9600 N.1     1  LIG1       -0.1909
     13 C           2.1411    3.2594    1.4044 C.1     1  LIG1        0.0998
     14 C           4.3296    0.2080    0.6464 C.ar    1  LIG1        0.0126
     15 C           5.7267    0.2129    0.6062 C.ar    1  LIG1       -0.0468
     16 C           3.6128    1.2147   -0.0162 C.ar    1  LIG1       -0.0022
     17 C           6.4051    1.2098   -0.0778 C.ar    1  LIG1       -0.0433
     18 H           6.2886   -0.5598    1.1135 H       1  LIG1        0.0629
     19 C           4.2955    2.2195   -0.6958 C.ar    1  LIG1       -0.0355
     20 C           5.6879    2.2145   -0.7284 C.ar    1  LIG1        0.0524
     21 H           3.7422    3.0023   -1.1983 H       1  LIG1        0.0637
     22 H           7.4858    1.2154   -0.1098 H       1  LIG1        0.0631
     23 S           3.4094   -1.0281    1.5291 S.3     1  LIG1       -0.1420
     24 H           4.4765   -1.6468    2.0436 H       1  LIG1        0.1071
     25 N           6.9707    4.0637   -2.0218 N.1     1  LIG1       -0.1909
     26 C           6.3982    3.2517   -1.4479 C.1     1  LIG1        0.0992
@<TRIPOS>BOND
     1    25    26    3
     2    11    10    1
     3    26    20    1
     4    10     1    1
     5    21    19    1
     6     5     2    1
     7    20    19   ar
     8    20    17   ar
     9    19    16   ar
    10     2     1   ar
    11     2     4   ar
    12     1     3   ar
    13    22    17    1
    14    17    15   ar
    15    16     4    1
    16    16    14   ar
    17     4     7   ar
    18     3     9    1
    19     3     6   ar
    20    15    14   ar
    21    15    18    1
    22    14    23    1
    23     7     6   ar
    24     7    13    1
    25     6     8    1
    26    13    12    3
    27    23    24    1
