@<TRIPOS>MOLECULE
mol_data/opt/m06hf/geoms/mol2/4gd4gd4gd-4gd.out
 50 53 0 0 0
SMALL
GASTEIGER

@<TRIPOS>ATOM
      1 C          -0.2060    0.3188    0.7701 C.ar    1  LIG1        0.0054
      2 C           1.1893    0.3052    0.7782 C.ar    1  LIG1       -0.0396
      3 C          -0.8866    1.2420   -0.0291 C.ar    1  LIG1       -0.0473
      4 C           1.9079    1.2015   -0.0088 C.ar    1  LIG1        0.0016
      5 H           1.7347   -0.3969    1.3969 H       1  LIG1        0.0635
      6 C          -0.1795    2.1404   -0.8133 C.ar    1  LIG1       -0.0427
      7 C           1.2160    2.1184   -0.8074 C.ar    1  LIG1        0.0596
      8 H          -0.6984    2.8555   -1.4367 H       1  LIG1        0.0631
      9 H          -1.9691    1.2544   -0.0387 H       1  LIG1        0.0629
     10 S          -1.1787   -0.7867    1.7579 S.3     1  LIG1       -0.1426
     11 H          -0.1553   -1.5195    2.2057 H       1  LIG1        0.1071
     12 N           2.5430    3.7784   -2.2984 N.1     1  LIG1       -0.1909
     13 C           1.9566    3.0431   -1.6407 C.1     1  LIG1        0.0998
     14 C           4.1059    0.1506   -0.6374 C.ar    1  LIG1        0.0131
     15 C           5.5023    0.1541   -0.6214 C.ar    1  LIG1       -0.0390
     16 C           3.4033    1.1799    0.0048 C.ar    1  LIG1       -0.0022
     17 C           6.2065    1.1617    0.0300 C.ar    1  LIG1        0.0016
     18 H           6.0593   -0.6262   -1.1252 H       1  LIG1        0.0635
     19 C           4.1021    2.1964    0.6466 C.ar    1  LIG1       -0.0350
     20 C           5.4948    2.1864    0.6668 C.ar    1  LIG1        0.0601
     21 H           3.5618    2.9969    1.1347 H       1  LIG1        0.0637
     22 S           3.1690   -1.1030   -1.4713 S.3     1  LIG1       -0.1420
     23 H           4.2283   -1.7737   -1.9338 H       1  LIG1        0.1071
     24 N           6.7504    4.0833    1.9167 N.1     1  LIG1       -0.1908
     25 C           6.2020    3.2409    1.3635 C.1     1  LIG1        0.0998
     26 C           8.4102    0.1453    0.7054 C.ar    1  LIG1        0.0131
     27 C           9.8067    0.1587    0.6891 C.ar    1  LIG1       -0.0390
     28 C           7.7012    1.1511    0.0330 C.ar    1  LIG1       -0.0022
     29 C          10.5038    1.1590    0.0212 C.ar    1  LIG1        0.0016
     30 H          10.3714   -0.6112    1.2003 H       1  LIG1        0.0635
     31 C           8.3945    2.1580   -0.6328 C.ar    1  LIG1       -0.0350
     32 C           9.7867    2.1617   -0.6431 C.ar    1  LIG1        0.0601
     33 H           7.8498    2.9392   -1.1475 H       1  LIG1        0.0637
     34 S           7.4967   -1.1019    1.5806 S.3     1  LIG1       -0.1420
     35 H           8.5715   -1.6883    2.1129 H       1  LIG1        0.1071
     36 N          11.0571    4.0268   -1.9251 N.1     1  LIG1       -0.1908
     37 C          10.4979    3.2014   -1.3578 C.1     1  LIG1        0.0998
     38 C          12.6990    0.2554   -0.7991 C.ar    1  LIG1        0.0126
     39 C          14.0964    0.2608   -0.7941 C.ar    1  LIG1       -0.0468
     40 C          11.9996    1.1558    0.0153 C.ar    1  LIG1       -0.0022
     41 C          14.7895    1.1551    0.0072 C.ar    1  LIG1       -0.0433
     42 H          14.6465   -0.4307   -1.4182 H       1  LIG1        0.0629
     43 C          12.6946    2.0593    0.8133 C.ar    1  LIG1       -0.0355
     44 C          14.0877    2.0547    0.8108 C.ar    1  LIG1        0.0524
     45 H          12.1515    2.7623    1.4318 H       1  LIG1        0.0637
     46 H          15.8710    1.1616    0.0132 H       1  LIG1        0.0631
     47 S          11.7514   -0.8483   -1.8168 S.3     1  LIG1       -0.1420
     48 H          12.8073   -1.3709   -2.4486 H       1  LIG1        0.1071
     49 N          15.4095    3.7022    2.3196 N.1     1  LIG1       -0.1909
     50 C          14.8177    2.9810    1.6516 C.1     1  LIG1        0.0992
@<TRIPOS>BOND
     1    48    47    1
     2    12    13    3
     3    23    22    1
     4    36    37    3
     5    47    38    1
     6    13     7    1
     7    22    14    1
     8     8     6    1
     9    42    39    1
    10    37    32    1
    11    33    31    1
    12    18    15    1
    13     6     7   ar
    14     6     3   ar
    15     7     4   ar
    16    38    39   ar
    17    38    40   ar
    18    39    41   ar
    19    32    31   ar
    20    32    29   ar
    21    14    15   ar
    22    14    16   ar
    23    31    28   ar
    24    15    17   ar
    25     9     3    1
    26     3     1   ar
    27     4    16    1
    28     4     2   ar
    29    16    19   ar
    30    41    46    1
    31    41    44   ar
    32    40    29    1
    33    40    43   ar
    34    29    27   ar
    35    17    28    1
    36    17    20   ar
    37    28    26   ar
    38    19    20   ar
    39    19    21    1
    40    20    25    1
    41    27    26   ar
    42    27    30    1
    43    26    34    1
    44     1     2   ar
    45     1    10    1
    46     2     5    1
    47    44    43   ar
    48    44    50    1
    49    43    45    1
    50    25    24    3
    51    34    35    1
    52    50    49    3
    53    10    11    1
