@<TRIPOS>MOLECULE
mol_data/opt/m06hf/geoms/mol2/4gd4gd4gd-4gd-.out
 50 53 0 0 0
SMALL
GASTEIGER

@<TRIPOS>ATOM
      1 C          -0.2078    0.3273    0.7625 C.ar    1  LIG1        0.0054
      2 C           1.1876    0.3139    0.7741 C.ar    1  LIG1       -0.0396
      3 C          -0.8865    1.2408   -0.0494 C.ar    1  LIG1       -0.0473
      4 C           1.9080    1.2008   -0.0218 C.ar    1  LIG1        0.0016
      5 H           1.7315   -0.3806    1.4025 H       1  LIG1        0.0635
      6 C          -0.1776    2.1298   -0.8426 C.ar    1  LIG1       -0.0427
      7 C           1.2179    2.1080   -0.8331 C.ar    1  LIG1        0.0596
      8 H          -0.6951    2.8372   -1.4758 H       1  LIG1        0.0631
      9 H          -1.9690    1.2529   -0.0617 H       1  LIG1        0.0629
     10 S          -1.1828   -0.7663    1.7612 S.3     1  LIG1       -0.1426
     11 H          -0.1603   -1.4936    2.2204 H       1  LIG1        0.1071
     12 N           2.5483    3.7500   -2.3408 N.1     1  LIG1       -0.1909
     13 C           1.9604    3.0227   -1.6757 C.1     1  LIG1        0.0998
     14 C           4.1075    0.1426   -0.6326 C.ar    1  LIG1        0.0131
     15 C           5.5038    0.1465   -0.6134 C.ar    1  LIG1       -0.0390
     16 C           3.4034    1.1795   -0.0044 C.ar    1  LIG1       -0.0022
     17 C           6.2064    1.1619    0.0276 C.ar    1  LIG1        0.0016
     18 H           6.0621   -0.6398   -1.1064 H       1  LIG1        0.0635
     19 C           4.1005    2.2037    0.6268 C.ar    1  LIG1       -0.0350
     20 C           5.4932    2.1941    0.6504 C.ar    1  LIG1        0.0601
     21 H           3.5590    3.0099    1.1041 H       1  LIG1        0.0637
     22 S           3.1727   -1.1208   -1.4538 S.3     1  LIG1       -0.1420
     23 H           4.2330   -1.7971   -1.9054 H       1  LIG1        0.1071
     24 N           6.7460    4.1058    1.8804 N.1     1  LIG1       -0.1908
     25 C           6.1988    3.2569    1.3361 C.1     1  LIG1        0.0998
     26 C           8.4085    0.1545    0.7212 C.ar    1  LIG1        0.0131
     27 C           9.8051    0.1678    0.7081 C.ar    1  LIG1       -0.0390
     28 C           7.7011    1.1515    0.0342 C.ar    1  LIG1       -0.0022
     29 C          10.5037    1.1596    0.0292 C.ar    1  LIG1        0.0016
     30 H          10.3686   -0.5954    1.2306 H       1  LIG1        0.0635
     31 C           8.3960    2.1499   -0.6428 C.ar    1  LIG1       -0.0350
     32 C           9.7882    2.1535   -0.6498 C.ar    1  LIG1        0.0601
     33 H           7.8524    2.9243   -1.1688 H       1  LIG1        0.0637
     34 S           7.4928   -1.0814    1.6099 S.3     1  LIG1       -0.1420
     35 H           8.5663   -1.6611    2.1522 H       1  LIG1        0.1071
     36 N          11.0618    4.0019   -1.9525 N.1     1  LIG1       -0.1908
     37 C          10.5012    3.1840   -1.3760 C.1     1  LIG1        0.0998
     38 C          12.7010    0.2464   -0.7749 C.ar    1  LIG1        0.0126
     39 C          14.0983    0.2521   -0.7665 C.ar    1  LIG1       -0.0468
     40 C          11.9996    1.1564    0.0270 C.ar    1  LIG1       -0.0022
     41 C          14.7894    1.1560    0.0257 C.ar    1  LIG1       -0.0433
     42 H          14.6501   -0.4468   -1.3810 H       1  LIG1        0.0629
     43 C          12.6925    2.0696    0.8158 C.ar    1  LIG1       -0.0355
     44 C          14.0856    2.0651    0.8168 C.ar    1  LIG1        0.0524
     45 H          12.1478    2.7798    1.4245 H       1  LIG1        0.0637
     46 H          15.8709    1.1628    0.0342 H       1  LIG1        0.0631
     47 S          11.7559   -0.8695   -1.7815 S.3     1  LIG1       -0.1420
     48 H          12.8133   -1.3996   -2.4044 H       1  LIG1        0.1071
     49 N          15.4037    3.7308    2.3087 N.1     1  LIG1       -0.1909
     50 C          14.8135    3.0015    1.6481 C.1     1  LIG1        0.0992
@<TRIPOS>BOND
     1    48    47    1
     2    12    13    3
     3    36    37    3
     4    23    22    1
     5    47    38    1
     6    13     7    1
     7     8     6    1
     8    22    14    1
     9    42    39    1
    10    37    32    1
    11    33    31    1
    12    18    15    1
    13     6     7   ar
    14     6     3   ar
    15     7     4   ar
    16    38    39   ar
    17    38    40   ar
    18    39    41   ar
    19    32    31   ar
    20    32    29   ar
    21    31    28   ar
    22    14    15   ar
    23    14    16   ar
    24    15    17   ar
    25     9     3    1
    26     3     1   ar
    27     4    16    1
    28     4     2   ar
    29    16    19   ar
    30    41    46    1
    31    41    44   ar
    32    40    29    1
    33    40    43   ar
    34    17    28    1
    35    17    20   ar
    36    29    27   ar
    37    28    26   ar
    38    19    20   ar
    39    19    21    1
    40    20    25    1
    41    27    26   ar
    42    27    30    1
    43    26    34    1
    44     1     2   ar
    45     1    10    1
    46     2     5    1
    47    43    44   ar
    48    43    45    1
    49    44    50    1
    50    25    24    3
    51    34    35    1
    52    50    49    3
    53    10    11    1
