@<TRIPOS>MOLECULE
mol_data/opt/m06hf/geoms/mol2/4gd4gd4gd-.out
 38 40 0 0 0
SMALL
GASTEIGER

@<TRIPOS>ATOM
      1 C          -0.1054    0.1061    0.4033 C.ar    1  LIG1        0.0054
      2 C           1.2898    0.0822    0.4083 C.ar    1  LIG1       -0.0396
      3 C          -0.7795    1.2559   -0.0188 C.ar    1  LIG1       -0.0473
      4 C           2.0159    1.1940   -0.0118 C.ar    1  LIG1        0.0016
      5 H           1.8292   -0.7957    0.7420 H       1  LIG1        0.0635
      6 C          -0.0652    2.3689   -0.4334 C.ar    1  LIG1       -0.0427
      7 C           1.3301    2.3385   -0.4333 C.ar    1  LIG1        0.0596
      8 H          -0.5787    3.2611   -0.7638 H       1  LIG1        0.0631
      9 H          -1.8618    1.2766   -0.0258 H       1  LIG1        0.0629
     10 S          -1.0925   -1.2660    0.9370 S.3     1  LIG1       -0.1426
     11 H          -0.0894   -2.1371    1.0765 H       1  LIG1        0.1071
     12 N           2.6499    4.4305   -1.2210 N.1     1  LIG1       -0.1909
     13 C           2.0715    3.5011   -0.8771 C.1     1  LIG1        0.0998
     14 C           4.2145    0.3924   -0.9386 C.ar    1  LIG1        0.0131
     15 C           5.6118    0.3920   -0.9218 C.ar    1  LIG1       -0.0390
     16 C           3.5111    1.1643   -0.0044 C.ar    1  LIG1       -0.0022
     17 C           6.3119    1.1547    0.0057 C.ar    1  LIG1        0.0016
     18 H           6.1724   -0.1974   -1.6363 H       1  LIG1        0.0635
     19 C           4.2082    1.9288    0.9266 C.ar    1  LIG1       -0.0350
     20 C           5.6001    1.9211    0.9363 C.ar    1  LIG1        0.0601
     21 H           3.6664    2.5307    1.6443 H       1  LIG1        0.0637
     22 S           3.2811   -0.5350   -2.1297 S.3     1  LIG1       -0.1420
     23 H           4.3421   -0.9810   -2.8084 H       1  LIG1        0.1071
     24 N           6.8783    3.3229    2.7078 N.1     1  LIG1       -0.1908
     25 C           6.3174    2.7036    1.9213 C.1     1  LIG1        0.0998
     26 C           8.5177    0.1465    0.6635 C.ar    1  LIG1        0.0126
     27 C           9.9147    0.1723    0.6689 C.ar    1  LIG1       -0.0468
     28 C           7.8082    1.1598    0.0069 C.ar    1  LIG1       -0.0022
     29 C          10.5988    1.1966    0.0317 C.ar    1  LIG1       -0.0433
     30 H          10.4717   -0.6073    1.1712 H       1  LIG1        0.0629
     31 C           8.4933    2.1894   -0.6300 C.ar    1  LIG1       -0.0355
     32 C           9.8866    2.2043   -0.6199 C.ar    1  LIG1        0.0524
     33 H           7.9421    2.9774   -1.1266 H       1  LIG1        0.0637
     34 H          11.6800    1.2187    0.0351 H       1  LIG1        0.0631
     35 S           7.5798   -1.1340    1.4578 S.3     1  LIG1       -0.1420
     36 H           8.6245   -1.7159    2.0519 H       1  LIG1        0.1071
     37 N          11.1598    4.1117   -1.8358 N.1     1  LIG1       -0.1909
     38 C          10.5973    3.2708   -1.2945 C.1     1  LIG1        0.0992
@<TRIPOS>BOND
     1    23    22    1
     2    22    14    1
     3    37    38    3
     4    18    15    1
     5    38    32    1
     6    12    13    3
     7    33    31    1
     8    14    15   ar
     9    14    16   ar
    10    15    17   ar
    11    13     7    1
    12     8     6    1
    13    31    32   ar
    14    31    28   ar
    15    32    29   ar
    16     6     7   ar
    17     6     3   ar
    18     7     4   ar
    19     9     3    1
    20     3     1   ar
    21     4    16    1
    22     4     2   ar
    23    16    19   ar
    24    17    28    1
    25    17    20   ar
    26    28    26   ar
    27    29    34    1
    28    29    27   ar
    29     1     2   ar
    30     1    10    1
    31     2     5    1
    32    26    27   ar
    33    26    35    1
    34    27    30    1
    35    19    20   ar
    36    19    21    1
    37    20    25    1
    38    10    11    1
    39    35    36    1
    40    25    24    3
