@<TRIPOS>MOLECULE
mol_data/opt/m06hf/geoms/mol2/4gd4gd-4gd-.out
 38 40 0 0 0
SMALL
GASTEIGER

@<TRIPOS>ATOM
      1 C          -0.1040    0.0953   -0.3938 C.ar    1  LIG1        0.0054
      2 C           1.2912    0.0719   -0.3955 C.ar    1  LIG1       -0.0396
      3 C          -0.7796    1.2518    0.0072 C.ar    1  LIG1       -0.0473
      4 C           2.0159    1.1910    0.0073 C.ar    1  LIG1        0.0016
      5 H           1.8317   -0.8113   -0.7132 H       1  LIG1        0.0635
      6 C          -0.0665    2.3720    0.4044 C.ar    1  LIG1       -0.0427
      7 C           1.3287    2.3422    0.4078 C.ar    1  LIG1        0.0596
      8 H          -0.5811    3.2694    0.7185 H       1  LIG1        0.0631
      9 H          -1.8618    1.2721    0.0115 H       1  LIG1        0.0629
     10 S          -1.0896   -1.2859   -0.9067 S.3     1  LIG1       -0.1426
     11 H          -0.0860   -2.1592   -1.0285 H       1  LIG1        0.1071
     12 N           2.6462    4.4476    1.1633 N.1     1  LIG1       -0.1909
     13 C           2.0688    3.5123    0.8337 C.1     1  LIG1        0.0998
     14 C           4.2131    0.4069    0.9524 C.ar    1  LIG1        0.0131
     15 C           5.6104    0.4075    0.9388 C.ar    1  LIG1       -0.0390
     16 C           3.5112    1.1622    0.0035 C.ar    1  LIG1       -0.0022
     17 C           6.3119    1.1551    0.0000 C.ar    1  LIG1        0.0016
     18 H           6.1699   -0.1690    1.6646 H       1  LIG1        0.0635
     19 C           4.2096    1.9113   -0.9389 C.ar    1  LIG1       -0.0350
     20 C           5.6015    1.9047   -0.9451 C.ar    1  LIG1        0.0601
     21 H           3.6689    2.5004   -1.6679 H       1  LIG1        0.0637
     22 S           3.2775   -0.5005    2.1570 S.3     1  LIG1       -0.1420
     23 H           4.3372   -0.9335    2.8463 H       1  LIG1        0.1071
     24 N           6.8825    3.2769   -2.7378 N.1     1  LIG1       -0.1908
     25 C           6.3205    2.6709   -1.9419 C.1     1  LIG1        0.0998
     26 C           8.5205    0.1381   -0.6341 C.ar    1  LIG1        0.0126
     27 C           9.9176    0.1657   -0.6368 C.ar    1  LIG1       -0.0468
     28 C           7.8083    1.1622    0.0024 C.ar    1  LIG1       -0.0022
     29 C          10.5988    1.2024   -0.0169 C.ar    1  LIG1       -0.0433
     30 H          10.4768   -0.6220   -1.1237 H       1  LIG1        0.0629
     31 C           8.4904    2.2042    0.6220 C.ar    1  LIG1       -0.0355
     32 C           9.8838    2.2207    0.6147 C.ar    1  LIG1        0.0524
     33 H           7.9370    3.0003    1.1030 H       1  LIG1        0.0637
     34 H          11.6800    1.2260   -0.0183 H       1  LIG1        0.0631
     35 S           7.5862   -1.1580   -1.4071 S.3     1  LIG1       -0.1420
     36 H           8.6331   -1.7493   -1.9880 H       1  LIG1        0.1071
     37 N          11.1517    4.1515    1.7988 N.1     1  LIG1       -0.1909
     38 C          10.5915    3.3003    1.2716 C.1     1  LIG1        0.0992
@<TRIPOS>BOND
     1    24    25    3
     2    36    35    1
     3    25    20    1
     4    21    19    1
     5    35    26    1
     6    30    27    1
     7    11    10    1
     8    20    19   ar
     9    20    17   ar
    10    19    16   ar
    11    10     1    1
    12     5     2    1
    13    27    26   ar
    14    27    29   ar
    15    26    28   ar
    16     2     1   ar
    17     2     4   ar
    18     1     3   ar
    19    34    29    1
    20    29    32   ar
    21    17    28    1
    22    17    15   ar
    23    28    31   ar
    24    16     4    1
    25    16    14   ar
    26     3     9    1
    27     3     6   ar
    28     4     7   ar
    29     6     7   ar
    30     6     8    1
    31     7    13    1
    32    32    31   ar
    33    32    38    1
    34    31    33    1
    35    13    12    3
    36    15    14   ar
    37    15    18    1
    38    14    22    1
    39    38    37    3
    40    22    23    1
