@<TRIPOS>MOLECULE
mol_data/opt/m06hf/geoms/mol2/4gd4gd-4gd4gd-.out
 50 53 0 0 0
SMALL
GASTEIGER

@<TRIPOS>ATOM
      1 C          -0.2047    0.3068   -0.7606 C.ar    1  LIG1        0.0054
      2 C           1.1907    0.2940   -0.7671 C.ar    1  LIG1       -0.0396
      3 C          -0.8867    1.2374    0.0288 C.ar    1  LIG1       -0.0473
      4 C           1.9079    1.1985    0.0116 C.ar    1  LIG1        0.0016
      5 H           1.7371   -0.4138   -1.3783 H       1  LIG1        0.0635
      6 C          -0.1810    2.1440    0.8047 C.ar    1  LIG1       -0.0427
      7 C           1.2146    2.1229    0.8005 C.ar    1  LIG1        0.0596
      8 H          -0.7010    2.8648    1.4205 H       1  LIG1        0.0631
      9 H          -1.9692    1.2492    0.0371 H       1  LIG1        0.0629
     10 S          -1.1757   -0.8091   -1.7384 S.3     1  LIG1       -0.1426
     11 H          -0.1513   -1.5456   -2.1780 H       1  LIG1        0.1071
     12 N           2.5389    3.7984    2.2763 N.1     1  LIG1       -0.1909
     13 C           1.9537    3.0563    1.6253 C.1     1  LIG1        0.0998
     14 C           4.1058    0.1553    0.6529 C.ar    1  LIG1        0.0131
     15 C           5.5023    0.1596    0.6383 C.ar    1  LIG1       -0.0390
     16 C           3.4033    1.1778   -0.0002 C.ar    1  LIG1       -0.0022
     17 C           6.2065    1.1611   -0.0224 C.ar    1  LIG1        0.0016
     18 H           6.0593   -0.6154    1.1504 H       1  LIG1        0.0635
     19 C           4.1021    2.1882   -0.6514 C.ar    1  LIG1       -0.0350
     20 C           5.4948    2.1789   -0.6701 C.ar    1  LIG1        0.0601
     21 H           3.5618    2.9835   -1.1481 H       1  LIG1        0.0637
     22 S           3.1689   -1.0904    1.4984 S.3     1  LIG1       -0.1420
     23 H           4.2280   -1.7559    1.9685 H       1  LIG1        0.1071
     24 N           6.7506    4.0641   -1.9375 N.1     1  LIG1       -0.1908
     25 C           6.2021    3.2269   -1.3766 C.1     1  LIG1        0.0998
     26 C           8.4115    0.1393   -0.6854 C.ar    1  LIG1        0.0131
     27 C           9.8080    0.1537   -0.6678 C.ar    1  LIG1       -0.0390
     28 C           7.7012    1.1514   -0.0238 C.ar    1  LIG1       -0.0022
     29 C          10.5038    1.1610   -0.0092 C.ar    1  LIG1        0.0016
     30 H          10.3737   -0.6209   -1.1708 H       1  LIG1        0.0635
     31 C           8.3933    2.1652    0.6327 C.ar    1  LIG1       -0.0350
     32 C           9.7855    2.1698    0.6444 C.ar    1  LIG1        0.0601
     33 H           7.8476    2.9511    1.1391 H       1  LIG1        0.0637
     34 S           7.4996   -1.1170   -1.5491 S.3     1  LIG1       -0.1420
     35 H           8.5753   -1.7080   -2.0745 H       1  LIG1        0.1071
     36 N          11.0534    4.0483    1.9091 N.1     1  LIG1       -0.1908
     37 C          10.4953    3.2170    1.3494 C.1     1  LIG1        0.0998
     38 C          12.6987    0.2668    0.8223 C.ar    1  LIG1        0.0126
     39 C          14.0961    0.2730    0.8186 C.ar    1  LIG1       -0.0468
     40 C          11.9996    1.1587   -0.0017 C.ar    1  LIG1       -0.0022
     41 C          14.7895    1.1598    0.0092 C.ar    1  LIG1       -0.0433
     42 H          14.6460   -0.4121    1.4500 H       1  LIG1        0.0629
     43 C          12.6949    2.0547   -0.8079 C.ar    1  LIG1       -0.0355
     44 C          14.0880    2.0509   -0.8040 C.ar    1  LIG1        0.0524
     45 H          12.1521    2.7513   -1.4339 H       1  LIG1        0.0637
     46 H          15.8710    1.1668    0.0043 H       1  LIG1        0.0631
     47 S          11.7507   -0.8274    1.8499 S.3     1  LIG1       -0.1420
     48 H          12.8062   -1.3431    2.4878 H       1  LIG1        0.1071
     49 N          15.4104    3.6843   -2.3275 N.1     1  LIG1       -0.1909
     50 C          14.8184    2.9693   -1.6531 C.1     1  LIG1        0.0992
@<TRIPOS>BOND
     1    49    50    3
     2    11    10    1
     3    35    34    1
     4    24    25    3
     5    10     1    1
     6    50    44    1
     7    34    26    1
     8    45    43    1
     9     5     2    1
    10    25    20    1
    11    30    27    1
    12    21    19    1
    13    43    44   ar
    14    43    40   ar
    15    44    41   ar
    16     2     1   ar
    17     2     4   ar
    18     1     3   ar
    19    26    27   ar
    20    26    28   ar
    21    20    19   ar
    22    20    17   ar
    23    27    29   ar
    24    19    16   ar
    25    28    17    1
    26    28    31   ar
    27    17    15   ar
    28    29    40    1
    29    29    32   ar
    30    40    38   ar
    31    16     4    1
    32    16    14   ar
    33    46    41    1
    34    41    39   ar
    35     4     7   ar
    36     3     9    1
    37     3     6   ar
    38    31    32   ar
    39    31    33    1
    40    15    14   ar
    41    15    18    1
    42    32    37    1
    43    14    22    1
    44     7     6   ar
    45     7    13    1
    46     6     8    1
    47    39    38   ar
    48    39    42    1
    49    38    47    1
    50    37    36    3
    51    22    23    1
    52    13    12    3
    53    47    48    1
