@<TRIPOS>MOLECULE
mol_data/opt/m06hf/geoms/mol2/4gd4gd4gd4gd.out
 50 53 0 0 0
SMALL
GASTEIGER

@<TRIPOS>ATOM
      1 C          -0.2150    1.4639    1.0953 C.ar    1  LIG1        0.0054
      2 C           1.1804    1.4758    1.1192 C.ar    1  LIG1       -0.0396
      3 C          -0.8866    1.1754   -0.0961 C.ar    1  LIG1       -0.0473
      4 C           1.9088    1.1899   -0.0331 C.ar    1  LIG1        0.0016
      5 H           1.7164    1.7116    2.0303 H       1  LIG1        0.0635
      6 C          -0.1704    0.8998   -1.2506 C.ar    1  LIG1       -0.0427
      7 C           1.2249    0.9018   -1.2199 C.ar    1  LIG1        0.0596
      8 H          -0.6818    0.6728   -2.1756 H       1  LIG1        0.0631
      9 H          -1.9688    1.1621   -0.1163 H       1  LIG1        0.0629
     10 S          -1.2011    1.8253    2.5237 S.3     1  LIG1       -0.1426
     11 H          -0.1969    1.8405    3.4031 H       1  LIG1        0.1071
     12 N           2.5490    0.3534   -3.3844 N.1     1  LIG1       -0.1909
     13 C           1.9675    0.5921   -2.4243 C.1     1  LIG1        0.0998
     14 C           4.1024    0.2065    0.7129 C.ar    1  LIG1        0.0131
     15 C           5.4987    0.2264    0.7274 C.ar    1  LIG1       -0.0390
     16 C           3.4037    1.1921    0.0023 C.ar    1  LIG1       -0.0022
     17 C           6.2078    1.1975    0.0283 C.ar    1  LIG1        0.0016
     18 H           6.0523   -0.5214    1.2821 H       1  LIG1        0.0635
     19 C           4.1082    2.1684   -0.6953 C.ar    1  LIG1       -0.0350
     20 C           5.5007    2.1726   -0.6858 C.ar    1  LIG1        0.0601
     21 H           3.5719    2.9233   -1.2557 H       1  LIG1        0.0637
     22 S           3.1719   -1.0475    1.5579 S.3     1  LIG1       -0.1420
     23 H           4.2278   -1.8124    1.8510 H       1  LIG1        0.1071
     24 N           6.7694    4.0215   -1.9929 N.1     1  LIG1       -0.1908
     25 C           6.2145    3.1954   -1.4220 C.1     1  LIG1        0.0998
     26 C           8.4041    0.1433   -0.5933 C.ar    1  LIG1        0.0131
     27 C           9.8005    0.1437   -0.5691 C.ar    1  LIG1       -0.0390
     28 C           7.7027    1.1820    0.0358 C.ar    1  LIG1       -0.0022
     29 C          10.5058    1.1666    0.0557 C.ar    1  LIG1        0.0016
     30 H          10.3583   -0.6545   -1.0434 H       1  LIG1        0.0635
     31 C           8.4028    2.2111    0.6574 C.ar    1  LIG1       -0.0350
     32 C           9.7955    2.2056    0.6685 C.ar    1  LIG1        0.0601
     33 H           7.8647    3.0227    1.1300 H       1  LIG1        0.0637
     34 S           7.4802   -1.1289   -1.4186 S.3     1  LIG1       -0.1420
     35 H           8.5456   -1.7102   -1.9762 H       1  LIG1        0.1071
     36 N          11.0571    4.1294    1.8705 N.1     1  LIG1       -0.1908
     37 C          10.5072    3.2813    1.3274 C.1     1  LIG1        0.0998
     38 C          12.7112    1.4347   -1.1177 C.ar    1  LIG1        0.0126
     39 C          14.1088    1.4068   -1.1028 C.ar    1  LIG1       -0.0468
     40 C          12.0017    1.1499    0.0576 C.ar    1  LIG1       -0.0022
     41 C          14.7926    1.1041    0.0646 C.ar    1  LIG1       -0.0433
     42 H          14.6659    1.6260   -2.0040 H       1  LIG1        0.0629
     43 C          12.6879    0.8562    1.2315 C.ar    1  LIG1       -0.0355
     44 C          14.0808    0.8305    1.2331 C.ar    1  LIG1        0.0524
     45 H          12.1392    0.6484    2.1408 H       1  LIG1        0.0637
     46 H          15.8738    1.0814    0.0774 H       1  LIG1        0.0631
     47 S          11.7811    1.8410   -2.5731 S.3     1  LIG1       -0.1420
     48 H          12.8484    2.0884   -3.3357 H       1  LIG1        0.1071
     49 N          15.3630    0.2443    3.4122 N.1     1  LIG1       -0.1909
     50 C          14.7938    0.5082    2.4518 C.1     1  LIG1        0.0992
@<TRIPOS>BOND
     1    12    13    3
     2    48    47    1
     3    47    38    1
     4    13     7    1
     5     8     6    1
     6    42    39    1
     7    24    25    3
     8    35    34    1
     9    25    20    1
    10    34    26    1
    11    21    19    1
    12     6     7   ar
    13     6     3   ar
    14     7     4   ar
    15    38    39   ar
    16    38    40   ar
    17    39    41   ar
    18    30    27    1
    19    19    20   ar
    20    19    16   ar
    21    20    17   ar
    22    26    27   ar
    23    26    28   ar
    24    27    29   ar
    25     9     3    1
    26     3     1   ar
    27     4    16    1
    28     4     2   ar
    29    16    14   ar
    30    17    28    1
    31    17    15   ar
    32    28    31   ar
    33    29    40    1
    34    29    32   ar
    35    40    43   ar
    36    41    46    1
    37    41    44   ar
    38    31    32   ar
    39    31    33    1
    40    32    37    1
    41    14    15   ar
    42    14    22    1
    43    15    18    1
    44     1     2   ar
    45     1    10    1
    46     2     5    1
    47    43    44   ar
    48    43    45    1
    49    44    50    1
    50    37    36    3
    51    22    23    1
    52    50    49    3
    53    10    11    1
