@<TRIPOS>MOLECULE
mol_data/opt/m06hf/geoms/mol2/4ge.out
 15 15 0 0 0
SMALL
GASTEIGER

@<TRIPOS>ATOM
      1 C           0.1038    0.0538   -0.0207 C.ar    1  LIG1        0.0048
      2 C           1.4991    0.0413   -0.0237 C.ar    1  LIG1       -0.0474
      3 C          -0.5778    1.2729   -0.0096 C.ar    1  LIG1       -0.0474
      4 C           2.2057    1.2371   -0.0118 C.ar    1  LIG1       -0.0453
      5 H           2.0385   -0.8968   -0.0383 H       1  LIG1        0.0629
      6 C           0.1288    2.4670   -0.0038 C.ar    1  LIG1       -0.0453
      7 C           1.5271    2.4583   -0.0034 C.ar    1  LIG1        0.0247
      8 H          -0.3961    3.4122    0.0044 H       1  LIG1        0.0630
      9 H           3.2870    1.2309   -0.0119 H       1  LIG1        0.0630
     10 H          -1.6603    1.2861   -0.0015 H       1  LIG1        0.0629
     11 S          -0.8739   -1.4318   -0.0486 S.3     1  LIG1       -0.1426
     12 H           0.1413   -2.2823    0.1250 H       1  LIG1        0.1071
     13 C           2.2634    3.7005    0.0062 C.1     1  LIG1       -0.0697
     14 C           2.8758    4.7343    0.0139 C.1     1  LIG1       -0.1139
     15 H           3.4185    5.6511    0.0206 H       1  LIG1        0.1232
@<TRIPOS>BOND
     1    11     1    1
     2    11    12    1
     3     5     2    1
     4     2     1   ar
     5     2     4   ar
     6     1     3   ar
     7     9     4    1
     8     4     7   ar
     9     3     6   ar
    10     3    10    1
    11     6     7   ar
    12     6     8    1
    13     7    13    1
    14    13    14    3
    15    14    15    1
