@<TRIPOS>MOLECULE
mol_data/opt/m06hf/geoms/mol2/4ge4ge-4ge-.out
 41 43 0 0 0
SMALL
GASTEIGER

@<TRIPOS>ATOM
      1 C          -0.0741    0.1101   -0.4067 C.ar    1  LIG1        0.0054
      2 C           1.3192    0.1325   -0.4062 C.ar    1  LIG1       -0.0396
      3 C          -0.7821    1.2374    0.0165 C.ar    1  LIG1       -0.0474
      4 C           2.0123    1.2629    0.0241 C.ar    1  LIG1       -0.0004
      5 H           1.8868   -0.7269   -0.7427 H       1  LIG1        0.0635
      6 C          -0.0989    2.3700    0.4311 C.ar    1  LIG1       -0.0447
      7 C           1.2996    2.3957    0.4438 C.ar    1  LIG1        0.0325
      8 H          -0.6417    3.2455    0.7602 H       1  LIG1        0.0630
      9 H          -1.8647    1.2264    0.0228 H       1  LIG1        0.0629
     10 S          -1.0090   -1.3009   -0.9477 S.3     1  LIG1       -0.1426
     11 H           0.0309   -2.1291   -1.0726 H       1  LIG1        0.1071
     12 C           1.9881    3.5819    0.8947 C.1     1  LIG1       -0.0691
     13 C           2.5456    4.5793    1.2668 C.1     1  LIG1       -0.1139
     14 H           3.0463    5.4599    1.5970 H       1  LIG1        0.1232
     15 C           4.2181    0.3978    0.8792 C.ar    1  LIG1        0.0131
     16 C           5.6136    0.3994    0.8469 C.ar    1  LIG1       -0.0390
     17 C           3.5076    1.2502    0.0246 C.ar    1  LIG1       -0.0023
     18 C           6.3097    1.2337   -0.0219 C.ar    1  LIG1       -0.0004
     19 H           6.1790   -0.2483    1.5062 H       1  LIG1        0.0635
     20 C           4.2043    2.0932   -0.8364 C.ar    1  LIG1       -0.0369
     21 C           5.5989    2.0931   -0.8736 C.ar    1  LIG1        0.0330
     22 H           3.6544    2.7563   -1.4913 H       1  LIG1        0.0636
     23 S           3.3083   -0.6403    2.0030 S.3     1  LIG1       -0.1420
     24 H           4.3896   -1.1690    2.5823 H       1  LIG1        0.1071
     25 C           6.2936    2.9645   -1.7910 C.1     1  LIG1       -0.0690
     26 C           6.8626    3.6933   -2.5582 C.1     1  LIG1       -0.1139
     27 H           7.3731    4.3338   -3.2393 H       1  LIG1        0.1232
     28 C           8.4935    0.0951   -0.5341 C.ar    1  LIG1        0.0126
     29 C           9.8908    0.0878   -0.5257 C.ar    1  LIG1       -0.0468
     30 C           7.8049    1.2063   -0.0334 C.ar    1  LIG1       -0.0024
     31 C          10.5958    1.1760   -0.0344 C.ar    1  LIG1       -0.0453
     32 H          10.4317   -0.7694   -0.9053 H       1  LIG1        0.0629
     33 C           8.5186    2.2981    0.4541 C.ar    1  LIG1       -0.0375
     34 C           9.9137    2.2924    0.4591 C.ar    1  LIG1        0.0253
     35 H           7.9814    3.1598    0.8282 H       1  LIG1        0.0636
     36 H          11.6771    1.1683   -0.0291 H       1  LIG1        0.0630
     37 S           7.5434   -1.2664   -1.1776 S.3     1  LIG1       -0.1420
     38 H           8.5928   -1.9279   -1.6724 H       1  LIG1        0.1071
     39 C          10.6453    3.4273    0.9707 C.1     1  LIG1       -0.0696
     40 C          11.2582    4.3686    1.3974 C.1     1  LIG1       -0.1139
     41 H          11.8002    5.2034    1.7772 H       1  LIG1        0.1232
@<TRIPOS>BOND
     1    27    26    1
     2    26    25    3
     3    25    21    1
     4    38    37    1
     5    22    20    1
     6    37    28    1
     7    11    10    1
     8    10     1    1
     9    32    29    1
    10    21    20   ar
    11    21    18   ar
    12    20    17   ar
    13     5     2    1
    14    28    29   ar
    15    28    30   ar
    16    29    31   ar
    17     1     2   ar
    18     1     3   ar
    19     2     4   ar
    20    31    36    1
    21    31    34   ar
    22    30    18    1
    23    30    33   ar
    24    18    16   ar
    25     3     9    1
    26     3     6   ar
    27     4    17    1
    28     4     7   ar
    29    17    15   ar
    30     6     7   ar
    31     6     8    1
    32     7    12    1
    33    33    34   ar
    34    33    35    1
    35    34    39    1
    36    16    15   ar
    37    16    19    1
    38    15    23    1
    39    12    13    3
    40    39    40    3
    41    13    14    1
    42    40    41    1
    43    23    24    1
