@<TRIPOS>MOLECULE
mol_data/opt/m06hf/geoms/mol2/4ge4ge4ge-4ge-.out
 54 57 0 0 0
SMALL
GASTEIGER

@<TRIPOS>ATOM
      1 C          -0.1688    0.3109    0.8937 C.ar    1  LIG1        0.0054
      2 C           1.2245    0.3293    0.8716 C.ar    1  LIG1       -0.0396
      3 C          -0.8836    1.2344    0.1275 C.ar    1  LIG1       -0.0474
      4 C           1.9078    1.2557    0.0856 C.ar    1  LIG1       -0.0004
      5 H           1.7983   -0.3715    1.4659 H       1  LIG1        0.0635
      6 C          -0.2090    2.1649   -0.6476 C.ar    1  LIG1       -0.0447
      7 C           1.1890    2.1833   -0.6813 C.ar    1  LIG1        0.0325
      8 H          -0.7574    2.8810   -1.2441 H       1  LIG1        0.0630
      9 H          -1.9663    1.2202    0.1355 H       1  LIG1        0.0629
     10 S          -1.1004   -0.8282    1.8895 S.3     1  LIG1       -0.1426
     11 H          -0.0808   -1.6324    2.1997 H       1  LIG1        0.1071
     12 C           1.8773    3.1464   -1.5075 C.1     1  LIG1       -0.0691
     13 C           2.4359    3.9561   -2.1976 C.1     1  LIG1       -0.1139
     14 H           2.9373    4.6703   -2.8089 H       1  LIG1        0.1232
     15 C           4.1051    0.2248   -0.5764 C.ar    1  LIG1        0.0131
     16 C           5.5000    0.2389   -0.5739 C.ar    1  LIG1       -0.0390
     17 C           3.4033    1.2491    0.0714 C.ar    1  LIG1       -0.0023
     18 C           6.2065    1.2498    0.0723 C.ar    1  LIG1       -0.0004
     19 H           6.0566   -0.5386   -1.0832 H       1  LIG1        0.0635
     20 C           4.1074    2.2686    0.7028 C.ar    1  LIG1       -0.0369
     21 C           5.5031    2.2801    0.7167 C.ar    1  LIG1        0.0330
     22 H           3.5640    3.0653    1.1934 H       1  LIG1        0.0636
     23 S           3.1700   -1.0408   -1.4033 S.3     1  LIG1       -0.1420
     24 H           4.2319   -1.7012   -1.8761 H       1  LIG1        0.1071
     25 C           6.1973    3.3459    1.3998 C.1     1  LIG1       -0.0690
     26 C           6.7594    4.2416    1.9711 C.1     1  LIG1       -0.1139
     27 H           7.2645    5.0313    2.4778 H       1  LIG1        0.1232
     28 C           8.4216    0.1870    0.6461 C.ar    1  LIG1        0.0131
     29 C           9.8162    0.1936    0.5876 C.ar    1  LIG1       -0.0390
     30 C           7.7010    1.2311    0.0509 C.ar    1  LIG1       -0.0023
     31 C          10.5037    1.2213   -0.0502 C.ar    1  LIG1       -0.0004
     32 H          10.3880   -0.6042    1.0459 H       1  LIG1        0.0635
     33 C           8.3899    2.2651   -0.5771 C.ar    1  LIG1       -0.0369
     34 C           9.7835    2.2733   -0.6372 C.ar    1  LIG1        0.0330
     35 H           7.8342    3.0759   -1.0290 H       1  LIG1        0.0636
     36 S           7.5274   -1.0995    1.4912 S.3     1  LIG1       -0.1420
     37 H           8.6134   -1.7542    1.9125 H       1  LIG1        0.1071
     38 C          10.4661    3.3538   -1.3083 C.1     1  LIG1       -0.0690
     39 C          11.0266    4.2581   -1.8668 C.1     1  LIG1       -0.1139
     40 H          11.5309    5.0555   -2.3618 H       1  LIG1        0.1232
     41 C          12.6737    0.2408   -0.8641 C.ar    1  LIG1        0.0126
     42 C          14.0711    0.2308   -0.8802 C.ar    1  LIG1       -0.0468
     43 C          11.9982    1.1961   -0.0946 C.ar    1  LIG1       -0.0024
     44 C          14.7884    1.1659   -0.1501 C.ar    1  LIG1       -0.0453
     45 H          14.6023   -0.5069   -1.4676 H       1  LIG1        0.0629
     46 C          12.7245    2.1365    0.6315 C.ar    1  LIG1       -0.0375
     47 C          14.1194    2.1294    0.6114 C.ar    1  LIG1        0.0253
     48 H          12.1977    2.8818    1.2129 H       1  LIG1        0.0636
     49 H          15.8699    1.1573   -0.1650 H       1  LIG1        0.0630
     50 S          11.7086   -0.9153   -1.8133 S.3     1  LIG1       -0.1420
     51 H          12.7584   -1.4651   -2.4329 H       1  LIG1        0.1071
     52 C          14.8646    3.1068    1.3692 C.1     1  LIG1       -0.0696
     53 C          15.4872    3.9200    1.9978 C.1     1  LIG1       -0.1139
     54 H          16.0370    4.6423    2.5554 H       1  LIG1        0.1232
@<TRIPOS>BOND
     1    14    13    1
     2    51    50    1
     3    40    39    1
     4    13    12    3
     5    24    23    1
     6    39    38    3
     7    50    41    1
     8    12     7    1
     9    45    42    1
    10    23    15    1
    11    38    34    1
    12     8     6    1
    13    19    16    1
    14    35    33    1
    15    42    41   ar
    16    42    44   ar
    17    41    43   ar
    18     7     6   ar
    19     7     4   ar
    20     6     3   ar
    21    34    33   ar
    22    34    31   ar
    23    33    30   ar
    24    15    16   ar
    25    15    17   ar
    26    16    18   ar
    27    49    44    1
    28    44    47   ar
    29    43    31    1
    30    43    46   ar
    31    31    29   ar
    32    30    18    1
    33    30    28   ar
    34    17     4    1
    35    17    20   ar
    36    18    21   ar
    37     4     2   ar
    38     3     9    1
    39     3     1   ar
    40    29    28   ar
    41    29    32    1
    42    47    46   ar
    43    47    52    1
    44    46    48    1
    45    28    36    1
    46    20    21   ar
    47    20    22    1
    48    21    25    1
    49     2     1   ar
    50     2     5    1
    51     1    10    1
    52    52    53    3
    53    25    26    3
    54    36    37    1
    55    10    11    1
    56    26    27    1
    57    53    54    1
