@<TRIPOS>MOLECULE
mol_data/opt/m06hf/geoms/mol2/4ge4ge-4ge4ge.out
 54 57 0 0 0
SMALL
GASTEIGER

@<TRIPOS>ATOM
      1 C          -0.1687    0.3008   -0.8762 C.ar    1  LIG1        0.0054
      2 C           1.2245    0.3200   -0.8549 C.ar    1  LIG1       -0.0396
      3 C          -0.8835    1.2297   -0.1166 C.ar    1  LIG1       -0.0474
      4 C           1.9079    1.2526   -0.0764 C.ar    1  LIG1       -0.0004
      5 H           1.7984   -0.3851   -1.4442 H       1  LIG1        0.0635
      6 C          -0.2089    2.1664    0.6512 C.ar    1  LIG1       -0.0447
      7 C           1.1891    2.1857    0.6839 C.ar    1  LIG1        0.0325
      8 H          -0.7574    2.8867    1.2424 H       1  LIG1        0.0630
      9 H          -1.9662    1.2150   -0.1238 H       1  LIG1        0.0629
     10 S          -1.1004   -0.8463   -1.8628 S.3     1  LIG1       -0.1426
     11 H          -0.0806   -1.6524   -2.1674 H       1  LIG1        0.1071
     12 C           1.8774    3.1553    1.5023 C.1     1  LIG1       -0.0691
     13 C           2.4361    3.9705    2.1860 C.1     1  LIG1       -0.1139
     14 H           2.9375    4.6895    2.7915 H       1  LIG1        0.1232
     15 C           4.1060    0.2279    0.5924 C.ar    1  LIG1        0.0131
     16 C           5.5009    0.2425    0.5890 C.ar    1  LIG1       -0.0390
     17 C           3.4034    1.2468   -0.0630 C.ar    1  LIG1       -0.0023
     18 C           6.2066    1.2487   -0.0654 C.ar    1  LIG1       -0.0004
     19 H           6.0581   -0.5307    1.1040 H       1  LIG1        0.0635
     20 C           4.1066    2.2617   -0.7026 C.ar    1  LIG1       -0.0369
     21 C           5.5023    2.2737   -0.7174 C.ar    1  LIG1        0.0330
     22 H           3.5627    3.0544   -1.1990 H       1  LIG1        0.0636
     23 S           3.1719   -1.0318    1.4295 S.3     1  LIG1       -0.1420
     24 H           4.2343   -1.6880    1.9068 H       1  LIG1        0.1071
     25 C           6.1957    3.3346   -1.4091 C.1     1  LIG1       -0.0690
     26 C           6.7570    4.2260   -1.9876 C.1     1  LIG1       -0.1139
     27 H           7.2615    5.0121   -2.5006 H       1  LIG1        0.1232
     28 C           8.4219    0.1826   -0.6322 C.ar    1  LIG1        0.0131
     29 C           9.8165    0.1903   -0.5746 C.ar    1  LIG1       -0.0390
     30 C           7.7011    1.2309   -0.0446 C.ar    1  LIG1       -0.0023
     31 C          10.5039    1.2232    0.0549 C.ar    1  LIG1       -0.0004
     32 H          10.3884   -0.6107   -1.0271 H       1  LIG1        0.0635
     33 C           8.3899    2.2700    0.5750 C.ar    1  LIG1       -0.0369
     34 C           9.7834    2.2794    0.6342 C.ar    1  LIG1        0.0330
     35 H           7.8340    3.0841    1.0209 H       1  LIG1        0.0636
     36 S           7.5277   -1.1108   -1.4669 S.3     1  LIG1       -0.1420
     37 H           8.6138   -1.7684   -1.8835 H       1  LIG1        0.1071
     38 C          10.4660    3.3653    1.2966 C.1     1  LIG1       -0.0690
     39 C          11.0262    4.2742    1.8479 C.1     1  LIG1       -0.1139
     40 H          11.5305    5.0756    2.3363 H       1  LIG1        0.1232
     41 C          12.6749    0.2502    0.8750 C.ar    1  LIG1        0.0126
     42 C          14.0723    0.2411    0.8903 C.ar    1  LIG1       -0.0468
     43 C          11.9984    1.1992    0.0986 C.ar    1  LIG1       -0.0024
     44 C          14.7887    1.1709    0.1525 C.ar    1  LIG1       -0.0453
     45 H          14.6043   -0.4918    1.4830 H       1  LIG1        0.0629
     46 C          12.7237    2.1343   -0.6352 C.ar    1  LIG1       -0.0375
     47 C          14.1187    2.1281   -0.6160 C.ar    1  LIG1        0.0253
     48 H          12.1961    2.8748   -1.2220 H       1  LIG1        0.0636
     49 H          15.8701    1.1630    0.1668 H       1  LIG1        0.0630
     50 S          11.7110   -0.8991    1.8337 S.3     1  LIG1       -0.1420
     51 H          12.7615   -1.4432    2.4571 H       1  LIG1        0.1071
     52 C          14.8629    3.1001   -1.3817 C.1     1  LIG1       -0.0696
     53 C          15.4846    3.9087   -2.0169 C.1     1  LIG1       -0.1139
     54 H          16.0336    4.6270   -2.5805 H       1  LIG1        0.1232
@<TRIPOS>BOND
     1    54    53    1
     2    27    26    1
     3    11    10    1
     4    53    52    3
     5    26    25    3
     6    37    36    1
     7    10     1    1
     8    36    28    1
     9     5     2    1
    10    25    21    1
    11    52    47    1
    12    48    46    1
    13    22    20    1
    14    32    29    1
    15     1     2   ar
    16     1     3   ar
    17     2     4   ar
    18    21    20   ar
    19    21    18   ar
    20    20    17   ar
    21    46    47   ar
    22    46    43   ar
    23    28    29   ar
    24    28    30   ar
    25    47    44   ar
    26    29    31   ar
    27     9     3    1
    28     3     6   ar
    29     4    17    1
    30     4     7   ar
    31    18    30    1
    32    18    16   ar
    33    17    15   ar
    34    30    33   ar
    35    31    43    1
    36    31    34   ar
    37    43    41   ar
    38    44    49    1
    39    44    42   ar
    40    33    34   ar
    41    33    35    1
    42    16    15   ar
    43    16    19    1
    44    15    23    1
    45    34    38    1
    46     6     7   ar
    47     6     8    1
    48     7    12    1
    49    41    42   ar
    50    41    50    1
    51    42    45    1
    52    38    39    3
    53    23    24    1
    54    12    13    3
    55    50    51    1
    56    39    40    1
    57    13    14    1
