@<TRIPOS>MOLECULE
mol_data/opt/m06hf/geoms/mol2/4ge4ge4ge.out
 41 43 0 0 0
SMALL
GASTEIGER

@<TRIPOS>ATOM
      1 C           0.0063    0.8346    1.4274 C.ar    1  LIG1        0.0054
      2 C           1.3965    0.8459    1.3314 C.ar    1  LIG1       -0.0396
      3 C          -0.7641    1.2697    0.3469 C.ar    1  LIG1       -0.0474
      4 C           2.0225    1.2789    0.1633 C.ar    1  LIG1       -0.0004
      5 H           2.0118    0.5245    2.1631 H       1  LIG1        0.0635
      6 C          -0.1470    1.7107   -0.8134 C.ar    1  LIG1       -0.0447
      7 C           1.2475    1.7171   -0.9199 C.ar    1  LIG1        0.0325
      8 H          -0.7381    2.0466   -1.6541 H       1  LIG1        0.0630
      9 H          -1.8448    1.2583    0.4144 H       1  LIG1        0.0629
     10 S          -0.8534    0.3185    2.8948 S.3     1  LIG1       -0.1426
     11 H           0.2016   -0.2193    3.5128 H       1  LIG1        0.1071
     12 C           1.8736    2.1658   -2.1408 C.1     1  LIG1       -0.0691
     13 C           2.3836    2.5425   -3.1618 C.1     1  LIG1       -0.1139
     14 H           2.8434    2.8726   -4.0646 H       1  LIG1        0.1232
     15 C           4.2399    0.0902    0.0339 C.ar    1  LIG1        0.0131
     16 C           5.6333    0.1321   -0.0352 C.ar    1  LIG1       -0.0390
     17 C           3.5160    1.2872    0.0841 C.ar    1  LIG1       -0.0023
     18 C           6.3124    1.3466   -0.0632 C.ar    1  LIG1       -0.0004
     19 H           6.2106   -0.7839   -0.0714 H       1  LIG1        0.0635
     20 C           4.1950    2.5018    0.0533 C.ar    1  LIG1       -0.0369
     21 C           5.5874    2.5466   -0.0195 C.ar    1  LIG1        0.0330
     22 H           3.6321    3.4256    0.0778 H       1  LIG1        0.0636
     23 S           3.3398   -1.4435    0.0411 S.3     1  LIG1       -0.1420
     24 H           4.4172   -2.2224   -0.0886 H       1  LIG1        0.1071
     25 C           6.2642    3.8212   -0.0547 C.1     1  LIG1       -0.0690
     26 C           6.8121    4.8905   -0.0781 C.1     1  LIG1       -0.1139
     27 H           7.3012    5.8370   -0.1008 H       1  LIG1        0.1232
     28 C           8.4568    0.9743   -1.3220 C.ar    1  LIG1        0.0126
     29 C           9.8535    0.9693   -1.3681 C.ar    1  LIG1       -0.0468
     30 C           7.8061    1.3544   -0.1421 C.ar    1  LIG1       -0.0024
     31 C          10.5933    1.3480   -0.2581 C.ar    1  LIG1       -0.0453
     32 H          10.3656    0.6696   -2.2733 H       1  LIG1        0.0629
     33 C           8.5541    1.7414    0.9664 C.ar    1  LIG1       -0.0375
     34 C           9.9486    1.7404    0.9188 C.ar    1  LIG1        0.0253
     35 H           8.0461    2.0478    1.8714 H       1  LIG1        0.0636
     36 H          11.6743    1.3429   -0.2949 H       1  LIG1        0.0630
     37 S           7.4582    0.5238   -2.7240 S.3     1  LIG1       -0.1420
     38 H           8.4802    0.4596   -3.5818 H       1  LIG1        0.1071
     39 C          10.7165    2.1365    2.0757 C.1     1  LIG1       -0.0696
     40 C          11.3527    2.4638    3.0412 C.1     1  LIG1       -0.1139
     41 H          11.9121    2.7542    3.9000 H       1  LIG1        0.1232
@<TRIPOS>BOND
     1    14    13    1
     2    38    37    1
     3    13    12    3
     4    37    28    1
     5    32    29    1
     6    12     7    1
     7     8     6    1
     8    29    28   ar
     9    29    31   ar
    10    28    30   ar
    11     7     6   ar
    12     7     4   ar
    13     6     3   ar
    14    36    31    1
    15    31    34   ar
    16    30    18    1
    17    30    33   ar
    18    27    26    1
    19    24    23    1
    20    26    25    3
    21    19    16    1
    22    18    16   ar
    23    18    21   ar
    24    25    21    1
    25    16    15   ar
    26    21    20   ar
    27    15    23    1
    28    15    17   ar
    29    20    22    1
    30    20    17   ar
    31    17     4    1
    32     4     2   ar
    33     3     9    1
    34     3     1   ar
    35    34    33   ar
    36    34    39    1
    37    33    35    1
    38     2     1   ar
    39     2     5    1
    40     1    10    1
    41    39    40    3
    42    10    11    1
    43    40    41    1
