@<TRIPOS>MOLECULE
mol_data/opt/m06hf/geoms/mol2/4ge4ge-4ge-4ge-.out
 54 57 0 0 0
SMALL
GASTEIGER

@<TRIPOS>ATOM
      1 C          -0.1559   -0.0024    0.1306 C.ar    1  LIG1        0.0054
      2 C           1.2366    0.0343    0.0855 C.ar    1  LIG1       -0.0396
      3 C          -0.8753    1.1912    0.2203 C.ar    1  LIG1       -0.0474
      4 C           1.9159    1.2504    0.1359 C.ar    1  LIG1       -0.0004
      5 H           1.8124   -0.8797    0.0032 H       1  LIG1        0.0635
      6 C          -0.2057    2.4046    0.2559 C.ar    1  LIG1       -0.0447
      7 C           1.1916    2.4486    0.2174 C.ar    1  LIG1        0.0325
      8 H          -0.7573    3.3321    0.3242 H       1  LIG1        0.0630
      9 H          -1.9568    1.1683    0.2648 H       1  LIG1        0.0629
     10 S          -1.0809   -1.5171    0.0375 S.3     1  LIG1       -0.1426
     11 H          -0.0489   -2.3402    0.2379 H       1  LIG1        0.1071
     12 C           1.8699    3.7220    0.2678 C.1     1  LIG1       -0.0691
     13 C           2.4167    4.7914    0.3038 C.1     1  LIG1       -0.1139
     14 H           2.9060    5.7371    0.3365 H       1  LIG1        0.1232
     15 C           4.1593    0.7672    1.1698 C.ar    1  LIG1        0.0131
     16 C           5.5531    0.7774    1.0984 C.ar    1  LIG1       -0.0390
     17 C           3.4106    1.2592    0.0936 C.ar    1  LIG1       -0.0023
     18 C           6.2099    1.2657   -0.0274 C.ar    1  LIG1       -0.0004
     19 H           6.1467    0.4086    1.9264 H       1  LIG1        0.0635
     20 C           4.0668    1.7594   -1.0269 C.ar    1  LIG1       -0.0369
     21 C           5.4600    1.7657   -1.1036 C.ar    1  LIG1        0.0330
     22 H           3.4869    2.1472   -1.8540 H       1  LIG1        0.0636
     23 S           3.2931    0.1649    2.6021 S.3     1  LIG1       -0.1420
     24 H           4.3938   -0.0406    3.3306 H       1  LIG1        0.1071
     25 C           6.1088    2.2740   -2.2885 C.1     1  LIG1       -0.0690
     26 C           6.6365    2.7015   -3.2797 C.1     1  LIG1       -0.1139
     27 H           7.1113    3.0748   -4.1573 H       1  LIG1        0.1232
     28 C           8.4183    0.0536   -0.0658 C.ar    1  LIG1        0.0131
     29 C           9.8134    0.0814   -0.0708 C.ar    1  LIG1       -0.0390
     30 C           7.7038    1.2579   -0.0674 C.ar    1  LIG1       -0.0023
     31 C          10.5093    1.2859   -0.1116 C.ar    1  LIG1       -0.0004
     32 H          10.3781   -0.8424   -0.0419 H       1  LIG1        0.0635
     33 C           8.3984    2.4634   -0.1049 C.ar    1  LIG1       -0.0369
     34 C           9.7930    2.4935   -0.1334 C.ar    1  LIG1        0.0330
     35 H           7.8469    3.3940   -0.1242 H       1  LIG1        0.0636
     36 S           7.5172   -1.4833   -0.0766 S.3     1  LIG1       -0.1420
     37 H           8.5801   -2.2383   -0.3726 H       1  LIG1        0.1071
     38 C          10.4742    3.7653   -0.1878 C.1     1  LIG1       -0.0690
     39 C          11.0227    4.8335   -0.2282 C.1     1  LIG1       -0.1139
     40 H          11.5142    5.7777   -0.2665 H       1  LIG1        0.1232
     41 C          12.7189    0.6937   -1.1731 C.ar    1  LIG1        0.0126
     42 C          14.1157    0.6709   -1.1302 C.ar    1  LIG1       -0.0468
     43 C          12.0043    1.2707   -0.1151 C.ar    1  LIG1       -0.0024
     44 C          14.7963    1.2224   -0.0558 C.ar    1  LIG1       -0.0453
     45 H          14.6763    0.2249   -1.9414 H       1  LIG1        0.0629
     46 C          12.6958    1.8310    0.9570 C.ar    1  LIG1       -0.0375
     47 C          14.0896    1.8119    0.9968 C.ar    1  LIG1        0.0253
     48 H          12.1411    2.2857    1.7672 H       1  LIG1        0.0636
     49 H          15.8774    1.2022   -0.0250 H       1  LIG1        0.0630
     50 S          11.8118    0.0340   -2.5568 S.3     1  LIG1       -0.1420
     51 H          12.8955   -0.2971   -3.2651 H       1  LIG1        0.1071
     52 C          14.7941    2.3905    2.1166 C.1     1  LIG1       -0.0696
     53 C          15.3825    2.8707    3.0484 C.1     1  LIG1       -0.1139
     54 H          15.9022    3.2957    3.8761 H       1  LIG1        0.1232
@<TRIPOS>BOND
     1    27    26    1
     2    26    25    3
     3    51    50    1
     4    50    41    1
     5    25    21    1
     6    45    42    1
     7    22    20    1
     8    41    42   ar
     9    41    43   ar
    10    42    44   ar
    11    21    20   ar
    12    21    18   ar
    13    20    17   ar
    14    37    36    1
    15    40    39    1
    16    39    38    3
    17    38    34    1
    18    34    31   ar
    19    34    33   ar
    20    35    33    1
    21    43    31    1
    22    43    46   ar
    23    31    29   ar
    24    33    30   ar
    25    36    28    1
    26    29    28   ar
    27    29    32    1
    28    30    28   ar
    29    30    18    1
    30    44    49    1
    31    44    47   ar
    32    18    16   ar
    33     5     2    1
    34    10     1    1
    35    10    11    1
    36     2     1   ar
    37     2     4   ar
    38    17     4    1
    39    17    15   ar
    40     1     3   ar
    41     4     7   ar
    42     7     6   ar
    43     7    12    1
    44     3     6   ar
    45     3     9    1
    46     6     8    1
    47    12    13    3
    48    13    14    1
    49    46    47   ar
    50    46    48    1
    51    47    52    1
    52    16    15   ar
    53    16    19    1
    54    15    23    1
    55    52    53    3
    56    23    24    1
    57    53    54    1
