@<TRIPOS>MOLECULE
mol_data/opt/m06hf/geoms/mol2/4ge4ge-4ge4ge-.out
 54 57 0 0 0
SMALL
GASTEIGER

@<TRIPOS>ATOM
      1 C          -0.1687    0.2974   -0.8732 C.ar    1  LIG1        0.0054
      2 C           1.2245    0.3164   -0.8516 C.ar    1  LIG1       -0.0396
      3 C          -0.8835    1.2309   -0.1193 C.ar    1  LIG1       -0.0474
      4 C           1.9078    1.2534   -0.0783 C.ar    1  LIG1       -0.0004
      5 H           1.7984   -0.3923   -1.4366 H       1  LIG1        0.0635
      6 C          -0.2090    2.1719    0.6432 C.ar    1  LIG1       -0.0447
      7 C           1.1891    2.1910    0.6762 C.ar    1  LIG1        0.0325
      8 H          -0.7574    2.8958    1.2301 H       1  LIG1        0.0630
      9 H          -1.9662    1.2163   -0.1267 H       1  LIG1        0.0629
     10 S          -1.1004   -0.8553   -1.8534 S.3     1  LIG1       -0.1426
     11 H          -0.0806   -1.6634   -2.1529 H       1  LIG1        0.1071
     12 C           1.8773    3.1654    1.4892 C.1     1  LIG1       -0.0691
     13 C           2.4359    3.9844    2.1682 C.1     1  LIG1       -0.1139
     14 H           2.9374    4.7068    2.7697 H       1  LIG1        0.1232
     15 C           4.1055    0.2321    0.5971 C.ar    1  LIG1        0.0131
     16 C           5.5004    0.2464    0.5940 C.ar    1  LIG1       -0.0390
     17 C           3.4033    1.2473   -0.0644 C.ar    1  LIG1       -0.0023
     18 C           6.2066    1.2486   -0.0660 C.ar    1  LIG1       -0.0004
     19 H           6.0573   -0.5239    1.1138 H       1  LIG1        0.0635
     20 C           4.1070    2.2583   -0.7098 C.ar    1  LIG1       -0.0369
     21 C           5.5028    2.2699   -0.7242 C.ar    1  LIG1        0.0330
     22 H           3.5634    3.0482   -1.2110 H       1  LIG1        0.0636
     23 S           3.1709   -1.0224    1.4413 S.3     1  LIG1       -0.1420
     24 H           4.2330   -1.6761    1.9227 H       1  LIG1        0.1071
     25 C           6.1965    3.3265   -1.4219 C.1     1  LIG1       -0.0690
     26 C           6.7583    4.2144   -2.0055 C.1     1  LIG1       -0.1139
     27 H           7.2631    4.9973   -2.5230 H       1  LIG1        0.1232
     28 C           8.4218    0.1786   -0.6259 C.ar    1  LIG1        0.0131
     29 C           9.8164    0.1863   -0.5679 C.ar    1  LIG1       -0.0390
     30 C           7.7011    1.2306   -0.0447 C.ar    1  LIG1       -0.0023
     31 C          10.5038    1.2228    0.0557 C.ar    1  LIG1       -0.0004
     32 H          10.3882   -0.6174   -1.0156 H       1  LIG1        0.0635
     33 C           8.3899    2.2731    0.5691 C.ar    1  LIG1       -0.0369
     34 C           9.7834    2.2825    0.6286 C.ar    1  LIG1        0.0330
     35 H           7.8341    3.0899    1.0100 H       1  LIG1        0.0636
     36 S           7.5275   -1.1194   -1.4533 S.3     1  LIG1       -0.1420
     37 H           8.6136   -1.7796   -1.8658 H       1  LIG1        0.1071
     38 C          10.4660    3.3721    1.2849 C.1     1  LIG1       -0.0690
     39 C          11.0264    4.2840    1.8310 C.1     1  LIG1       -0.1139
     40 H          11.5307    5.0881    2.3149 H       1  LIG1        0.1232
     41 C          12.6743    0.2540    0.8821 C.ar    1  LIG1        0.0126
     42 C          14.0717    0.2446    0.8979 C.ar    1  LIG1       -0.0468
     43 C          11.9983    1.1986    0.1000 C.ar    1  LIG1       -0.0024
     44 C          14.7886    1.1699    0.1549 C.ar    1  LIG1       -0.0453
     45 H          14.6034   -0.4850    1.4950 H       1  LIG1        0.0629
     46 C          12.7241    2.1293   -0.6390 C.ar    1  LIG1       -0.0375
     47 C          14.1190    2.1228   -0.6193 C.ar    1  LIG1        0.0253
     48 H          12.1969    2.8665   -1.2303 H       1  LIG1        0.0636
     49 H          15.8700    1.1618    0.1695 H       1  LIG1        0.0630
     50 S          11.7098   -0.8894    1.8473 S.3     1  LIG1       -0.1420
     51 H          12.7600   -1.4303    2.4741 H       1  LIG1        0.1071
     52 C          14.8637    3.0901   -1.3905 C.1     1  LIG1       -0.0696
     53 C          15.4859    3.8949   -2.0303 C.1     1  LIG1       -0.1139
     54 H          16.0352    4.6097   -2.5979 H       1  LIG1        0.1232
@<TRIPOS>BOND
     1    54    53    1
     2    27    26    1
     3    11    10    1
     4    53    52    3
     5    26    25    3
     6    37    36    1
     7    10     1    1
     8    36    28    1
     9     5     2    1
    10    25    21    1
    11    52    47    1
    12    48    46    1
    13    22    20    1
    14    32    29    1
    15     1     2   ar
    16     1     3   ar
    17     2     4   ar
    18    21    20   ar
    19    21    18   ar
    20    20    17   ar
    21    46    47   ar
    22    46    43   ar
    23    28    29   ar
    24    28    30   ar
    25    47    44   ar
    26    29    31   ar
    27     9     3    1
    28     3     6   ar
    29     4    17    1
    30     4     7   ar
    31    18    30    1
    32    18    16   ar
    33    17    15   ar
    34    30    33   ar
    35    31    43    1
    36    31    34   ar
    37    43    41   ar
    38    44    49    1
    39    44    42   ar
    40    33    34   ar
    41    33    35    1
    42    16    15   ar
    43    16    19    1
    44    15    23    1
    45    34    38    1
    46     6     7   ar
    47     6     8    1
    48     7    12    1
    49    41    42   ar
    50    41    50    1
    51    42    45    1
    52    38    39    3
    53    23    24    1
    54    12    13    3
    55    39    40    1
    56    50    51    1
    57    13    14    1
