@<TRIPOS>MOLECULE
mol_data/opt/m06hf/geoms/mol2/4ge4ge.out
 28 29 0 0 0
SMALL
GASTEIGER

@<TRIPOS>ATOM
      1 C           0.0825    0.2201    0.8432 C.ar    1  LIG1        0.0054
      2 C           1.4721    0.2368    0.7422 C.ar    1  LIG1       -0.0396
      3 C          -0.6642    1.2524    0.2710 C.ar    1  LIG1       -0.0474
      4 C           2.1233    1.2639    0.0597 C.ar    1  LIG1       -0.0004
      5 H           2.0684   -0.5459    1.1951 H       1  LIG1        0.0635
      6 C          -0.0222    2.2849   -0.3951 C.ar    1  LIG1       -0.0447
      7 C           1.3713    2.3000   -0.5136 C.ar    1  LIG1        0.0325
      8 H          -0.5946    3.0861   -0.8415 H       1  LIG1        0.0630
      9 H          -1.7443    1.2427    0.3419 H       1  LIG1        0.0629
     10 S          -0.8025   -1.0598    1.7018 S.3     1  LIG1       -0.1426
     11 H           0.2257   -1.9032    1.8312 H       1  LIG1        0.1071
     12 C           2.0150    3.3751   -1.2308 C.1     1  LIG1       -0.0691
     13 C           2.5340    4.2789   -1.8294 C.1     1  LIG1       -0.1139
     14 H           3.0038    5.0747   -2.3602 H       1  LIG1        0.1232
     15 C           4.2802    0.2558   -0.7650 C.ar    1  LIG1        0.0126
     16 C           5.6761    0.2642   -0.8300 C.ar    1  LIG1       -0.0468
     17 C           3.6156    1.2528   -0.0395 C.ar    1  LIG1       -0.0024
     18 C           6.4030    1.2565   -0.1900 C.ar    1  LIG1       -0.0453
     19 H           6.1985   -0.5037   -1.3856 H       1  LIG1        0.0629
     20 C           4.3520    2.2496    0.5961 C.ar    1  LIG1       -0.0375
     21 C           5.7451    2.2601    0.5275 C.ar    1  LIG1        0.0253
     22 H           3.8342    3.0244    1.1458 H       1  LIG1        0.0636
     23 H           7.4831    1.2615   -0.2419 H       1  LIG1        0.0630
     24 S           3.3014   -0.9764   -1.5963 S.3     1  LIG1       -0.1420
     25 H           4.3317   -1.5711   -2.2062 H       1  LIG1        0.1071
     26 C           6.4987    3.2969    1.1926 C.1     1  LIG1       -0.0696
     27 C           7.1237    4.1612    1.7466 C.1     1  LIG1       -0.1139
     28 H           7.6757    4.9287    2.2380 H       1  LIG1        0.1232
@<TRIPOS>BOND
     1    14    13    1
     2    25    24    1
     3    13    12    3
     4    24    15    1
     5    19    16    1
     6    12     7    1
     7     8     6    1
     8    16    15   ar
     9    16    18   ar
    10    15    17   ar
    11     7     6   ar
    12     7     4   ar
    13     6     3   ar
    14    23    18    1
    15    18    21   ar
    16    17     4    1
    17    17    20   ar
    18     4     2   ar
    19     3     9    1
    20     3     1   ar
    21    21    20   ar
    22    21    26    1
    23    20    22    1
    24     2     1   ar
    25     2     5    1
    26     1    10    1
    27    26    27    3
    28    10    11    1
    29    27    28    1
