@<TRIPOS>MOLECULE
mol_data/opt/m06hf/geoms/mol2/4ge4ge-4ge-4ge.out
 54 57 0 0 0
SMALL
GASTEIGER

@<TRIPOS>ATOM
      1 C          -0.1581    0.0088    0.1371 C.ar    1  LIG1        0.0054
      2 C           1.2343    0.0436    0.0880 C.ar    1  LIG1       -0.0396
      3 C          -0.8750    1.2025    0.2448 C.ar    1  LIG1       -0.0474
      4 C           1.9159    1.2578    0.1520 C.ar    1  LIG1       -0.0004
      5 H           1.8082   -0.8702   -0.0082 H       1  LIG1        0.0635
      6 C          -0.2031    2.4140    0.2940 C.ar    1  LIG1       -0.0447
      7 C           1.1942    2.4561    0.2515 C.ar    1  LIG1        0.0325
      8 H          -0.7528    3.3415    0.3762 H       1  LIG1        0.0630
      9 H          -1.9565    1.1809    0.2926 H       1  LIG1        0.0629
     10 S          -1.0862   -1.5028    0.0273 S.3     1  LIG1       -0.1426
     11 H          -0.0550   -2.3304    0.2135 H       1  LIG1        0.1071
     12 C           1.8749    3.7275    0.3163 C.1     1  LIG1       -0.0691
     13 C           2.4238    4.7954    0.3645 C.1     1  LIG1       -0.1139
     14 H           2.9150    5.7397    0.4080 H       1  LIG1        0.1232
     15 C           4.1619    0.7571    1.1721 C.ar    1  LIG1        0.0131
     16 C           5.5554    0.7658    1.0962 C.ar    1  LIG1       -0.0390
     17 C           3.4105    1.2645    0.1049 C.ar    1  LIG1       -0.0023
     18 C           6.2094    1.2677   -0.0252 C.ar    1  LIG1       -0.0004
     19 H           6.1510    0.3852    1.9174 H       1  LIG1        0.0635
     20 C           4.0640    1.7782   -1.0111 C.ar    1  LIG1       -0.0369
     21 C           5.4569    1.7830   -1.0923 C.ar    1  LIG1        0.0330
     22 H           3.4821    2.1778   -1.8311 H       1  LIG1        0.0636
     23 S           3.2992    0.1376    2.5992 S.3     1  LIG1       -0.1420
     24 H           4.4020   -0.0794    3.3213 H       1  LIG1        0.1071
     25 C           6.1027    2.3058   -2.2725 C.1     1  LIG1       -0.0690
     26 C           6.6279    2.7453   -3.2598 C.1     1  LIG1       -0.1139
     27 H           7.1005    3.1293   -4.1340 H       1  LIG1        0.1232
     28 C           8.4156    0.0524   -0.0864 C.ar    1  LIG1        0.0131
     29 C           9.8107    0.0780   -0.0956 C.ar    1  LIG1       -0.0390
     30 C           7.7032    1.2579   -0.0701 C.ar    1  LIG1       -0.0023
     31 C          10.5085    1.2817   -0.1231 C.ar    1  LIG1       -0.0004
     32 H          10.3739   -0.8472   -0.0806 H       1  LIG1        0.0635
     33 C           8.3998    2.4625   -0.0944 C.ar    1  LIG1       -0.0369
     34 C           9.7943    2.4906   -0.1270 C.ar    1  LIG1        0.0330
     35 H           7.8498    3.3942   -0.0999 H       1  LIG1        0.0636
     36 S           7.5118   -1.4827   -0.1141 S.3     1  LIG1       -0.1420
     37 H           8.5725   -2.2356   -0.4233 H       1  LIG1        0.1071
     38 C          10.4776    3.7619   -0.1672 C.1     1  LIG1       -0.0690
     39 C          11.0277    4.8295   -0.1956 C.1     1  LIG1       -0.1139
     40 H          11.5208    5.7733   -0.2233 H       1  LIG1        0.1232
     41 C          12.7136    0.6994   -1.1995 C.ar    1  LIG1        0.0126
     42 C          14.1105    0.6737   -1.1615 C.ar    1  LIG1       -0.0468
     43 C          12.0035    1.2640   -0.1318 C.ar    1  LIG1       -0.0024
     44 C          14.7956    1.2102   -0.0823 C.ar    1  LIG1       -0.0453
     45 H          14.6677    0.2374   -1.9803 H       1  LIG1        0.0629
     46 C          12.6994    1.8092    0.9451 C.ar    1  LIG1       -0.0375
     47 C          14.0934    1.7872    0.9801 C.ar    1  LIG1        0.0253
     48 H          12.1483    2.2544    1.7630 H       1  LIG1        0.0636
     49 H          15.8768    1.1878   -0.0554 H       1  LIG1        0.0630
     50 S          11.8009    0.0593   -2.5886 S.3     1  LIG1       -0.1420
     51 H          12.8817   -0.2644   -3.3047 H       1  LIG1        0.1071
     52 C          14.8026    2.3501    2.1050 C.1     1  LIG1       -0.0696
     53 C          15.3949    2.8174    3.0408 C.1     1  LIG1       -0.1139
     54 H          15.9181    3.2308    3.8722 H       1  LIG1        0.1232
@<TRIPOS>BOND
     1    27    26    1
     2    51    50    1
     3    26    25    3
     4    50    41    1
     5    25    21    1
     6    45    42    1
     7    22    20    1
     8    41    42   ar
     9    41    43   ar
    10    42    44   ar
    11    21    20   ar
    12    21    18   ar
    13    20    17   ar
    14    37    36    1
    15    40    39    1
    16    39    38    3
    17    38    34    1
    18    43    31    1
    19    43    46   ar
    20    34    31   ar
    21    34    33   ar
    22    31    29   ar
    23    36    28    1
    24    35    33    1
    25    29    28   ar
    26    29    32    1
    27    33    30   ar
    28    28    30   ar
    29    44    49    1
    30    44    47   ar
    31    30    18    1
    32    18    16   ar
    33     5     2    1
    34    10     1    1
    35    10    11    1
    36     2     1   ar
    37     2     4   ar
    38    17     4    1
    39    17    15   ar
    40     1     3   ar
    41     4     7   ar
    42     3     9    1
    43     3     6   ar
    44     7     6   ar
    45     7    12    1
    46     6     8    1
    47    12    13    3
    48    13    14    1
    49    46    47   ar
    50    46    48    1
    51    47    52    1
    52    16    15   ar
    53    16    19    1
    54    15    23    1
    55    52    53    3
    56    23    24    1
    57    53    54    1
