@<TRIPOS>MOLECULE
mol_data/opt/m06hf/geoms/mol2/4ge4ge4ge-.out
 41 43 0 0 0
SMALL
GASTEIGER

@<TRIPOS>ATOM
      1 C          -0.0697    0.1046    0.4226 C.ar    1  LIG1        0.0054
      2 C           1.3237    0.1301    0.4212 C.ar    1  LIG1       -0.0396
      3 C          -0.7804    1.2255   -0.0136 C.ar    1  LIG1       -0.0474
      4 C           2.0133    1.2580   -0.0210 C.ar    1  LIG1       -0.0004
      5 H           1.8937   -0.7242    0.7664 H       1  LIG1        0.0635
      6 C          -0.1003    2.3545   -0.4429 C.ar    1  LIG1       -0.0447
      7 C           1.2980    2.3837   -0.4549 C.ar    1  LIG1        0.0325
      8 H          -0.6455    3.2243   -0.7828 H       1  LIG1        0.0630
      9 H          -1.8630    1.2122   -0.0183 H       1  LIG1        0.0629
     10 S          -1.0030   -1.3004    0.9805 S.3     1  LIG1       -0.1426
     11 H           0.0405   -2.1170    1.1439 H       1  LIG1        0.1071
     12 C           1.9853    3.5648   -0.9207 C.1     1  LIG1       -0.0691
     13 C           2.5422    4.5574   -1.3058 C.1     1  LIG1       -0.1139
     14 H           3.0421    5.4337   -1.6480 H       1  LIG1        0.1232
     15 C           4.2182    0.4030   -0.8830 C.ar    1  LIG1        0.0131
     16 C           5.6138    0.4030   -0.8508 C.ar    1  LIG1       -0.0390
     17 C           3.5085    1.2496   -0.0220 C.ar    1  LIG1       -0.0023
     18 C           6.3090    1.2361    0.0197 C.ar    1  LIG1       -0.0004
     19 H           6.1791   -0.2459   -1.5090 H       1  LIG1        0.0635
     20 C           4.2043    2.0889    0.8430 C.ar    1  LIG1       -0.0369
     21 C           5.5990    2.0912    0.8763 C.ar    1  LIG1        0.0330
     22 H           3.6543    2.7480    1.5018 H       1  LIG1        0.0636
     23 S           3.3027   -0.6266   -2.0089 S.3     1  LIG1       -0.1420
     24 H           4.3775   -1.0793   -2.6628 H       1  LIG1        0.1071
     25 C           6.2971    2.9584    1.7947 C.1     1  LIG1       -0.0690
     26 C           6.8707    3.6824    2.5628 C.1     1  LIG1       -0.1139
     27 H           7.3845    4.3196    3.2444 H       1  LIG1        0.1232
     28 C           8.4926    0.1257    0.5852 C.ar    1  LIG1        0.0126
     29 C           9.8898    0.1205    0.5834 C.ar    1  LIG1       -0.0468
     30 C           7.8045    1.2123    0.0329 C.ar    1  LIG1       -0.0024
     31 C          10.5947    1.1874    0.0472 C.ar    1  LIG1       -0.0453
     32 H          10.4305   -0.7178    1.0032 H       1  LIG1        0.0629
     33 C           8.5176    2.2828   -0.4996 C.ar    1  LIG1       -0.0375
     34 C           9.9129    2.2794   -0.4985 C.ar    1  LIG1        0.0253
     35 H           7.9803    3.1264   -0.9126 H       1  LIG1        0.0636
     36 H          11.6761    1.1818    0.0470 H       1  LIG1        0.0630
     37 S           7.5377   -1.2053    1.2816 S.3     1  LIG1       -0.1420
     38 H           8.5839   -1.8487    1.8062 H       1  LIG1        0.1071
     39 C          10.6448    3.3921   -1.0564 C.1     1  LIG1       -0.0696
     40 C          11.2579    4.3150   -1.5214 C.1     1  LIG1       -0.1139
     41 H          11.8001    5.1334   -1.9350 H       1  LIG1        0.1232
@<TRIPOS>BOND
     1    24    23    1
     2    23    15    1
     3    41    40    1
     4    14    13    1
     5    40    39    3
     6    19    16    1
     7    13    12    3
     8    39    34    1
     9    12     7    1
    10    35    33    1
    11    15    16   ar
    12    15    17   ar
    13    16    18   ar
    14     8     6    1
    15    33    34   ar
    16    33    30   ar
    17    34    31   ar
    18     7     6   ar
    19     7     4   ar
    20     6     3   ar
    21    17     4    1
    22    17    20   ar
    23     4     2   ar
    24     9     3    1
    25     3     1   ar
    26    18    30    1
    27    18    21   ar
    28    30    28   ar
    29    36    31    1
    30    31    29   ar
    31     2     1   ar
    32     2     5    1
    33     1    10    1
    34    29    28   ar
    35    29    32    1
    36    28    37    1
    37    20    21   ar
    38    20    22    1
    39    21    25    1
    40    10    11    1
    41    37    38    1
    42    25    26    3
    43    26    27    1
