@<TRIPOS>MOLECULE
mol_data/opt/m06hf/geoms/mol2/4ge4ge4ge4ge.out
 54 57 0 0 0
SMALL
GASTEIGER

@<TRIPOS>ATOM
      1 C          -0.1425    1.5577    1.4717 C.ar    1  LIG1        0.0054
      2 C           1.2497    1.5757    1.4133 C.ar    1  LIG1       -0.0396
      3 C          -0.8789    1.3170    0.3094 C.ar    1  LIG1       -0.0474
      4 C           1.9125    1.3429    0.2088 C.ar    1  LIG1       -0.0004
      5 H           1.8377    1.7730    2.3015 H       1  LIG1        0.0635
      6 C          -0.2261    1.0994   -0.8938 C.ar    1  LIG1       -0.0447
      7 C           1.1710    1.1058   -0.9580 C.ar    1  LIG1        0.0325
      8 H          -0.7905    0.9119   -1.7967 H       1  LIG1        0.0630
      9 H          -1.9607    1.2973    0.3496 H       1  LIG1        0.0629
     10 S          -1.0474    1.8526    2.9715 S.3     1  LIG1       -0.1426
     11 H           0.0063    1.8454    3.7916 H       1  LIG1        0.1071
     12 C           1.8309    0.8609   -2.2183 C.1     1  LIG1       -0.0691
     13 C           2.3655    0.6595   -3.2754 C.1     1  LIG1       -0.1139
     14 H           2.8484    0.4796   -4.2079 H       1  LIG1        0.1232
     15 C           4.1485    0.3711    0.8427 C.ar    1  LIG1        0.0131
     16 C           5.5428    0.4084    0.7921 C.ar    1  LIG1       -0.0390
     17 C           3.4074    1.3528    0.1732 C.ar    1  LIG1       -0.0023
     18 C           6.2071    1.3960    0.0713 C.ar    1  LIG1       -0.0004
     19 H           6.1311   -0.3388    1.3111 H       1  LIG1        0.0635
     20 C           4.0723    2.3429   -0.5442 C.ar    1  LIG1       -0.0369
     21 C           5.4653    2.3761   -0.6062 C.ar    1  LIG1        0.0330
     22 H           3.4978    3.0919   -1.0732 H       1  LIG1        0.0636
     23 S           3.2711   -0.9068    1.7164 S.3     1  LIG1       -0.1420
     24 H           4.3564   -1.6250    2.0228 H       1  LIG1        0.1071
     25 C           6.1269    3.4059   -1.3711 C.1     1  LIG1       -0.0690
     26 C           6.6701    4.2674   -2.0082 C.1     1  LIG1       -0.1139
     27 H           7.1622    5.0260   -2.5715 H       1  LIG1        0.1232
     28 C           8.3898    0.3768   -0.6547 C.ar    1  LIG1        0.0131
     29 C           9.7848    0.3994   -0.6907 C.ar    1  LIG1       -0.0390
     30 C           7.7010    1.3952    0.0155 C.ar    1  LIG1       -0.0023
     31 C          10.5005    1.4277   -0.0859 C.ar    1  LIG1       -0.0004
     32 H          10.3341   -0.3847   -1.1980 H       1  LIG1        0.0635
     33 C           8.4167    2.4241    0.6206 C.ar    1  LIG1       -0.0369
     34 C           9.8107    2.4542    0.5768 C.ar    1  LIG1        0.0330
     35 H           7.8828    3.2201    1.1230 H       1  LIG1        0.0636
     36 S           7.4513   -0.9027   -1.4612 S.3     1  LIG1       -0.1420
     37 H           8.5037   -1.4539   -2.0730 H       1  LIG1        0.1071
     38 C          10.5269    3.5383    1.2058 C.1     1  LIG1       -0.0690
     39 C          11.1126    4.4443    1.7347 C.1     1  LIG1       -0.1139
     40 H          11.6369    5.2477    2.1981 H       1  LIG1        0.1232
     41 C          12.6459    1.7191   -1.3629 C.ar    1  LIG1        0.0126
     42 C          14.0422    1.7012   -1.4144 C.ar    1  LIG1       -0.0468
     43 C          11.9948    1.4286   -0.1579 C.ar    1  LIG1       -0.0024
     44 C          14.7821    1.4049   -0.2797 C.ar    1  LIG1       -0.0453
     45 H          14.5541    1.9223   -2.3419 H       1  LIG1        0.0629
     46 C          12.7432    1.1407    0.9798 C.ar    1  LIG1       -0.0375
     47 C          14.1376    1.1247    0.9289 C.ar    1  LIG1        0.0253
     48 H          12.2359    0.9300    1.9121 H       1  LIG1        0.0636
     49 H          15.8629    1.3901   -0.3207 H       1  LIG1        0.0630
     50 S          11.6469    2.1231   -2.7788 S.3     1  LIG1       -0.1420
     51 H          12.6791    2.3873   -3.5841 H       1  LIG1        0.1071
     52 C          14.9062    0.8173    2.1119 C.1     1  LIG1       -0.0696
     53 C          15.5471    0.5598    3.0952 C.1     1  LIG1       -0.1139
     54 H          16.1118    0.3302    3.9687 H       1  LIG1        0.1232
@<TRIPOS>BOND
     1    14    13    1
     2    51    50    1
     3    13    12    3
     4    50    41    1
     5    27    26    1
     6    45    42    1
     7    12     7    1
     8    37    36    1
     9    26    25    3
    10     8     6    1
    11    36    28    1
    12    42    41   ar
    13    42    44   ar
    14    25    21    1
    15    41    43   ar
    16    32    29    1
    17    22    20    1
    18     7     6   ar
    19     7     4   ar
    20     6     3   ar
    21    29    28   ar
    22    29    31   ar
    23    28    30   ar
    24    21    20   ar
    25    21    18   ar
    26    20    17   ar
    27    49    44    1
    28    44    47   ar
    29    43    31    1
    30    43    46   ar
    31    31    34   ar
    32    30    18    1
    33    30    33   ar
    34    18    16   ar
    35    17     4    1
    36    17    15   ar
    37     4     2   ar
    38     3     9    1
    39     3     1   ar
    40    34    33   ar
    41    34    38    1
    42    33    35    1
    43    16    15   ar
    44    16    19    1
    45    15    23    1
    46    47    46   ar
    47    47    52    1
    48    46    48    1
    49    38    39    3
    50     2     1   ar
    51     2     5    1
    52     1    10    1
    53    23    24    1
    54    39    40    1
    55    52    53    3
    56    10    11    1
    57    53    54    1
