@<TRIPOS>MOLECULE
mol_data/opt/m06hf/geoms/mol2/4ge4ge-.out
 28 29 0 0 0
SMALL
GASTEIGER

@<TRIPOS>ATOM
      1 C           0.0694    0.2230   -0.8021 C.ar    1  LIG1        0.0054
      2 C           1.4604    0.2390   -0.7222 C.ar    1  LIG1       -0.0396
      3 C          -0.6679    1.2545   -0.2166 C.ar    1  LIG1       -0.0474
      4 C           2.1224    1.2644   -0.0476 C.ar    1  LIG1       -0.0004
      5 H           2.0495   -0.5430   -1.1857 H       1  LIG1        0.0635
      6 C          -0.0154    2.2853    0.4418 C.ar    1  LIG1       -0.0447
      7 C           1.3797    2.2996    0.5392 C.ar    1  LIG1        0.0325
      8 H          -0.5807    3.0859    0.8985 H       1  LIG1        0.0630
      9 H          -1.7491    1.2455   -0.2712 H       1  LIG1        0.0629
     10 S          -0.8290   -1.0547   -1.6498 S.3     1  LIG1       -0.1426
     11 H           0.1968   -1.8982   -1.7964 H       1  LIG1        0.1071
     12 C           2.0347    3.3730    1.2487 C.1     1  LIG1       -0.0691
     13 C           2.5631    4.2754    1.8412 C.1     1  LIG1       -0.1139
     14 H           3.0412    5.0698    2.3666 H       1  LIG1        0.1232
     15 C           4.2912    0.2537    0.7420 C.ar    1  LIG1        0.0126
     16 C           5.6879    0.2614    0.7857 C.ar    1  LIG1       -0.0468
     17 C           3.6160    1.2525    0.0289 C.ar    1  LIG1       -0.0024
     18 C           6.4054    1.2547    0.1368 C.ar    1  LIG1       -0.0453
     19 H           6.2184   -0.5079    1.3316 H       1  LIG1        0.0629
     20 C           4.3431    2.2503   -0.6158 C.ar    1  LIG1       -0.0375
     21 C           5.7371    2.2601   -0.5685 C.ar    1  LIG1        0.0253
     22 H           3.8172    3.0265   -1.1559 H       1  LIG1        0.0636
     23 H           7.4862    1.2592    0.1722 H       1  LIG1        0.0630
     24 S           3.3247   -0.9799    1.5856 S.3     1  LIG1       -0.1420
     25 H           4.3639   -1.5763    2.1784 H       1  LIG1        0.1071
     26 C           6.4808    3.2981   -1.2427 C.1     1  LIG1       -0.0696
     27 C           7.0977    4.1632   -1.8044 C.1     1  LIG1       -0.1139
     28 H           7.6425    4.9316   -2.3026 H       1  LIG1        0.1232
@<TRIPOS>BOND
     1    28    27    1
     2    27    26    3
     3    11    10    1
     4    10     1    1
     5    26    21    1
     6     5     2    1
     7    22    20    1
     8     1     2   ar
     9     1     3   ar
    10     2     4   ar
    11    20    21   ar
    12    20    17   ar
    13    21    18   ar
    14     9     3    1
    15     3     6   ar
    16     4    17    1
    17     4     7   ar
    18    17    15   ar
    19    18    23    1
    20    18    16   ar
    21     6     7   ar
    22     6     8    1
    23     7    12    1
    24    15    16   ar
    25    15    24    1
    26    16    19    1
    27    12    13    3
    28    24    25    1
    29    13    14    1
