@<TRIPOS>MOLECULE
mol_data/opt/m06hf/geoms/mol2/4ge4ge4ge-4ge.out
 54 57 0 0 0
SMALL
GASTEIGER

@<TRIPOS>ATOM
      1 C          -0.1675    0.3038    0.8965 C.ar    1  LIG1        0.0054
      2 C           1.2258    0.3227    0.8729 C.ar    1  LIG1       -0.0396
      3 C          -0.8834    1.2316    0.1366 C.ar    1  LIG1       -0.0474
      4 C           1.9080    1.2539    0.0916 C.ar    1  LIG1       -0.0004
      5 H           1.8005   -0.3815    1.4624 H       1  LIG1        0.0635
      6 C          -0.2099    2.1668   -0.6338 C.ar    1  LIG1       -0.0447
      7 C           1.1881    2.1858   -0.6689 C.ar    1  LIG1        0.0325
      8 H          -0.7592    2.8862   -1.2254 H       1  LIG1        0.0630
      9 H          -1.9660    1.2170    0.1457 H       1  LIG1        0.0629
     10 S          -1.0977   -0.8414    1.8867 S.3     1  LIG1       -0.1426
     11 H          -0.0775   -1.6472    2.1908 H       1  LIG1        0.1071
     12 C           1.8752    3.1540   -1.4902 C.1     1  LIG1       -0.0691
     13 C           2.4328    3.9679   -2.1761 C.1     1  LIG1       -0.1139
     14 H           2.9334    4.6859   -2.7836 H       1  LIG1        0.1232
     15 C           4.1048    0.2275   -0.5790 C.ar    1  LIG1        0.0131
     16 C           5.4997    0.2419   -0.5779 C.ar    1  LIG1       -0.0390
     17 C           3.4034    1.2477    0.0757 C.ar    1  LIG1       -0.0023
     18 C           6.2067    1.2491    0.0736 C.ar    1  LIG1       -0.0004
     19 H           6.0559   -0.5323   -1.0925 H       1  LIG1        0.0635
     20 C           4.1079    2.2637    0.7124 C.ar    1  LIG1       -0.0369
     21 C           5.5037    2.2754    0.7249 C.ar    1  LIG1        0.0330
     22 H           3.5650    3.0573    1.2083 H       1  LIG1        0.0636
     23 S           3.1691   -1.0334   -1.4123 S.3     1  LIG1       -0.1420
     24 H           4.2306   -1.6907   -1.8902 H       1  LIG1        0.1071
     25 C           6.1983    3.3373    1.4136 C.1     1  LIG1       -0.0690
     26 C           6.7608    4.2296    1.9897 C.1     1  LIG1       -0.1139
     27 H           7.2662    5.0164    2.5006 H       1  LIG1        0.1232
     28 C           8.4226    0.1833    0.6385 C.ar    1  LIG1        0.0131
     29 C           9.8171    0.1906    0.5786 C.ar    1  LIG1       -0.0390
     30 C           7.7012    1.2309    0.0504 C.ar    1  LIG1       -0.0023
     31 C          10.5037    1.2224   -0.0537 C.ar    1  LIG1       -0.0004
     32 H          10.3896   -0.6098    1.0315 H       1  LIG1        0.0635
     33 C           8.3892    2.2688   -0.5721 C.ar    1  LIG1       -0.0369
     34 C           9.7826    2.2778   -0.6335 C.ar    1  LIG1        0.0330
     35 H           7.8327    3.0823   -1.0184 H       1  LIG1        0.0636
     36 S           7.5295   -1.1084    1.4769 S.3     1  LIG1       -0.1420
     37 H           8.6161   -1.7655    1.8928 H       1  LIG1        0.1071
     38 C          10.4643    3.3624   -1.2988 C.1     1  LIG1       -0.0690
     39 C          11.0239    4.2702   -1.8525 C.1     1  LIG1       -0.1139
     40 H          11.5276    5.0707   -2.3431 H       1  LIG1        0.1232
     41 C          12.6732    0.2476   -0.8758 C.ar    1  LIG1        0.0126
     42 C          14.0705    0.2381   -0.8934 C.ar    1  LIG1       -0.0468
     43 C          11.9982    1.1979   -0.0997 C.ar    1  LIG1       -0.0024
     44 C          14.7883    1.1689   -0.1583 C.ar    1  LIG1       -0.0453
     45 H          14.6014   -0.4958   -1.4859 H       1  LIG1        0.0629
     46 C          12.7249    2.1340    0.6314 C.ar    1  LIG1       -0.0375
     47 C          14.1199    2.1274    0.6098 C.ar    1  LIG1        0.0253
     48 H          12.1985    2.8755    1.2179 H       1  LIG1        0.0636
     49 H          15.8698    1.1607   -0.1744 H       1  LIG1        0.0630
     50 S          11.7074   -0.9030   -1.8311 S.3     1  LIG1       -0.1420
     51 H          12.7567   -1.4485   -2.4553 H       1  LIG1        0.1071
     52 C          14.8655    3.1004    1.3728 C.1     1  LIG1       -0.0696
     53 C          15.4885    3.9099    2.0058 C.1     1  LIG1       -0.1139
     54 H          16.0386    4.6289    2.5673 H       1  LIG1        0.1232
@<TRIPOS>BOND
     1    14    13    1
     2    51    50    1
     3    40    39    1
     4    13    12    3
     5    24    23    1
     6    39    38    3
     7    50    41    1
     8    12     7    1
     9    45    42    1
    10    23    15    1
    11    38    34    1
    12     8     6    1
    13    19    16    1
    14    35    33    1
    15    42    41   ar
    16    42    44   ar
    17    41    43   ar
    18     7     6   ar
    19     7     4   ar
    20     6     3   ar
    21    34    33   ar
    22    34    31   ar
    23    15    16   ar
    24    15    17   ar
    25    16    18   ar
    26    33    30   ar
    27    49    44    1
    28    44    47   ar
    29    43    31    1
    30    43    46   ar
    31    31    29   ar
    32    30    18    1
    33    30    28   ar
    34    18    21   ar
    35    17     4    1
    36    17    20   ar
    37     4     2   ar
    38     3     9    1
    39     3     1   ar
    40    29    28   ar
    41    29    32    1
    42    47    46   ar
    43    47    52    1
    44    46    48    1
    45    28    36    1
    46    20    21   ar
    47    20    22    1
    48    21    25    1
    49     2     1   ar
    50     2     5    1
    51     1    10    1
    52    52    53    3
    53    25    26    3
    54    36    37    1
    55    10    11    1
    56    26    27    1
    57    53    54    1
