@<TRIPOS>MOLECULE
mol_data/opt/m06hf/geoms/mol2/4ge4ge-4ge.out
 41 43 0 0 0
SMALL
GASTEIGER

@<TRIPOS>ATOM
      1 C          -0.0744    0.1136   -0.4126 C.ar    1  LIG1        0.0054
      2 C           1.3189    0.1358   -0.4125 C.ar    1  LIG1       -0.0396
      3 C          -0.7822    1.2378    0.0191 C.ar    1  LIG1       -0.0474
      4 C           2.0123    1.2631    0.0258 C.ar    1  LIG1       -0.0004
      5 H           1.8863   -0.7210   -0.7556 H       1  LIG1        0.0635
      6 C          -0.0987    2.3673    0.4417 C.ar    1  LIG1       -0.0447
      7 C           1.2998    2.3928    0.4540 C.ar    1  LIG1        0.0325
      8 H          -0.6413    3.2404    0.7773 H       1  LIG1        0.0630
      9 H          -1.8647    1.2269    0.0258 H       1  LIG1        0.0629
     10 S          -1.0097   -1.2933   -0.9635 S.3     1  LIG1       -0.1426
     11 H           0.0301   -2.1206   -1.0953 H       1  LIG1        0.1071
     12 C           1.9886    3.5757    0.9132 C.1     1  LIG1       -0.0691
     13 C           2.5461    4.5704    1.2923 C.1     1  LIG1       -0.1139
     14 H           3.0469    5.4485    1.6287 H       1  LIG1        0.1232
     15 C           4.2183    0.3912    0.8733 C.ar    1  LIG1        0.0131
     16 C           5.6138    0.3928    0.8404 C.ar    1  LIG1       -0.0390
     17 C           3.5076    1.2502    0.0256 C.ar    1  LIG1       -0.0023
     18 C           6.3097    1.2337   -0.0221 C.ar    1  LIG1       -0.0004
     19 H           6.1794   -0.2600    1.4944 H       1  LIG1        0.0635
     20 C           4.2040    2.0997   -0.8292 C.ar    1  LIG1       -0.0369
     21 C           5.5987    2.0997   -0.8669 C.ar    1  LIG1        0.0330
     22 H           3.6540    2.7679   -1.4787 H       1  LIG1        0.0636
     23 S           3.3090   -0.6555    1.9896 S.3     1  LIG1       -0.1420
     24 H           4.3906   -1.1877    2.5650 H       1  LIG1        0.1071
     25 C           6.2930    2.9783   -1.7777 C.1     1  LIG1       -0.0690
     26 C           6.8619    3.7129   -2.5394 C.1     1  LIG1       -0.1139
     27 H           7.3723    4.3586   -3.2156 H       1  LIG1        0.1232
     28 C           8.4931    0.0989   -0.5442 C.ar    1  LIG1        0.0126
     29 C           9.8904    0.0913   -0.5362 C.ar    1  LIG1       -0.0468
     30 C           7.8049    1.2063   -0.0344 C.ar    1  LIG1       -0.0024
     31 C          10.5957    1.1754   -0.0365 C.ar    1  LIG1       -0.0453
     32 H          10.4310   -0.7629   -0.9228 H       1  LIG1        0.0629
     33 C           8.5189    2.2940    0.4616 C.ar    1  LIG1       -0.0375
     34 C           9.9140    2.2880    0.4661 C.ar    1  LIG1        0.0253
     35 H           7.9820    3.1528    0.8426 H       1  LIG1        0.0636
     36 H          11.6771    1.1674   -0.0315 H       1  LIG1        0.0630
     37 S           7.5424   -1.2571   -1.1983 S.3     1  LIG1       -0.1420
     38 H           8.5916   -1.9150   -1.6984 H       1  LIG1        0.1071
     39 C          10.6460    3.4187    0.9864 C.1     1  LIG1       -0.0696
     40 C          11.2593    4.3565    1.4202 C.1     1  LIG1       -0.1139
     41 H          11.8016    5.1881    1.8064 H       1  LIG1        0.1232
@<TRIPOS>BOND
     1    27    26    1
     2    26    25    3
     3    25    21    1
     4    38    37    1
     5    22    20    1
     6    37    28    1
     7    11    10    1
     8    10     1    1
     9    32    29    1
    10    21    20   ar
    11    21    18   ar
    12    20    17   ar
    13     5     2    1
    14    28    29   ar
    15    28    30   ar
    16    29    31   ar
    17     1     2   ar
    18     1     3   ar
    19     2     4   ar
    20    31    36    1
    21    31    34   ar
    22    30    18    1
    23    30    33   ar
    24    18    16   ar
    25     3     9    1
    26     3     6   ar
    27    17     4    1
    28    17    15   ar
    29     4     7   ar
    30     6     7   ar
    31     6     8    1
    32     7    12    1
    33    33    34   ar
    34    33    35    1
    35    34    39    1
    36    16    15   ar
    37    16    19    1
    38    15    23    1
    39    12    13    3
    40    39    40    3
    41    13    14    1
    42    40    41    1
    43    23    24    1
