@<TRIPOS>MOLECULE
mol_data/opt/m06hf/geoms/mol2/4gf.out
 14 14 0 0 0
SMALL
GASTEIGER

@<TRIPOS>ATOM
      1 C           0.2476    0.0118   -0.1962 C.ar    1  LIG1        0.0050
      2 C           1.6411    0.0921   -0.2227 C.ar    1  LIG1       -0.0451
      3 C          -0.5025    1.1778   -0.0714 C.ar    1  LIG1       -0.0451
      4 C           2.2789    1.3191   -0.1072 C.ar    1  LIG1       -0.0191
      5 H           2.2227   -0.8132   -0.3365 H       1  LIG1        0.0630
      6 C           0.1276    2.4129    0.0473 C.ar    1  LIG1       -0.0191
      7 C           1.5192    2.4808    0.0303 C.ar    1  LIG1        0.1169
      8 H          -0.4613    3.3173    0.1473 H       1  LIG1        0.0654
      9 H           3.3567    1.4034   -0.1240 H       1  LIG1        0.0654
     10 H          -1.5829    1.1192   -0.0690 H       1  LIG1        0.0630
     11 S          -0.5703   -1.5728   -0.3850 S.3     1  LIG1       -0.1426
     12 H          -0.6685   -1.8535    0.9216 H       1  LIG1        0.1071
     13 O           2.1953    3.6547    0.1401 O.3     1  LIG1       -0.5068
     14 H           1.5851    4.3944    0.2243 H       1  LIG1        0.2921
@<TRIPOS>BOND
     1    11     1    1
     2    11    12    1
     3     5     2    1
     4     2     1   ar
     5     2     4   ar
     6     1     3   ar
     7     9     4    1
     8     4     7   ar
     9     3    10    1
    10     3     6   ar
    11     7     6   ar
    12     7    13    1
    13     6     8    1
    14    13    14    1
