@<TRIPOS>MOLECULE
mol_data/opt/m06hf/geoms/mol2/4gf4gf-.out
 26 27 0 0 0
SMALL
GASTEIGER

@<TRIPOS>ATOM
      1 C           0.0277    0.2464   -0.6912 C.ar    1  LIG1        0.0055
      2 C           1.4213    0.2781   -0.7205 C.ar    1  LIG1       -0.0373
      3 C          -0.6608    1.2284    0.0138 C.ar    1  LIG1       -0.0451
      4 C           2.1347    1.2561   -0.0317 C.ar    1  LIG1        0.0257
      5 H           1.9674   -0.4682   -1.2851 H       1  LIG1        0.0636
      6 C           0.0349    2.2337    0.6779 C.ar    1  LIG1       -0.0185
      7 C           1.4271    2.2477    0.6615 C.ar    1  LIG1        0.1246
      8 H          -0.5057    3.0014    1.2194 H       1  LIG1        0.0654
      9 H          -1.7420    1.2065    0.0444 H       1  LIG1        0.0630
     10 S          -0.8839   -1.0039   -1.5910 S.3     1  LIG1       -0.1426
     11 H          -0.4761   -2.0430   -0.8518 H       1  LIG1        0.1071
     12 O           2.1489    3.2071    1.2968 O.3     1  LIG1       -0.5062
     13 H           1.5671    3.8008    1.7828 H       1  LIG1        0.2922
     14 C           4.3341    0.1821    0.5319 C.ar    1  LIG1        0.0128
     15 C           5.7302    0.1808    0.4701 C.ar    1  LIG1       -0.0445
     16 C           3.6293    1.2454   -0.0385 C.ar    1  LIG1        0.0022
     17 C           6.4171    1.2219   -0.1337 C.ar    1  LIG1       -0.0191
     18 H           6.2903   -0.6398    0.8999 H       1  LIG1        0.0630
     19 C           4.3228    2.2955   -0.6414 C.ar    1  LIG1       -0.0113
     20 C           5.7105    2.2886   -0.6874 C.ar    1  LIG1        0.1175
     21 H           3.7598    3.1174   -1.0687 H       1  LIG1        0.0660
     22 H           7.4971    1.2304   -0.1839 H       1  LIG1        0.0654
     23 S           3.4214   -1.1262    1.3399 S.3     1  LIG1       -0.1420
     24 H           4.5020   -1.7220    1.8515 H       1  LIG1        0.1071
     25 O           6.4334    3.2881   -1.2655 O.3     1  LIG1       -0.5067
     26 H           5.8489    3.9790   -1.5933 H       1  LIG1        0.2921
@<TRIPOS>BOND
     1    26    25    1
     2    10    11    1
     3    10     1    1
     4     5     2    1
     5    25    20    1
     6    21    19    1
     7     2     1   ar
     8     2     4   ar
     9     1     3   ar
    10    20    19   ar
    11    20    17   ar
    12    19    16   ar
    13    22    17    1
    14    17    15   ar
    15    16     4    1
    16    16    14   ar
    17     4     7   ar
    18     3     9    1
    19     3     6   ar
    20    15    14   ar
    21    15    18    1
    22    14    23    1
    23     7     6   ar
    24     7    12    1
    25     6     8    1
    26    12    13    1
    27    23    24    1
