@<TRIPOS>MOLECULE
mol_data/opt/m06hf/geoms/mol2/4gf4gf-4gf4gf-.out
 50 53 0 0 0
SMALL
GASTEIGER

@<TRIPOS>ATOM
      1 C          -0.1783    0.1758   -0.6651 C.ar    1  LIG1        0.0055
      2 C           1.2153    0.2129   -0.6691 C.ar    1  LIG1       -0.0373
      3 C          -0.8852    1.2017   -0.0455 C.ar    1  LIG1       -0.0451
      4 C           1.9127    1.2364   -0.0316 C.ar    1  LIG1        0.0257
      5 H           1.7729   -0.5663   -1.1752 H       1  LIG1        0.0636
      6 C          -0.2054    2.2523    0.5619 C.ar    1  LIG1       -0.0185
      7 C           1.1868    2.2702    0.5764 C.ar    1  LIG1        0.1246
      8 H          -0.7583    3.0547    1.0369 H       1  LIG1        0.0654
      9 H          -1.9670    1.1782   -0.0372 H       1  LIG1        0.0630
     10 S          -1.0611   -1.1433   -1.4940 S.3     1  LIG1       -0.1426
     11 H          -0.6728   -2.1209   -0.6646 H       1  LIG1        0.1071
     12 O           1.8889    3.2759    1.1626 O.3     1  LIG1       -0.5062
     13 H           1.2933    3.8795    1.6187 H       1  LIG1        0.2922
     14 C           4.1080    0.1657    0.5718 C.ar    1  LIG1        0.0134
     15 C           5.5022    0.1772    0.5393 C.ar    1  LIG1       -0.0367
     16 C           3.4061    1.2288   -0.0050 C.ar    1  LIG1        0.0023
     17 C           6.2116    1.2231   -0.0452 C.ar    1  LIG1        0.0258
     18 H           6.0650   -0.6368    0.9811 H       1  LIG1        0.0636
     19 C           4.1113    2.2893   -0.5725 C.ar    1  LIG1       -0.0107
     20 C           5.4997    2.2966   -0.5925 C.ar    1  LIG1        0.1252
     21 H           3.5560    3.1186   -0.9958 H       1  LIG1        0.0661
     22 S           3.2036   -1.1566    1.3633 S.3     1  LIG1       -0.1420
     23 H           4.2836   -1.7387    1.8915 H       1  LIG1        0.1071
     24 O           6.2103    3.3264   -1.1313 O.3     1  LIG1       -0.5061
     25 H           5.6166    3.9565   -1.5530 H       1  LIG1        0.2922
     26 C           8.4050    0.1437   -0.6647 C.ar    1  LIG1        0.0134
     27 C           9.7994    0.1492   -0.6229 C.ar    1  LIG1       -0.0367
     28 C           7.7047    1.1982   -0.0698 C.ar    1  LIG1        0.0023
     29 C          10.5120    1.1758   -0.0096 C.ar    1  LIG1        0.0258
     30 H          10.3608   -0.6566   -1.0814 H       1  LIG1        0.0636
     31 C           8.4135    2.2417    0.5250 C.ar    1  LIG1       -0.0107
     32 C           9.8015    2.2411    0.5561 C.ar    1  LIG1        0.1252
     33 H           7.8597    3.0652    0.9611 H       1  LIG1        0.0661
     34 S           7.5044   -1.1599   -1.4919 S.3     1  LIG1       -0.1420
     35 H           8.5922   -1.7491   -1.9958 H       1  LIG1        0.1071
     36 O          10.5119    3.2545    1.1250 O.3     1  LIG1       -0.5061
     37 H           9.9147    3.8886    1.5355 H       1  LIG1        0.2922
     38 C          12.6893    0.0573    0.5861 C.ar    1  LIG1        0.0128
     39 C          14.0869    0.0450    0.5508 C.ar    1  LIG1       -0.0445
     40 C          12.0050    1.1390    0.0241 C.ar    1  LIG1        0.0022
     41 C          14.7974    1.0938   -0.0097 C.ar    1  LIG1       -0.0191
     42 H          14.6292   -0.7929    0.9699 H       1  LIG1        0.0630
     43 C          12.7240    2.1967   -0.5374 C.ar    1  LIG1       -0.0113
     44 C          14.1117    2.1795   -0.5517 C.ar    1  LIG1        0.1175
     45 H          12.1787    3.0364   -0.9525 H       1  LIG1        0.0660
     46 H          15.8786    1.0930   -0.0360 H       1  LIG1        0.0654
     47 S          11.7667   -1.2667    1.3592 S.3     1  LIG1       -0.1420
     48 H          12.8346   -1.8317    1.9322 H       1  LIG1        0.1071
     49 O          14.8553    3.1879   -1.0869 O.3     1  LIG1       -0.5067
     50 H          14.2839    3.8855   -1.4238 H       1  LIG1        0.2921
@<TRIPOS>BOND
     1    35    34    1
     2    25    24    1
     3    10     1    1
     4    10    11    1
     5    34    26    1
     6    50    49    1
     7     5     2    1
     8    24    20    1
     9    49    44    1
    10    30    27    1
    11    21    19    1
    12    45    43    1
    13     2     1   ar
    14     2     4   ar
    15     1     3   ar
    16    26    27   ar
    17    26    28   ar
    18    27    29   ar
    19    20    19   ar
    20    20    17   ar
    21    19    16   ar
    22    44    43   ar
    23    44    41   ar
    24    43    40   ar
    25    28    17    1
    26    28    31   ar
    27     3     9    1
    28     3     6   ar
    29    17    15   ar
    30    46    41    1
    31     4    16    1
    32     4     7   ar
    33    41    39   ar
    34    29    40    1
    35    29    32   ar
    36    16    14   ar
    37    40    38   ar
    38    31    32   ar
    39    31    33    1
    40    15    14   ar
    41    15    18    1
    42    39    38   ar
    43    39    42    1
    44    32    36    1
    45     6     7   ar
    46     6     8    1
    47    14    22    1
    48     7    12    1
    49    38    47    1
    50    36    37    1
    51    12    13    1
    52    47    48    1
    53    22    23    1
