@<TRIPOS>MOLECULE
mol_data/opt/m06hf/geoms/mol2/4gf4gf-4gf-4gf.out
 50 53 0 0 0
SMALL
GASTEIGER

@<TRIPOS>ATOM
      1 C          -0.1714   -0.0252   -0.1072 C.ar    1  LIG1        0.0055
      2 C           1.2217    0.0082   -0.1394 C.ar    1  LIG1       -0.0373
      3 C          -0.8805    1.1707   -0.0547 C.ar    1  LIG1       -0.0451
      4 C           1.9148    1.2155   -0.0830 C.ar    1  LIG1        0.0257
      5 H           1.7829   -0.9164   -0.2020 H       1  LIG1        0.0636
      6 C          -0.2051    2.3867   -0.0389 C.ar    1  LIG1       -0.0185
      7 C           1.1873    2.4124   -0.0460 C.ar    1  LIG1        0.1246
      8 H          -0.7609    3.3168   -0.0079 H       1  LIG1        0.0654
      9 H          -1.9620    1.1505   -0.0246 H       1  LIG1        0.0630
     10 S          -1.0538   -1.5817   -0.1702 S.3     1  LIG1       -0.1426
     11 H          -0.6390   -2.0314    1.0207 H       1  LIG1        0.1071
     12 O           1.8886    3.5769   -0.0269 O.3     1  LIG1       -0.5062
     13 H           1.2990    4.3221    0.1284 H       1  LIG1        0.2922
     14 C           4.1014    0.6159    0.9991 C.ar    1  LIG1        0.0134
     15 C           5.4957    0.6106    0.9777 C.ar    1  LIG1       -0.0367
     16 C           3.4086    1.2245   -0.0519 C.ar    1  LIG1        0.0023
     17 C           6.2123    1.2023   -0.0589 C.ar    1  LIG1        0.0258
     18 H           6.0517    0.1499    1.7861 H       1  LIG1        0.0636
     19 C           4.1203    1.8378   -1.0812 C.ar    1  LIG1       -0.0107
     20 C           5.5094    1.8367   -1.0894 C.ar    1  LIG1        0.1252
     21 H           3.5708    2.3228   -1.8799 H       1  LIG1        0.0661
     22 S           3.1763   -0.0894    2.3544 S.3     1  LIG1       -0.1420
     23 H           4.2516   -0.4115    3.0793 H       1  LIG1        0.1071
     24 O           6.2292    2.4393   -2.0753 O.3     1  LIG1       -0.5061
     25 H           5.6428    2.7802   -2.7587 H       1  LIG1        0.2922
     26 C           8.3983   -0.0504   -0.0273 C.ar    1  LIG1        0.0134
     27 C           9.7926   -0.0331    0.0267 C.ar    1  LIG1       -0.0367
     28 C           7.7051    1.1636   -0.0576 C.ar    1  LIG1        0.0023
     29 C          10.5111    1.1584    0.0072 C.ar    1  LIG1        0.0258
     30 H          10.3456   -0.9633    0.0839 H       1  LIG1        0.0636
     31 C           8.4194    2.3619   -0.0629 C.ar    1  LIG1       -0.0107
     32 C           9.8075    2.3681   -0.0373 C.ar    1  LIG1        0.1252
     33 H           7.8703    3.2956   -0.1046 H       1  LIG1        0.0661
     34 S           7.4924   -1.5899   -0.0767 S.3     1  LIG1       -0.1420
     35 H           8.5349   -2.3258   -0.4754 H       1  LIG1        0.1071
     36 O          10.5264    3.5244   -0.0423 O.3     1  LIG1       -0.5061
     37 H           9.9395    4.2791   -0.1581 H       1  LIG1        0.2922
     38 C          12.7345    0.4817   -0.9592 C.ar    1  LIG1        0.0128
     39 C          14.1289    0.4451   -0.8656 C.ar    1  LIG1       -0.0445
     40 C          12.0045    1.1369    0.0365 C.ar    1  LIG1        0.0022
     41 C          14.7909    1.0657    0.1814 C.ar    1  LIG1       -0.0191
     42 H          14.7073   -0.0712   -1.6213 H       1  LIG1        0.0630
     43 C          12.6742    1.7644    1.0892 C.ar    1  LIG1       -0.0113
     44 C          14.0598    1.7338    1.1624 C.ar    1  LIG1        0.1175
     45 H          12.0923    2.2830    1.8426 H       1  LIG1        0.0660
     46 H          15.8694    1.0445    0.2589 H       1  LIG1        0.0654
     47 S          11.8672   -0.2662   -2.3315 S.3     1  LIG1       -0.1420
     48 H          12.9616   -0.4309   -3.0825 H       1  LIG1        0.1071
     49 O          14.7575    2.3309    2.1689 O.3     1  LIG1       -0.5067
     50 H          14.1542    2.7426    2.7961 H       1  LIG1        0.2921
@<TRIPOS>BOND
     1    48    47    1
     2    25    24    1
     3    47    38    1
     4    24    20    1
     5    21    19    1
     6    42    39    1
     7    20    19   ar
     8    20    17   ar
     9    19    16   ar
    10    38    39   ar
    11    38    40   ar
    12    39    41   ar
    13    35    34    1
    14     5     2    1
    15    10     1    1
    16    10    11    1
    17    37    36    1
    18     2     1   ar
    19     2     4   ar
    20     1     3   ar
    21    33    31    1
    22     4    16    1
    23     4     7   ar
    24    34    26    1
    25    31    28   ar
    26    31    32   ar
    27    17    28    1
    28    17    15   ar
    29    28    26   ar
    30     3     6   ar
    31     3     9    1
    32    16    14   ar
    33     7     6   ar
    34     7    12    1
    35    36    32    1
    36     6     8    1
    37    32    29   ar
    38    26    27   ar
    39    12    13    1
    40    29    27   ar
    41    29    40    1
    42    27    30    1
    43    40    43   ar
    44    41    46    1
    45    41    44   ar
    46    15    14   ar
    47    15    18    1
    48    14    22    1
    49    43    44   ar
    50    43    45    1
    51    44    49    1
    52    49    50    1
    53    22    23    1
