@<TRIPOS>MOLECULE
mol_data/opt/m06hf/geoms/mol2/4gf4gf.out
 26 27 0 0 0
SMALL
GASTEIGER

@<TRIPOS>ATOM
      1 C           0.0325    0.2497    0.7154 C.ar    1  LIG1        0.0055
      2 C           1.4263    0.2818    0.7354 C.ar    1  LIG1       -0.0373
      3 C          -0.6608    1.2277    0.0095 C.ar    1  LIG1       -0.0451
      4 C           2.1349    1.2561    0.0366 C.ar    1  LIG1        0.0257
      5 H           1.9762   -0.4614    1.3004 H       1  LIG1        0.0636
      6 C           0.0304    2.2294   -0.6646 C.ar    1  LIG1       -0.0185
      7 C           1.4227    2.2437   -0.6574 C.ar    1  LIG1        0.1246
      8 H          -0.5140    2.9941   -1.2069 H       1  LIG1        0.0654
      9 H          -1.7421    1.2054   -0.0139 H       1  LIG1        0.0630
     10 S          -0.8730   -0.9958    1.6280 S.3     1  LIG1       -0.1426
     11 H          -0.4702   -2.0388    0.8915 H       1  LIG1        0.1071
     12 O           2.1401    3.1997   -1.3027 O.3     1  LIG1       -0.5062
     13 H           1.5551    3.7908   -1.7879 H       1  LIG1        0.2922
     14 C           4.3309    0.1798   -0.5359 C.ar    1  LIG1        0.0128
     15 C           5.7274    0.1791   -0.4833 C.ar    1  LIG1       -0.0445
     16 C           3.6296    1.2457    0.0337 C.ar    1  LIG1        0.0022
     17 C           6.4179    1.2233    0.1108 C.ar    1  LIG1       -0.0191
     18 H           6.2848   -0.6435   -0.9127 H       1  LIG1        0.0630
     19 C           4.3267    2.2990    0.6269 C.ar    1  LIG1       -0.0113
     20 C           5.7147    2.2926    0.6638 C.ar    1  LIG1        0.1175
     21 H           3.7663    3.1229    1.0537 H       1  LIG1        0.0660
     22 H           7.4982    1.2323    0.1539 H       1  LIG1        0.0654
     23 S           3.4131   -1.1328   -1.3314 S.3     1  LIG1       -0.1420
     24 H           4.4904   -1.7312   -1.8468 H       1  LIG1        0.1071
     25 O           6.4411    3.2952    1.2321 O.3     1  LIG1       -0.5067
     26 H           5.8586    3.9876    1.5602 H       1  LIG1        0.2921
@<TRIPOS>BOND
     1    24    23    1
     2    13    12    1
     3    23    14    1
     4    12     7    1
     5     8     6    1
     6    18    15    1
     7     6     7   ar
     8     6     3   ar
     9     7     4   ar
    10    14    15   ar
    11    14    16   ar
    12    15    17   ar
    13     9     3    1
    14     3     1   ar
    15    16     4    1
    16    16    19   ar
    17     4     2   ar
    18    17    22    1
    19    17    20   ar
    20    19    20   ar
    21    19    21    1
    22    20    25    1
    23     1     2   ar
    24     1    10    1
    25     2     5    1
    26    11    10    1
    27    25    26    1
