@<TRIPOS>MOLECULE
mol_data/opt/m06hf/geoms/mol2/4gf4gf4gf-.out
 38 40 0 0 0
SMALL
GASTEIGER

@<TRIPOS>ATOM
      1 C          -0.0691    0.1481    0.6090 C.ar    1  LIG1        0.0055
      2 C           1.3250    0.1623    0.5972 C.ar    1  LIG1       -0.0373
      3 C          -0.7664    1.2336    0.0873 C.ar    1  LIG1       -0.0451
      4 C           2.0287    1.2321    0.0489 C.ar    1  LIG1        0.0257
      5 H           1.8776   -0.6691    1.0178 H       1  LIG1        0.0636
      6 C          -0.0791    2.3195   -0.4446 C.ar    1  LIG1       -0.0185
      7 C           1.3138    2.3194   -0.4688 C.ar    1  LIG1        0.1246
      8 H          -0.6253    3.1653   -0.8458 H       1  LIG1        0.0654
      9 H          -1.8485    1.2293    0.0986 H       1  LIG1        0.0630
     10 S          -0.9605   -1.2213    1.3419 S.3     1  LIG1       -0.1426
     11 H          -0.7624   -2.0836    0.3374 H       1  LIG1        0.1071
     12 O           2.0290    3.3573   -0.9749 O.3     1  LIG1       -0.5062
     13 H           1.4450    3.9964   -1.3962 H       1  LIG1        0.2922
     14 C           4.2127    0.3045   -0.7813 C.ar    1  LIG1        0.0134
     15 C           5.6074    0.3085   -0.7672 C.ar    1  LIG1       -0.0367
     16 C           3.5229    1.2213    0.0158 C.ar    1  LIG1        0.0023
     17 C           6.3254    1.2022    0.0231 C.ar    1  LIG1        0.0258
     18 H           6.1636   -0.3881   -1.3835 H       1  LIG1        0.0636
     19 C           4.2353    2.1312    0.7946 C.ar    1  LIG1       -0.0107
     20 C           5.6246    2.1286    0.8035 C.ar    1  LIG1        0.1252
     21 H           3.6861    2.8471    1.3959 H       1  LIG1        0.0661
     22 S           3.2778   -0.8114   -1.8151 S.3     1  LIG1       -0.1420
     23 H           4.3506   -1.3890   -2.3656 H       1  LIG1        0.1071
     24 O           6.3468    3.0086    1.5508 O.3     1  LIG1       -0.5061
     25 H           5.7614    3.5315    2.1083 H       1  LIG1        0.2922
     26 C           8.5169    0.0310    0.4299 C.ar    1  LIG1        0.0128
     27 C           9.9138    0.0347    0.3794 C.ar    1  LIG1       -0.0445
     28 C           7.8196    1.1730    0.0261 C.ar    1  LIG1        0.0022
     29 C          10.6098    1.1559   -0.0437 C.ar    1  LIG1       -0.0191
     30 H          10.4676   -0.8460    0.6790 H       1  LIG1        0.0630
     31 C           8.5227    2.3023   -0.3970 C.ar    1  LIG1       -0.0113
     32 C           9.9105    2.2985   -0.4294 C.ar    1  LIG1        0.1175
     33 H           7.9656    3.1847   -0.6910 H       1  LIG1        0.0660
     34 H          11.6906    1.1678   -0.0806 H       1  LIG1        0.0654
     35 S           7.5996   -1.3848    1.0221 S.3     1  LIG1       -0.1420
     36 H           8.6700   -2.0393    1.4842 H       1  LIG1        0.1071
     37 O          10.6396    3.3766   -0.8328 O.3     1  LIG1       -0.5067
     38 H          10.0575    4.1099   -1.0561 H       1  LIG1        0.2921
@<TRIPOS>BOND
     1    23    22    1
     2    22    14    1
     3    13    12    1
     4    18    15    1
     5    38    37    1
     6    12     7    1
     7     8     6    1
     8    37    32    1
     9    14    15   ar
    10    14    16   ar
    11    15    17   ar
    12    33    31    1
    13     7     6   ar
    14     7     4   ar
    15     6     3   ar
    16    32    31   ar
    17    32    29   ar
    18    31    28   ar
    19    34    29    1
    20    29    27   ar
    21    16     4    1
    22    16    19   ar
    23    17    28    1
    24    17    20   ar
    25    28    26   ar
    26     4     2   ar
    27     3     9    1
    28     3     1   ar
    29    11    10    1
    30    27    26   ar
    31    27    30    1
    32    26    35    1
    33     2     1   ar
    34     2     5    1
    35     1    10    1
    36    19    20   ar
    37    19    21    1
    38    20    24    1
    39    35    36    1
    40    24    25    1
