@<TRIPOS>MOLECULE
mol_data/opt/m06hf/geoms/mol2/4gf4gf4gf.out
 38 40 0 0 0
SMALL
GASTEIGER

@<TRIPOS>ATOM
      1 C          -0.0690    0.6296    1.0976 C.ar    1  LIG1        0.0055
      2 C           1.3247    0.6541    1.0871 C.ar    1  LIG1       -0.0373
      3 C          -0.7689    1.1931    0.0352 C.ar    1  LIG1       -0.0451
      4 C           2.0299    1.2023    0.0178 C.ar    1  LIG1        0.0257
      5 H           1.8735    0.2407    1.9253 H       1  LIG1        0.0636
      6 C          -0.0822    1.7651   -1.0302 C.ar    1  LIG1       -0.0185
      7 C           1.3108    1.7687   -1.0433 C.ar    1  LIG1        0.1246
      8 H          -0.6291    2.2063   -1.8557 H       1  LIG1        0.0654
      9 H          -1.8509    1.1853    0.0425 H       1  LIG1        0.0630
     10 S          -0.9532   -0.0721    2.4890 S.3     1  LIG1       -0.1426
     11 H          -0.8473   -1.3510    2.1026 H       1  LIG1        0.1071
     12 O           2.0199    2.3206   -2.0621 O.3     1  LIG1       -0.5062
     13 H           1.4332    2.5870   -2.7774 H       1  LIG1        0.2922
     14 C           4.2344   -0.0133    0.0686 C.ar    1  LIG1        0.0134
     15 C           5.6285    0.0249    0.1058 C.ar    1  LIG1       -0.0367
     16 C           3.5234    1.1888    0.0077 C.ar    1  LIG1        0.0023
     17 C           6.3290    1.2261    0.0383 C.ar    1  LIG1        0.0258
     18 H           6.1966   -0.8949    0.1822 H       1  LIG1        0.0636
     19 C           4.2191    2.3965   -0.0419 C.ar    1  LIG1       -0.0107
     20 C           5.6075    2.4234   -0.0340 C.ar    1  LIG1        0.1252
     21 H           3.6563    3.3212   -0.1019 H       1  LIG1        0.0661
     22 S           3.3428   -1.5604    0.0767 S.3     1  LIG1       -0.1420
     23 H           4.4003   -2.3121   -0.2459 H       1  LIG1        0.1071
     24 O           6.3076    3.5903   -0.0819 O.3     1  LIG1       -0.5061
     25 H           5.7138    4.3250   -0.2682 H       1  LIG1        0.2922
     26 C           8.5457    0.5564   -0.9476 C.ar    1  LIG1        0.0128
     27 C           9.9421    0.5522   -0.8847 C.ar    1  LIG1       -0.0445
     28 C           7.8232    1.2291    0.0420 C.ar    1  LIG1        0.0022
     29 C          10.6127    1.2167    0.1295 C.ar    1  LIG1       -0.0191
     30 H          10.5150    0.0275   -1.6390 H       1  LIG1        0.0630
     31 C           8.5013    1.9029    1.0596 C.ar    1  LIG1       -0.0113
     32 C           9.8890    1.9008    1.1047 C.ar    1  LIG1        0.1175
     33 H           7.9254    2.4360    1.8077 H       1  LIG1        0.0660
     34 H          11.6927    1.2215    0.1826 H       1  LIG1        0.0654
     35 S           7.6624   -0.2527   -2.2756 S.3     1  LIG1       -0.1420
     36 H           8.7524   -0.5073   -3.0055 H       1  LIG1        0.1071
     37 O          10.5954    2.5447    2.0754 O.3     1  LIG1       -0.5067
     38 H           9.9985    2.9756    2.6960 H       1  LIG1        0.2921
@<TRIPOS>BOND
     1    36    35    1
     2    13    12    1
     3    35    26    1
     4    12     7    1
     5     8     6    1
     6    30    27    1
     7     7     6   ar
     8     7     4   ar
     9     6     3   ar
    10    26    27   ar
    11    26    28   ar
    12    27    29   ar
    13    25    24    1
    14    23    22    1
    15    21    19    1
    16    24    20    1
    17    19    20   ar
    18    19    16   ar
    19    20    17   ar
    20    16     4    1
    21    16    14   ar
    22     4     2   ar
    23     3     9    1
    24     3     1   ar
    25    17    28    1
    26    17    15   ar
    27    28    31   ar
    28    14    22    1
    29    14    15   ar
    30    15    18    1
    31    29    34    1
    32    29    32   ar
    33    31    32   ar
    34    31    33    1
    35     2     1   ar
    36     2     5    1
    37     1    10    1
    38    32    37    1
    39    37    38    1
    40    11    10    1
