@<TRIPOS>MOLECULE
mol_data/opt/m06hf/geoms/mol2/4gf4gf4gf4gf-.out
 50 53 0 0 0
SMALL
GASTEIGER

@<TRIPOS>ATOM
      1 C          -0.1648    0.6677    1.1483 C.ar    1  LIG1        0.0055
      2 C           1.2287    0.6931    1.1222 C.ar    1  LIG1       -0.0373
      3 C          -0.8769    1.2200    0.0880 C.ar    1  LIG1       -0.0451
      4 C           1.9198    1.2356    0.0414 C.ar    1  LIG1        0.0257
      5 H           1.7882    0.2848    1.9553 H       1  LIG1        0.0636
      6 C          -0.2035    1.7872   -0.9884 C.ar    1  LIG1       -0.0185
      7 C           1.1892    1.7949   -1.0154 C.ar    1  LIG1        0.1246
      8 H          -0.7599    2.2196   -1.8120 H       1  LIG1        0.0654
      9 H          -1.9587    1.2070    0.1062 H       1  LIG1        0.0630
     10 S          -1.0346   -0.0227    2.5556 S.3     1  LIG1       -0.1426
     11 H          -0.8856   -1.3072    2.2097 H       1  LIG1        0.1071
     12 O           1.8895    2.3423   -2.0417 O.3     1  LIG1       -0.5062
     13 H           1.2962    2.6309   -2.7432 H       1  LIG1        0.2922
     14 C           4.1200    0.0159    0.0138 C.ar    1  LIG1        0.0134
     15 C           5.5145    0.0477    0.0188 C.ar    1  LIG1       -0.0367
     16 C           3.4138    1.2221    0.0099 C.ar    1  LIG1        0.0023
     17 C           6.2172    1.2493   -0.0120 C.ar    1  LIG1        0.0258
     18 H           6.0821   -0.8751    0.0442 H       1  LIG1        0.0636
     19 C           4.1119    2.4291   -0.0060 C.ar    1  LIG1       -0.0107
     20 C           5.5005    2.4514   -0.0207 C.ar    1  LIG1        0.1252
     21 H           3.5514    3.3569   -0.0195 H       1  LIG1        0.0661
     22 S           3.2187   -1.5249   -0.0135 S.3     1  LIG1       -0.1420
     23 H           4.2957   -2.2852   -0.2294 H       1  LIG1        0.1071
     24 O           6.2066    3.6163   -0.0310 O.3     1  LIG1       -0.5061
     25 H           5.6118    4.3646   -0.1460 H       1  LIG1        0.2922
     26 C           8.4160    0.5936   -1.0522 C.ar    1  LIG1        0.0134
     27 C           9.8099    0.5729   -1.0028 C.ar    1  LIG1       -0.0367
     28 C           7.7108    1.2426   -0.0336 C.ar    1  LIG1        0.0023
     29 C          10.5152    1.1851    0.0295 C.ar    1  LIG1        0.0258
     30 H          10.3761    0.0754   -1.7817 H       1  LIG1        0.0636
     31 C           8.4126    1.8772    0.9913 C.ar    1  LIG1       -0.0107
     32 C           9.8005    1.8576    1.0277 C.ar    1  LIG1        0.1252
     33 H           7.8536    2.3945    1.7628 H       1  LIG1        0.0661
     34 S           7.5178   -0.1640   -2.3993 S.3     1  LIG1       -0.1420
     35 H           8.6063   -0.4161   -3.1341 H       1  LIG1        0.1071
     36 O          10.5097    2.4749    2.0122 O.3     1  LIG1       -0.5061
     37 H           9.9132    2.8571    2.6647 H       1  LIG1        0.2922
     38 C          12.6819   -0.0947    0.0967 C.ar    1  LIG1        0.0128
     39 C          14.0797   -0.1016    0.0719 C.ar    1  LIG1       -0.0445
     40 C          12.0081    1.1292    0.0557 C.ar    1  LIG1        0.0022
     41 C          14.7980    1.0824    0.0262 C.ar    1  LIG1       -0.0191
     42 H          14.6155   -1.0420    0.0912 H       1  LIG1        0.0630
     43 C          12.7344    2.3213    0.0143 C.ar    1  LIG1       -0.0113
     44 C          14.1223    2.3013    0.0022 C.ar    1  LIG1        0.1175
     45 H          12.1945    3.2612    0.0007 H       1  LIG1        0.0660
     46 H          15.8793    1.0855    0.0112 H       1  LIG1        0.0654
     47 S          11.7365   -1.6083    0.1989 S.3     1  LIG1       -0.1420
     48 H          12.7861   -2.3866    0.4811 H       1  LIG1        0.1071
     49 O          14.8761    3.4353   -0.0393 O.3     1  LIG1       -0.5067
     50 H          14.3109    4.2141   -0.0706 H       1  LIG1        0.2921
@<TRIPOS>BOND
     1    35    34    1
     2    13    12    1
     3    34    26    1
     4    12     7    1
     5     8     6    1
     6    30    27    1
     7    26    27   ar
     8    26    28   ar
     9     7     6   ar
    10     7     4   ar
    11    27    29   ar
    12     6     3   ar
    13    23    22    1
    14    25    24    1
    15    50    49    1
    16    49    44    1
    17    28    17    1
    18    28    31   ar
    19    24    20    1
    20    20    17   ar
    21    20    19   ar
    22    21    19    1
    23    22    14    1
    24    17    15   ar
    25    19    16   ar
    26    45    43    1
    27    44    43   ar
    28    44    41   ar
    29    16    14   ar
    30    16     4    1
    31    46    41    1
    32    14    15   ar
    33    43    40   ar
    34    15    18    1
    35    41    39   ar
    36    29    40    1
    37    29    32   ar
    38     4     2   ar
    39    40    38   ar
    40    39    42    1
    41    39    38   ar
    42     3     9    1
    43     3     1   ar
    44    38    47    1
    45    47    48    1
    46    31    32   ar
    47    31    33    1
    48    32    36    1
    49     2     1   ar
    50     2     5    1
    51     1    10    1
    52    36    37    1
    53    11    10    1
