@<TRIPOS>MOLECULE
mol_data/opt/m06hf/geoms/mol2/4gf4gf4gf-4gf-.out
 50 53 0 0 0
SMALL
GASTEIGER

@<TRIPOS>ATOM
      1 C          -0.1803    0.1863    0.6677 C.ar    1  LIG1        0.0055
      2 C           1.2133    0.2233    0.6751 C.ar    1  LIG1       -0.0373
      3 C          -0.8853    1.2030    0.0313 C.ar    1  LIG1       -0.0451
      4 C           1.9126    1.2374    0.0248 C.ar    1  LIG1        0.0257
      5 H           1.7694   -0.5485    1.1940 H       1  LIG1        0.0636
      6 C          -0.2037    2.2447   -0.5894 C.ar    1  LIG1       -0.0185
      7 C           1.1885    2.2622   -0.6002 C.ar    1  LIG1        0.1246
      8 H          -0.7552    3.0401   -1.0776 H       1  LIG1        0.0654
      9 H          -1.9671    1.1795    0.0202 H       1  LIG1        0.0630
     10 S          -1.0655   -1.1206    1.5131 S.3     1  LIG1       -0.1426
     11 H          -0.6750   -2.1102    0.6992 H       1  LIG1        0.1071
     12 O           1.8925    3.2593   -1.1989 O.3     1  LIG1       -0.5062
     13 H           1.2982    3.8563   -1.6654 H       1  LIG1        0.2922
     14 C           4.1095    0.1577   -0.5565 C.ar    1  LIG1        0.0134
     15 C           5.5036    0.1696   -0.5202 C.ar    1  LIG1       -0.0367
     16 C           3.4061    1.2292    0.0026 C.ar    1  LIG1        0.0023
     17 C           6.2115    1.2238    0.0509 C.ar    1  LIG1        0.0258
     18 H           6.0675   -0.6509   -0.9483 H       1  LIG1        0.0636
     19 C           4.1098    2.2979    0.5564 C.ar    1  LIG1       -0.0107
     20 C           5.4982    2.3054    0.5803 C.ar    1  LIG1        0.1252
     21 H           3.5535    3.1334    0.9658 H       1  LIG1        0.0661
     22 S           3.2071   -1.1761   -1.3309 S.3     1  LIG1       -0.1420
     23 H           4.2885   -1.7659   -1.8475 H       1  LIG1        0.1071
     24 O           6.2074    3.3430    1.1058 O.3     1  LIG1       -0.5061
     25 H           5.6125    3.9793    1.5166 H       1  LIG1        0.2922
     26 C           8.4029    0.1535    0.6926 C.ar    1  LIG1        0.0134
     27 C           9.7974    0.1582    0.6547 C.ar    1  LIG1       -0.0367
     28 C           7.7045    1.1992    0.0801 C.ar    1  LIG1        0.0023
     29 C          10.5120    1.1756    0.0284 C.ar    1  LIG1        0.0258
     30 H          10.3574   -0.6407    1.1267 H       1  LIG1        0.0636
     31 C           8.4152    2.2337   -0.5279 C.ar    1  LIG1       -0.0107
     32 C           9.8033    2.2325   -0.5550 C.ar    1  LIG1        0.1252
     33 H           7.8627    3.0508   -0.9777 H       1  LIG1        0.0661
     34 S           7.4997   -1.1377    1.5363 S.3     1  LIG1       -0.1420
     35 H           8.5861   -1.7195    2.0519 H       1  LIG1        0.1071
     36 O          10.5154    3.2374   -1.1367 O.3     1  LIG1       -0.5061
     37 H           9.9195    3.8654   -1.5583 H       1  LIG1        0.2922
     38 C          12.6908    0.0483   -0.5444 C.ar    1  LIG1        0.0128
     39 C          14.0884    0.0364   -0.5048 C.ar    1  LIG1       -0.0445
     40 C          12.0051    1.1382   -0.0004 C.ar    1  LIG1        0.0022
     41 C          14.7973    1.0933    0.0424 C.ar    1  LIG1       -0.0191
     42 H          14.6318   -0.8077   -0.9100 H       1  LIG1        0.0630
     43 C          12.7225    2.2040    0.5477 C.ar    1  LIG1       -0.0113
     44 C          14.1102    2.1869    0.5664 C.ar    1  LIG1        0.1175
     45 H          12.1761    3.0497    0.9488 H       1  LIG1        0.0660
     46 H          15.8784    1.0927    0.0718 H       1  LIG1        0.0654
     47 S          11.7704   -1.2868   -1.3008 S.3     1  LIG1       -0.1420
     48 H          12.8399   -1.8603   -1.8621 H       1  LIG1        0.1071
     49 O          14.8524    3.2029    1.0888 O.3     1  LIG1       -0.5067
     50 H          14.2800    3.9054    1.4139 H       1  LIG1        0.2921
@<TRIPOS>BOND
     1    48    47    1
     2    23    22    1
     3    13    12    1
     4    37    36    1
     5    22    14    1
     6    47    38    1
     7    12     7    1
     8    36    32    1
     9     8     6    1
    10    33    31    1
    11    18    15    1
    12    42    39    1
    13     7     6   ar
    14     7     4   ar
    15     6     3   ar
    16    14    15   ar
    17    14    16   ar
    18    32    31   ar
    19    32    29   ar
    20    38    39   ar
    21    38    40   ar
    22    31    28   ar
    23    15    17   ar
    24    39    41   ar
    25    40    29    1
    26    40    43   ar
    27    16     4    1
    28    16    19   ar
    29     9     3    1
    30     4     2   ar
    31    29    27   ar
    32     3     1   ar
    33    41    46    1
    34    41    44   ar
    35    17    28    1
    36    17    20   ar
    37    28    26   ar
    38    43    44   ar
    39    43    45    1
    40    19    20   ar
    41    19    21    1
    42    44    49    1
    43    20    24    1
    44    27    26   ar
    45    27    30    1
    46     1     2   ar
    47     1    10    1
    48     2     5    1
    49    26    34    1
    50    11    10    1
    51    49    50    1
    52    24    25    1
    53    34    35    1
