@<TRIPOS>MOLECULE
mol_data/opt/m06hf/geoms/mol2/4gf4gf4gf-4gf.out
 50 53 0 0 0
SMALL
GASTEIGER

@<TRIPOS>ATOM
      1 C          -0.1793    0.1825    0.6728 C.ar    1  LIG1        0.0055
      2 C           1.2143    0.2196    0.6785 C.ar    1  LIG1       -0.0373
      3 C          -0.8853    1.2024    0.0424 C.ar    1  LIG1       -0.0451
      4 C           1.9126    1.2369    0.0323 C.ar    1  LIG1        0.0257
      5 H           1.7711   -0.5548    1.1928 H       1  LIG1        0.0636
      6 C          -0.2045    2.2472   -0.5740 C.ar    1  LIG1       -0.0185
      7 C           1.1877    2.2648   -0.5865 C.ar    1  LIG1        0.1246
      8 H          -0.7567    3.0450   -1.0575 H       1  LIG1        0.0654
      9 H          -1.9671    1.1789    0.0327 H       1  LIG1        0.0630
     10 S          -1.0634   -1.1286    1.5128 S.3     1  LIG1       -0.1426
     11 H          -0.6740   -2.1141    0.6934 H       1  LIG1        0.1071
     12 O           1.8908    3.2649   -1.1813 O.3     1  LIG1       -0.5062
     13 H           1.2959    3.8642   -1.6440 H       1  LIG1        0.2922
     14 C           4.1088    0.1604   -0.5575 C.ar    1  LIG1        0.0134
     15 C           5.5030    0.1722   -0.5231 C.ar    1  LIG1       -0.0367
     16 C           3.4061    1.2289    0.0081 C.ar    1  LIG1        0.0023
     17 C           6.2115    1.2235    0.0526 C.ar    1  LIG1        0.0258
     18 H           6.0664   -0.6460   -0.9563 H       1  LIG1        0.0636
     19 C           4.1105    2.2947    0.5665 C.ar    1  LIG1       -0.0107
     20 C           5.4989    2.3023    0.5886 C.ar    1  LIG1        0.1252
     21 H           3.5546    3.1281    0.9811 H       1  LIG1        0.0661
     22 S           3.2055   -1.1693   -1.3378 S.3     1  LIG1       -0.1420
     23 H           4.2863   -1.7564   -1.8589 H       1  LIG1        0.1071
     24 O           6.2087    3.3371    1.1186 O.3     1  LIG1       -0.5061
     25 H           5.6144    3.9712    1.5335 H       1  LIG1        0.2922
     26 C           8.4040    0.1500    0.6856 C.ar    1  LIG1        0.0134
     27 C           9.7984    0.1550    0.6457 C.ar    1  LIG1       -0.0367
     28 C           7.7046    1.1989    0.0796 C.ar    1  LIG1        0.0023
     29 C          10.5120    1.1758    0.0238 C.ar    1  LIG1        0.0258
     30 H          10.3591   -0.6463    1.1128 H       1  LIG1        0.0636
     31 C           8.4143    2.2366   -0.5240 C.ar    1  LIG1       -0.0107
     32 C           9.8024    2.2357   -0.5531 C.ar    1  LIG1        0.1252
     33 H           7.8612    3.0560   -0.9687 H       1  LIG1        0.0661
     34 S           7.5021   -1.1456    1.5238 S.3     1  LIG1       -0.1420
     35 H           8.5891   -1.7299    2.0349 H       1  LIG1        0.1071
     36 O          10.5136    3.2436   -1.1305 O.3     1  LIG1       -0.5061
     37 H           9.9171    3.8738   -1.5480 H       1  LIG1        0.2922
     38 C          12.6901    0.0515   -0.5580 C.ar    1  LIG1        0.0128
     39 C          14.0877    0.0395   -0.5206 C.ar    1  LIG1       -0.0445
     40 C          12.0051    1.1386   -0.0074 C.ar    1  LIG1        0.0022
     41 C          14.7973    1.0936    0.0310 C.ar    1  LIG1       -0.0191
     42 H          14.6305   -0.8024   -0.9309 H       1  LIG1        0.0630
     43 C          12.7232    2.2016    0.5451 C.ar    1  LIG1       -0.0113
     44 C          14.1110    2.1845    0.5617 C.ar    1  LIG1        0.1175
     45 H          12.1774    3.0452    0.9514 H       1  LIG1        0.0660
     46 H          15.8785    1.0930    0.0589 H       1  LIG1        0.0654
     47 S          11.7686   -1.2797   -1.3199 S.3     1  LIG1       -0.1420
     48 H          12.8372   -1.8501   -1.8859 H       1  LIG1        0.1071
     49 O          14.8538    3.1978    1.0883 O.3     1  LIG1       -0.5067
     50 H          14.2820    3.8986    1.4177 H       1  LIG1        0.2921
@<TRIPOS>BOND
     1    48    47    1
     2    23    22    1
     3    13    12    1
     4    37    36    1
     5    22    14    1
     6    47    38    1
     7    12     7    1
     8    36    32    1
     9     8     6    1
    10    33    31    1
    11    18    15    1
    12    42    39    1
    13     7     6   ar
    14     7     4   ar
    15     6     3   ar
    16    38    39   ar
    17    38    40   ar
    18    14    15   ar
    19    14    16   ar
    20    32    31   ar
    21    32    29   ar
    22    31    28   ar
    23    15    17   ar
    24    39    41   ar
    25    40    29    1
    26    40    43   ar
    27    16     4    1
    28    16    19   ar
    29    29    27   ar
    30    41    46    1
    31    41    44   ar
    32     4     2   ar
    33     9     3    1
    34     3     1   ar
    35    17    28    1
    36    17    20   ar
    37    28    26   ar
    38    43    44   ar
    39    43    45    1
    40    44    49    1
    41    19    20   ar
    42    19    21    1
    43    20    24    1
    44    27    26   ar
    45    27    30    1
    46     1     2   ar
    47     1    10    1
    48     2     5    1
    49    26    34    1
    50    11    10    1
    51    49    50    1
    52    24    25    1
    53    34    35    1
