@<TRIPOS>MOLECULE
mol_data/opt/m06hf/geoms/mol2/4gf4gf-4gf-.out
 38 40 0 0 0
SMALL
GASTEIGER

@<TRIPOS>ATOM
      1 C          -0.0687    0.1333   -0.5832 C.ar    1  LIG1        0.0055
      2 C           1.3253    0.1493   -0.5737 C.ar    1  LIG1       -0.0373
      3 C          -0.7666    1.2254   -0.0764 C.ar    1  LIG1       -0.0451
      4 C           2.0286    1.2279   -0.0422 C.ar    1  LIG1        0.0257
      5 H           1.8784   -0.6876   -0.9828 H       1  LIG1        0.0636
      6 C          -0.0799    2.3199    0.4385 C.ar    1  LIG1       -0.0185
      7 C           1.3130    2.3218    0.4606 C.ar    1  LIG1        0.1246
      8 H          -0.6265    3.1708    0.8281 H       1  LIG1        0.0654
      9 H          -1.8487    1.2196   -0.0860 H       1  LIG1        0.0630
     10 S          -0.9595   -1.2478   -1.2945 S.3     1  LIG1       -0.1426
     11 H          -0.7591   -2.0949   -0.2776 H       1  LIG1        0.1071
     12 O           2.0278    3.3678    0.9503 O.3     1  LIG1       -0.5062
     13 H           1.4436    4.0122    1.3633 H       1  LIG1        0.2922
     14 C           4.2149    0.3154    0.7984 C.ar    1  LIG1        0.0134
     15 C           5.6096    0.3209    0.7822 C.ar    1  LIG1       -0.0367
     16 C           3.5228    1.2195   -0.0112 C.ar    1  LIG1        0.0023
     17 C           6.3253    1.2036   -0.0224 C.ar    1  LIG1        0.0258
     18 H           6.1675   -0.3658    1.4080 H       1  LIG1        0.0636
     19 C           4.2329    2.1185   -0.8044 C.ar    1  LIG1       -0.0107
     20 C           5.6222    2.1176   -0.8154 C.ar    1  LIG1        0.1252
     21 H           3.6820    2.8248   -1.4155 H       1  LIG1        0.0661
     22 S           3.2829   -0.7862    1.8500 S.3     1  LIG1       -0.1420
     23 H           4.3572   -1.3545    2.4072 H       1  LIG1        0.1071
     24 O           6.3423    2.9872   -1.5766 O.3     1  LIG1       -0.5061
     25 H           5.7554    3.5011   -2.1410 H       1  LIG1        0.2922
     26 C           8.5177    0.0294   -0.4153 C.ar    1  LIG1        0.0128
     27 C           9.9147    0.0355   -0.3668 C.ar    1  LIG1       -0.0445
     28 C           7.8195    1.1763   -0.0271 C.ar    1  LIG1        0.0022
     29 C          10.6098    1.1637    0.0388 C.ar    1  LIG1       -0.0191
     30 H          10.4691   -0.8487   -0.6545 H       1  LIG1        0.0630
     31 C           8.5218    2.3125    0.3785 C.ar    1  LIG1       -0.0113
     32 C           9.9097    2.3109    0.4088 C.ar    1  LIG1        0.1175
     33 H           7.9641    3.1984    0.6604 H       1  LIG1        0.0660
     34 H          11.6907    1.1775    0.0738 H       1  LIG1        0.0654
     35 S           7.6013   -1.3960   -0.9854 S.3     1  LIG1       -0.1420
     36 H           8.6718   -2.0560   -1.4394 H       1  LIG1        0.1071
     37 O          10.6380    3.3957    0.7953 O.3     1  LIG1       -0.5067
     38 H          10.0553    4.1315    1.0088 H       1  LIG1        0.2921
@<TRIPOS>BOND
     1    25    24    1
     2    24    20    1
     3    36    35    1
     4    21    19    1
     5    10     1    1
     6    10    11    1
     7    35    26    1
     8     5     2    1
     9    20    19   ar
    10    20    17   ar
    11    19    16   ar
    12    30    27    1
    13     1     2   ar
    14     1     3   ar
    15     2     4   ar
    16    26    27   ar
    17    26    28   ar
    18    27    29   ar
    19     9     3    1
    20     3     6   ar
    21     4    16    1
    22     4     7   ar
    23    28    17    1
    24    28    31   ar
    25    17    15   ar
    26    16    14   ar
    27    29    34    1
    28    29    32   ar
    29    31    32   ar
    30    31    33    1
    31    32    37    1
    32     6     7   ar
    33     6     8    1
    34     7    12    1
    35    15    14   ar
    36    15    18    1
    37    37    38    1
    38    14    22    1
    39    12    13    1
    40    22    23    1
