@<TRIPOS>MOLECULE
mol_data/opt/m06hf/geoms/mol2/4gf4gf-4gf-4gf-.out
 50 53 0 0 0
SMALL
GASTEIGER

@<TRIPOS>ATOM
      1 C          -0.1710   -0.0253   -0.1296 C.ar    1  LIG1        0.0055
      2 C           1.2223    0.0076   -0.1557 C.ar    1  LIG1       -0.0373
      3 C          -0.8801    1.1712   -0.0915 C.ar    1  LIG1       -0.0451
      4 C           1.9153    1.2153   -0.1073 C.ar    1  LIG1        0.0257
      5 H           1.7836   -0.9176   -0.2070 H       1  LIG1        0.0636
      6 C          -0.2046    2.3872   -0.0839 C.ar    1  LIG1       -0.0185
      7 C           1.1879    2.4126   -0.0848 C.ar    1  LIG1        0.1246
      8 H          -0.7603    3.3176   -0.0640 H       1  LIG1        0.0654
      9 H          -1.9617    1.1514   -0.0662 H       1  LIG1        0.0630
     10 S          -1.0534   -1.5822   -0.1823 S.3     1  LIG1       -0.1426
     11 H          -0.6444   -2.0209    1.0147 H       1  LIG1        0.1071
     12 O           1.8894    3.5771   -0.0733 O.3     1  LIG1       -0.5062
     13 H           1.2991    4.3238    0.0724 H       1  LIG1        0.2922
     14 C           4.0968    0.6257    0.9905 C.ar    1  LIG1        0.0134
     15 C           5.4911    0.6200    0.9758 C.ar    1  LIG1       -0.0367
     16 C           3.4089    1.2243   -0.0694 C.ar    1  LIG1        0.0023
     17 C           6.2126    1.2018   -0.0630 C.ar    1  LIG1        0.0258
     18 H           6.0433    0.1668    1.7910 H       1  LIG1        0.0636
     19 C           4.1255    1.8278   -1.1010 C.ar    1  LIG1       -0.0107
     20 C           5.5146    1.8265   -1.1028 C.ar    1  LIG1        0.1252
     21 H           3.5798    2.3053   -1.9069 H       1  LIG1        0.0661
     22 S           3.1651   -0.0667    2.3481 S.3     1  LIG1       -0.1420
     23 H           4.2370   -0.3825    3.0809 H       1  LIG1        0.1071
     24 O           6.2392    2.4197   -2.0909 O.3     1  LIG1       -0.5061
     25 H           5.6560    2.7542   -2.7802 H       1  LIG1        0.2922
     26 C           8.3983   -0.0508   -0.0097 C.ar    1  LIG1        0.0134
     27 C           9.7923   -0.0331    0.0507 C.ar    1  LIG1       -0.0367
     28 C           7.7054    1.1629   -0.0544 C.ar    1  LIG1        0.0023
     29 C          10.5111    1.1581    0.0236 C.ar    1  LIG1        0.0258
     30 H          10.3449   -0.9629    0.1190 H       1  LIG1        0.0636
     31 C           8.4198    2.3611   -0.0674 C.ar    1  LIG1       -0.0107
     32 C           9.8079    2.3673   -0.0353 C.ar    1  LIG1        0.1252
     33 H           7.8711    3.2944   -0.1204 H       1  LIG1        0.0661
     34 S           7.4923   -1.5905   -0.0492 S.3     1  LIG1       -0.1420
     35 H           8.5364   -2.3302   -0.4366 H       1  LIG1        0.1071
     36 O          10.5270    3.5235   -0.0477 O.3     1  LIG1       -0.5061
     37 H           9.9406    4.2772   -0.1722 H       1  LIG1        0.2922
     38 C          12.7388    0.4722   -0.9261 C.ar    1  LIG1        0.0128
     39 C          14.1327    0.4362   -0.8256 C.ar    1  LIG1       -0.0445
     40 C          12.0043    1.1367    0.0601 C.ar    1  LIG1        0.0022
     41 C          14.7900    1.0663    0.2187 C.ar    1  LIG1       -0.0191
     42 H          14.7145   -0.0872   -1.5737 H       1  LIG1        0.0630
     43 C          12.6692    1.7737    1.1101 C.ar    1  LIG1       -0.0113
     44 C          14.0544    1.7436    1.1901 C.ar    1  LIG1        0.1175
     45 H          12.0838    2.2993    1.8560 H       1  LIG1        0.0660
     46 H          15.8681    1.0457    0.3015 H       1  LIG1        0.0654
     47 S          11.8778   -0.2882   -2.2954 S.3     1  LIG1       -0.1420
     48 H          12.9756   -0.4595   -3.0399 H       1  LIG1        0.1071
     49 O          14.7475    2.3499    2.1942 O.3     1  LIG1       -0.5067
     50 H          14.1413    2.7674    2.8148 H       1  LIG1        0.2921
@<TRIPOS>BOND
     1    48    47    1
     2    25    24    1
     3    47    38    1
     4    24    20    1
     5    21    19    1
     6    42    39    1
     7    20    19   ar
     8    20    17   ar
     9    19    16   ar
    10    38    39   ar
    11    38    40   ar
    12    39    41   ar
    13    35    34    1
    14     5     2    1
    15    10     1    1
    16    10    11    1
    17    37    36    1
    18     2     1   ar
    19     2     4   ar
    20     1     3   ar
    21    33    31    1
    22     4     7   ar
    23     4    16    1
    24     3     6   ar
    25     3     9    1
    26     7     6   ar
    27     7    12    1
    28     6     8    1
    29    12    13    1
    30    16    14   ar
    31    31    28   ar
    32    31    32   ar
    33    17    28    1
    34    17    15   ar
    35    28    26   ar
    36    34    26    1
    37    36    32    1
    38    32    29   ar
    39    26    27   ar
    40    29    27   ar
    41    29    40    1
    42    27    30    1
    43    40    43   ar
    44    41    46    1
    45    41    44   ar
    46    15    14   ar
    47    15    18    1
    48    14    22    1
    49    43    44   ar
    50    43    45    1
    51    44    49    1
    52    49    50    1
    53    22    23    1
