@<TRIPOS>MOLECULE
mol_data/opt/m06hf/geoms/mol2/4gf4gf-4gf.out
 38 40 0 0 0
SMALL
GASTEIGER

@<TRIPOS>ATOM
      1 C          -0.0688    0.1392   -0.5929 C.ar    1  LIG1        0.0055
      2 C           1.3252    0.1544   -0.5822 C.ar    1  LIG1       -0.0373
      3 C          -0.7666    1.2289   -0.0806 C.ar    1  LIG1       -0.0451
      4 C           2.0286    1.2296   -0.0441 C.ar    1  LIG1        0.0257
      5 H           1.8782   -0.6805   -0.9955 H       1  LIG1        0.0636
      6 C          -0.0796    2.3200    0.4410 C.ar    1  LIG1       -0.0185
      7 C           1.3133    2.3211    0.4642 C.ar    1  LIG1        0.1246
      8 H          -0.6261    3.1691    0.8349 H       1  LIG1        0.0654
      9 H          -1.8486    1.2237   -0.0911 H       1  LIG1        0.0630
     10 S          -0.9597   -1.2375   -1.3126 S.3     1  LIG1       -0.1426
     11 H          -0.7608   -2.0902   -0.3002 H       1  LIG1        0.1071
     12 O           2.0282    3.3640    0.9604 O.3     1  LIG1       -0.5062
     13 H           1.4440    4.0065    1.3763 H       1  LIG1        0.2922
     14 C           4.2139    0.3113    0.7931 C.ar    1  LIG1        0.0134
     15 C           5.6085    0.3162    0.7780 C.ar    1  LIG1       -0.0367
     16 C           3.5229    1.2202   -0.0119 C.ar    1  LIG1        0.0023
     17 C           6.3254    1.2030   -0.0209 C.ar    1  LIG1        0.0258
     18 H           6.1656   -0.3744    1.4005 H       1  LIG1        0.0636
     19 C           4.2341    2.1234   -0.7995 C.ar    1  LIG1       -0.0107
     20 C           5.6234    2.1217   -0.8094 C.ar    1  LIG1        0.1252
     21 H           3.6840    2.8333   -1.4071 H       1  LIG1        0.0661
     22 S           3.2804   -0.7957    1.8377 S.3     1  LIG1       -0.1420
     23 H           4.3540   -1.3676    2.3927 H       1  LIG1        0.1071
     24 O           6.3445    2.9953   -1.5652 O.3     1  LIG1       -0.5061
     25 H           5.7583    3.5124   -2.1272 H       1  LIG1        0.2922
     26 C           8.5175    0.0298   -0.4185 C.ar    1  LIG1        0.0128
     27 C           9.9144    0.0350   -0.3688 C.ar    1  LIG1       -0.0445
     28 C           7.8196    1.1749   -0.0246 C.ar    1  LIG1        0.0022
     29 C          10.6098    1.1604    0.0436 C.ar    1  LIG1       -0.0191
     30 H          10.4686   -0.8480   -0.6609 H       1  LIG1        0.0630
     31 C           8.5221    2.3085    0.3879 C.ar    1  LIG1       -0.0113
     32 C           9.9100    2.3060    0.4194 C.ar    1  LIG1        0.1175
     33 H           7.9646    3.1931    0.6743 H       1  LIG1        0.0660
     34 H          11.6906    1.1735    0.0797 H       1  LIG1        0.0654
     35 S           7.6008   -1.3919   -0.9974 S.3     1  LIG1       -0.1420
     36 H           8.6714   -2.0500   -1.4539 H       1  LIG1        0.1071
     37 O          10.6385    3.3882    0.8126 O.3     1  LIG1       -0.5067
     38 H          10.0560    4.1231    1.0295 H       1  LIG1        0.2921
@<TRIPOS>BOND
     1    25    24    1
     2    24    20    1
     3    36    35    1
     4    21    19    1
     5    10     1    1
     6    10    11    1
     7    35    26    1
     8     5     2    1
     9    20    19   ar
    10    20    17   ar
    11    19    16   ar
    12    30    27    1
    13     1     2   ar
    14     1     3   ar
    15     2     4   ar
    16    26    27   ar
    17    26    28   ar
    18    27    29   ar
    19     9     3    1
    20     3     6   ar
    21     4    16    1
    22     4     7   ar
    23    28    17    1
    24    28    31   ar
    25    17    15   ar
    26    16    14   ar
    27    29    34    1
    28    29    32   ar
    29    31    32   ar
    30    31    33    1
    31    32    37    1
    32     6     7   ar
    33     6     8    1
    34     7    12    1
    35    15    14   ar
    36    15    18    1
    37    14    22    1
    38    37    38    1
    39    12    13    1
    40    22    23    1
