@<TRIPOS>MOLECULE
mol_data/opt/m06hf/geoms/mol2/4gf4gf-4gf4gf.out
 50 53 0 0 0
SMALL
GASTEIGER

@<TRIPOS>ATOM
      1 C          -0.1793    0.1818   -0.6624 C.ar    1  LIG1        0.0055
      2 C           1.2143    0.2184   -0.6676 C.ar    1  LIG1       -0.0373
      3 C          -0.8852    1.2049   -0.0370 C.ar    1  LIG1       -0.0451
      4 C           1.9127    1.2385   -0.0258 C.ar    1  LIG1        0.0257
      5 H           1.7710   -0.5585   -1.1781 H       1  LIG1        0.0636
      6 C          -0.2044    2.2523    0.5749 C.ar    1  LIG1       -0.0185
      7 C           1.1878    2.2695    0.5880 C.ar    1  LIG1        0.1246
      8 H          -0.7565    3.0525    1.0544 H       1  LIG1        0.0654
      9 H          -1.9670    1.1818   -0.0277 H       1  LIG1        0.0630
     10 S          -1.0635   -1.1328   -1.4968 S.3     1  LIG1       -0.1426
     11 H          -0.6747   -2.1147   -0.6727 H       1  LIG1        0.1071
     12 O           1.8910    3.2721    1.1784 O.3     1  LIG1       -0.5062
     13 H           1.2960    3.8737    1.6381 H       1  LIG1        0.2922
     14 C           4.1082    0.1640    0.5700 C.ar    1  LIG1        0.0134
     15 C           5.5024    0.1751    0.5361 C.ar    1  LIG1       -0.0367
     16 C           3.4061    1.2302   -0.0009 C.ar    1  LIG1        0.0023
     17 C           6.2116    1.2236   -0.0440 C.ar    1  LIG1        0.0258
     18 H           6.0653   -0.6412    0.9734 H       1  LIG1        0.0636
     19 C           4.1111    2.2931   -0.5639 C.ar    1  LIG1       -0.0107
     20 C           5.4995    2.3001   -0.5853 C.ar    1  LIG1        0.1252
     21 H           3.5558    3.1247   -0.9825 H       1  LIG1        0.0661
     22 S           3.2041   -1.1619    1.3559 S.3     1  LIG1       -0.1420
     23 H           4.2844   -1.7469    1.8802 H       1  LIG1        0.1071
     24 O           6.2100    3.3322   -1.1197 O.3     1  LIG1       -0.5061
     25 H           5.6160    3.9646   -1.5378 H       1  LIG1        0.2922
     26 C           8.4040    0.1464   -0.6711 C.ar    1  LIG1        0.0134
     27 C           9.7984    0.1512   -0.6307 C.ar    1  LIG1       -0.0367
     28 C           7.7046    1.1983   -0.0703 C.ar    1  LIG1        0.0023
     29 C          10.5120    1.1746   -0.0131 C.ar    1  LIG1        0.0258
     30 H          10.3590   -0.6525   -1.0938 H       1  LIG1        0.0636
     31 C           8.4145    2.2386    0.5289 C.ar    1  LIG1       -0.0107
     32 C           9.8025    2.2373    0.5586 C.ar    1  LIG1        0.1252
     33 H           7.8614    3.0601    0.9696 H       1  LIG1        0.0661
     34 S           7.5020   -1.1527   -1.5038 S.3     1  LIG1       -0.1420
     35 H           8.5891   -1.7398   -2.0117 H       1  LIG1        0.1071
     36 O          10.5138    3.2476    1.1317 O.3     1  LIG1       -0.5061
     37 H           9.9174    3.8799    1.5460 H       1  LIG1        0.2922
     38 C          12.6895    0.0522    0.5748 C.ar    1  LIG1        0.0128
     39 C          14.0871    0.0396    0.5380 C.ar    1  LIG1       -0.0445
     40 C          12.0050    1.1370    0.0189 C.ar    1  LIG1        0.0022
     41 C          14.7973    1.0909   -0.0180 C.ar    1  LIG1       -0.0191
     42 H          14.6295   -0.8006    0.9525 H       1  LIG1        0.0630
     43 C          12.7238    2.1972   -0.5381 C.ar    1  LIG1       -0.0113
     44 C          14.1116    2.1795   -0.5540 C.ar    1  LIG1        0.1175
     45 H          12.1784    3.0391   -0.9485 H       1  LIG1        0.0660
     46 H          15.8785    1.0898   -0.0454 H       1  LIG1        0.0654
     47 S          11.7672   -1.2752    1.3424 S.3     1  LIG1       -0.1420
     48 H          12.8354   -1.8434    1.9115 H       1  LIG1        0.1071
     49 O          14.8550    3.1902   -1.0849 O.3     1  LIG1       -0.5067
     50 H          14.2835    3.8897   -1.4178 H       1  LIG1        0.2921
@<TRIPOS>BOND
     1    35    34    1
     2    25    24    1
     3    34    26    1
     4    10    11    1
     5    10     1    1
     6    50    49    1
     7     5     2    1
     8    24    20    1
     9    30    27    1
    10    49    44    1
    11    21    19    1
    12    45    43    1
    13    26    27   ar
    14    26    28   ar
    15     2     1   ar
    16     2     4   ar
    17     1     3   ar
    18    27    29   ar
    19    20    19   ar
    20    20    17   ar
    21    19    16   ar
    22    44    43   ar
    23    44    41   ar
    24    43    40   ar
    25    28    17    1
    26    28    31   ar
    27    46    41    1
    28    17    15   ar
    29     3     9    1
    30     3     6   ar
    31     4    16    1
    32     4     7   ar
    33    41    39   ar
    34    29    40    1
    35    29    32   ar
    36    16    14   ar
    37    40    38   ar
    38    31    32   ar
    39    31    33    1
    40    15    14   ar
    41    15    18    1
    42    39    38   ar
    43    39    42    1
    44    32    36    1
    45    14    22    1
    46    38    47    1
    47     6     7   ar
    48     6     8    1
    49     7    12    1
    50    36    37    1
    51    12    13    1
    52    47    48    1
    53    22    23    1
