@<TRIPOS>MOLECULE
mol_data/opt/m06hf/geoms/mol2/4gf4gf4gf4gf.out
 50 53 0 0 0
SMALL
GASTEIGER

@<TRIPOS>ATOM
      1 C          -0.1682    1.2367    1.2140 C.ar    1  LIG1        0.0055
      2 C           1.2251    1.2387    1.1758 C.ar    1  LIG1       -0.0373
      3 C          -0.8829    1.2850    0.0214 C.ar    1  LIG1       -0.0451
      4 C           1.9153    1.2522   -0.0342 C.ar    1  LIG1        0.0257
      5 H           1.7861    1.2304    2.1028 H       1  LIG1        0.0636
      6 C          -0.2109    1.3317   -1.1954 C.ar    1  LIG1       -0.0185
      7 C           1.1816    1.3129   -1.2269 C.ar    1  LIG1        0.1246
      8 H          -0.7690    1.3747   -2.1235 H       1  LIG1        0.0654
      9 H          -1.9647    1.2871    0.0452 H       1  LIG1        0.0630
     10 S          -1.0357    1.2251    2.7820 S.3     1  LIG1       -0.1426
     11 H          -0.8253   -0.0670    3.0593 H       1  LIG1        0.1071
     12 O           1.8769    1.3580   -2.3932 O.3     1  LIG1       -0.5062
     13 H           1.2770    1.3346   -3.1461 H       1  LIG1        0.2922
     14 C           4.1023    0.1590    0.5625 C.ar    1  LIG1        0.0134
     15 C           5.4967    0.1873    0.5763 C.ar    1  LIG1       -0.0367
     16 C           3.4078    1.2065   -0.0503 C.ar    1  LIG1        0.0023
     17 C           6.2163    1.2016   -0.0493 C.ar    1  LIG1        0.0258
     18 H           6.0486   -0.5961    1.0825 H       1  LIG1        0.0636
     19 C           4.1225    2.2370   -0.6602 C.ar    1  LIG1       -0.0107
     20 C           5.5109    2.2384   -0.6719 C.ar    1  LIG1        0.1252
     21 H           3.5744    3.0387   -1.1416 H       1  LIG1        0.0661
     22 S           3.1950   -1.1995    1.2858 S.3     1  LIG1       -0.1420
     23 H           4.2447   -2.0254    1.3478 H       1  LIG1        0.1071
     24 O           6.2254    3.2365   -1.2629 O.3     1  LIG1       -0.5061
     25 H           5.6404    3.8066   -1.7726 H       1  LIG1        0.2922
     26 C           8.4200    0.0620   -0.5031 C.ar    1  LIG1        0.0134
     27 C           9.8125    0.0660   -0.4194 C.ar    1  LIG1       -0.0367
     28 C           7.7089    1.1760   -0.0443 C.ar    1  LIG1        0.0023
     29 C          10.5161    1.1660    0.0627 C.ar    1  LIG1        0.0258
     30 H          10.3776   -0.8020   -0.7388 H       1  LIG1        0.0636
     31 C           8.4086    2.2746    0.4570 C.ar    1  LIG1       -0.0107
     32 C           9.7960    2.2814    0.5055 C.ar    1  LIG1        0.1252
     33 H           7.8487    3.1384    0.7971 H       1  LIG1        0.0661
     34 S           7.5452   -1.3276   -1.2104 S.3     1  LIG1       -0.1420
     35 H           8.6266   -1.8673   -1.7833 H       1  LIG1        0.1071
     36 O          10.4967    3.3436    0.9909 O.3     1  LIG1       -0.5061
     37 H           9.9105    4.0972    1.1168 H       1  LIG1        0.2922
     38 C          12.7552    0.9300   -1.0637 C.ar    1  LIG1        0.0128
     39 C          14.1486    0.8680   -0.9748 C.ar    1  LIG1       -0.0445
     40 C          12.0091    1.1454    0.0990 C.ar    1  LIG1        0.0022
     41 C          14.7952    1.0380    0.2387 C.ar    1  LIG1       -0.0191
     42 H          14.7386    0.6884   -1.8648 H       1  LIG1        0.0630
     43 C          12.6635    1.3227    1.3194 C.ar    1  LIG1       -0.0113
     44 C          14.0487    1.2749    1.3916 C.ar    1  LIG1        0.1175
     45 H          12.0705    1.5096    2.2076 H       1  LIG1        0.0660
     46 H          15.8732    0.9959    0.3156 H       1  LIG1        0.0654
     47 S          11.9079    0.7725   -2.6326 S.3     1  LIG1       -0.1420
     48 H          13.0136    0.8729   -3.3768 H       1  LIG1        0.1071
     49 O          14.7321    1.4440    2.5581 O.3     1  LIG1       -0.5067
     50 H          14.1231    1.6079    3.2858 H       1  LIG1        0.2921
@<TRIPOS>BOND
     1    48    47    1
     2    13    12    1
     3    47    38    1
     4    12     7    1
     5     8     6    1
     6    42    39    1
     7    35    34    1
     8    25    24    1
     9    24    20    1
    10     7     6   ar
    11     7     4   ar
    12    34    26    1
    13     6     3   ar
    14    21    19    1
    15    38    39   ar
    16    38    40   ar
    17    39    41   ar
    18    30    27    1
    19    20    19   ar
    20    20    17   ar
    21    19    16   ar
    22    26    27   ar
    23    26    28   ar
    24    27    29   ar
    25    16     4    1
    26    16    14   ar
    27    17    28    1
    28    17    15   ar
    29    28    31   ar
    30     4     2   ar
    31     3     9    1
    32     3     1   ar
    33    29    40    1
    34    29    32   ar
    35    40    43   ar
    36    41    46    1
    37    41    44   ar
    38    31    32   ar
    39    31    33    1
    40    32    36    1
    41    14    15   ar
    42    14    22    1
    43    15    18    1
    44    36    37    1
    45     2     1   ar
    46     2     5    1
    47     1    10    1
    48    22    23    1
    49    43    44   ar
    50    43    45    1
    51    44    49    1
    52    49    50    1
    53    10    11    1
