@<TRIPOS>MOLECULE
mol_data/opt/m06hf/geoms/mol2/4gg.out
 14 14 0 0 0
SMALL
GASTEIGER

@<TRIPOS>ATOM
      1 C           0.2307   -0.0253   -0.1812 C.ar    1  LIG1        0.0048
      2 C           1.6201    0.0569   -0.2248 C.ar    1  LIG1       -0.0475
      3 C          -0.5292    1.1414   -0.1095 C.ar    1  LIG1       -0.0475
      4 C           2.2499    1.2971   -0.1654 C.ar    1  LIG1       -0.0475
      5 H           2.2065   -0.8498   -0.2931 H       1  LIG1        0.0629
      6 C           0.0960    2.3825   -0.0701 C.ar    1  LIG1       -0.0475
      7 C           1.4890    2.4622   -0.0867 C.ar    1  LIG1        0.0048
      8 H          -0.5000    3.2855   -0.0383 H       1  LIG1        0.0629
      9 H           3.3304    1.3585   -0.1693 H       1  LIG1        0.0629
     10 H          -1.6091    1.0747   -0.0978 H       1  LIG1        0.0629
     11 S          -0.5813   -1.6235   -0.2776 S.3     1  LIG1       -0.1426
     12 H          -0.6593   -1.8271    1.0444 H       1  LIG1        0.1071
     13 S           2.3434    4.0301   -0.0693 S.3     1  LIG1       -0.1426
     14 H           1.4790    4.6511    0.7376 H       1  LIG1        0.1071
@<TRIPOS>BOND
     1     5     2    1
     2    11     1    1
     3    11    12    1
     4     2     1   ar
     5     2     4   ar
     6     1     3   ar
     7     9     4    1
     8     4     7   ar
     9     3    10    1
    10     3     6   ar
    11     7     6   ar
    12     7    13    1
    13     6     8    1
    14    13    14    1
