@<TRIPOS>MOLECULE
mol_data/opt/m06hf/geoms/mol2/4gg4gg4gg-.out
 38 40 0 0 0
SMALL
GASTEIGER

@<TRIPOS>ATOM
      1 C          -0.1011    0.1774    0.7294 C.ar    1  LIG1        0.0054
      2 C           1.2915    0.1782    0.7318 C.ar    1  LIG1       -0.0398
      3 C          -0.7857    1.1908    0.0623 C.ar    1  LIG1       -0.0475
      4 C           1.9992    1.1691    0.0539 C.ar    1  LIG1       -0.0026
      5 H           1.8365   -0.5951    1.2590 H       1  LIG1        0.0635
      6 C          -0.0878    2.1918   -0.6043 C.ar    1  LIG1       -0.0469
      7 C           1.3069    2.1840   -0.6201 C.ar    1  LIG1        0.0125
      8 H          -0.6344    2.9771   -1.1105 H       1  LIG1        0.0629
      9 H          -1.8677    1.1959    0.0687 H       1  LIG1        0.0629
     10 S          -1.0143   -1.0735    1.6327 S.3     1  LIG1       -0.1426
     11 H          -0.8821   -2.0457    0.7235 H       1  LIG1        0.1071
     12 S           2.2700    3.4274   -1.4479 S.3     1  LIG1       -0.1420
     13 H           1.2382    3.9784   -2.0921 H       1  LIG1        0.1071
     14 C           4.1807    0.4002   -0.9217 C.ar    1  LIG1        0.0131
     15 C           5.5732    0.4172   -0.9271 C.ar    1  LIG1       -0.0392
     16 C           3.4960    1.1496    0.0413 C.ar    1  LIG1       -0.0026
     17 C           6.2825    1.1672    0.0087 C.ar    1  LIG1       -0.0026
     18 H           6.1319   -0.1560   -1.6569 H       1  LIG1        0.0635
     19 C           4.2046    1.8954    0.9799 C.ar    1  LIG1       -0.0392
     20 C           5.5981    1.9078    0.9779 C.ar    1  LIG1        0.0131
     21 H           3.6460    2.4715    1.7075 H       1  LIG1        0.0635
     22 S           3.2206   -0.5429   -2.0860 S.3     1  LIG1       -0.1420
     23 H           4.2644   -0.9062   -2.8386 H       1  LIG1        0.1071
     24 S           6.5559    2.8380    2.1559 S.3     1  LIG1       -0.1420
     25 H           5.5091    3.1960    2.9071 H       1  LIG1        0.1071
     26 C           8.5100    0.1056    0.5010 C.ar    1  LIG1        0.0125
     27 C           9.9038    0.1345    0.4513 C.ar    1  LIG1       -0.0469
     28 C           7.7788    1.1755   -0.0299 C.ar    1  LIG1       -0.0026
     29 C          10.5633    1.2241   -0.1068 C.ar    1  LIG1       -0.0475
     30 H          10.4808   -0.6881    0.8534 H       1  LIG1        0.0629
     31 C           8.4485    2.2563   -0.6014 C.ar    1  LIG1       -0.0398
     32 C           9.8400    2.2931   -0.6294 C.ar    1  LIG1        0.0054
     33 H           7.8731    3.0720   -1.0219 H       1  LIG1        0.0635
     34 H          11.6449    1.2477   -0.1335 H       1  LIG1        0.0629
     35 S           7.5995   -1.2454    1.2132 S.3     1  LIG1       -0.1420
     36 H           8.6772   -1.9314    1.6024 H       1  LIG1        0.1071
     37 S          10.7027    3.6753   -1.3768 S.3     1  LIG1       -0.1426
     38 H          10.4770    4.5405   -0.3800 H       1  LIG1        0.1071
@<TRIPOS>BOND
     1    23    22    1
     2    13    12    1
     3    22    14    1
     4    18    15    1
     5    12     7    1
     6    37    32    1
     7    37    38    1
     8     8     6    1
     9    33    31    1
    10    15    14   ar
    11    15    17   ar
    12    14    16   ar
    13    32    31   ar
    14    32    29   ar
    15     7     6   ar
    16     7     4   ar
    17     6     3   ar
    18    31    28   ar
    19    34    29    1
    20    29    27   ar
    21    28    17    1
    22    28    26   ar
    23    17    20   ar
    24    16     4    1
    25    16    19   ar
    26     4     2   ar
    27     3     9    1
    28     3     1   ar
    29    27    26   ar
    30    27    30    1
    31    26    35    1
    32    11    10    1
    33     1     2   ar
    34     1    10    1
    35     2     5    1
    36    20    19   ar
    37    20    24    1
    38    19    21    1
    39    35    36    1
    40    24    25    1
