@<TRIPOS>MOLECULE
mol_data/opt/m06hf/geoms/mol2/4gg4gg4gg-4gg.out
 50 53 0 0 0
SMALL
GASTEIGER

@<TRIPOS>ATOM
      1 C          -0.1831    0.2648    0.8592 C.ar    1  LIG1        0.0054
      2 C           1.2091    0.2884    0.8588 C.ar    1  LIG1       -0.0398
      3 C          -0.8823    1.1632    0.0568 C.ar    1  LIG1       -0.0475
      4 C           1.9021    1.1841    0.0464 C.ar    1  LIG1       -0.0026
      5 H           1.7672   -0.3927    1.4896 H       1  LIG1        0.0635
      6 C          -0.1994    2.0722   -0.7439 C.ar    1  LIG1       -0.0469
      7 C           1.1954    2.0841   -0.7613 C.ar    1  LIG1        0.0125
      8 H          -0.7589    2.7659   -1.3581 H       1  LIG1        0.0629
      9 H          -1.9644    1.1484    0.0590 H       1  LIG1        0.0629
     10 S          -1.0823   -0.8599    1.9246 S.3     1  LIG1       -0.1426
     11 H          -0.8087   -1.9719    1.2310 H       1  LIG1        0.1071
     12 S           2.1392    3.2057   -1.7667 S.3     1  LIG1       -0.1420
     13 H           1.0778    3.7413   -2.3797 H       1  LIG1        0.1071
     14 C           4.0972    0.2491   -0.7349 C.ar    1  LIG1        0.0131
     15 C           5.4899    0.2639   -0.7170 C.ar    1  LIG1       -0.0392
     16 C           3.3991    1.1790    0.0433 C.ar    1  LIG1       -0.0026
     17 C           6.1841    1.1900    0.0587 C.ar    1  LIG1       -0.0026
     18 H           6.0612   -0.4477   -1.3009 H       1  LIG1        0.0635
     19 C           4.0937    2.1057    0.8177 C.ar    1  LIG1       -0.0392
     20 C           5.4867    2.1201    0.8368 C.ar    1  LIG1        0.0131
     21 H           3.5227    2.8160    1.4033 H       1  LIG1        0.0635
     22 S           3.1530   -0.9039   -1.7054 S.3     1  LIG1       -0.1420
     23 H           4.2156   -1.4674   -2.2901 H       1  LIG1        0.1071
     24 S           6.4303    3.2693    1.8124 S.3     1  LIG1       -0.1420
     25 H           5.3673    3.8246    2.4045 H       1  LIG1        0.1071
     26 C           8.3712    0.2379    0.8419 C.ar    1  LIG1        0.0131
     27 C           9.7641    0.2383    0.8191 C.ar    1  LIG1       -0.0392
     28 C           7.6810    1.1717    0.0615 C.ar    1  LIG1       -0.0026
     29 C          10.4662    1.1570    0.0423 C.ar    1  LIG1       -0.0026
     30 H          10.3292   -0.4776    1.4038 H       1  LIG1        0.0635
     31 C           8.3823    2.0903   -0.7167 C.ar    1  LIG1       -0.0392
     32 C           9.7753    2.0942   -0.7340 C.ar    1  LIG1        0.0131
     33 H           7.8169    2.8018   -1.3063 H       1  LIG1        0.0635
     34 S           7.4199   -0.9008    1.8227 S.3     1  LIG1       -0.1420
     35 H           8.4792   -1.4549    2.4223 H       1  LIG1        0.1071
     36 S          10.7303    3.2296   -1.7142 S.3     1  LIG1       -0.1420
     37 H           9.6784    3.9083   -2.1833 H       1  LIG1        0.1071
     38 C          12.6523    0.2130   -0.7642 C.ar    1  LIG1        0.0125
     39 C          14.0474    0.2014   -0.7508 C.ar    1  LIG1       -0.0469
     40 C          11.9631    1.1304    0.0389 C.ar    1  LIG1       -0.0026
     41 C          14.7477    1.1055    0.0402 C.ar    1  LIG1       -0.0475
     42 H          14.5931   -0.5066   -1.3610 H       1  LIG1        0.0629
     43 C          12.6737    2.0208    0.8423 C.ar    1  LIG1       -0.0398
     44 C          14.0658    2.0217    0.8376 C.ar    1  LIG1        0.0054
     45 H          12.1288    2.7161    1.4691 H       1  LIG1        0.0635
     46 H          15.8299    1.1026    0.0385 H       1  LIG1        0.0629
     47 S          11.6879   -0.9012   -1.7584 S.3     1  LIG1       -0.1420
     48 H          12.7384   -1.4496   -2.3785 H       1  LIG1        0.1071
     49 S          14.9870    3.1416    1.8886 S.3     1  LIG1       -0.1426
     50 H          14.7107    4.2543    1.1963 H       1  LIG1        0.1071
@<TRIPOS>BOND
     1    13    12    1
     2    48    47    1
     3    23    22    1
     4    37    36    1
     5    12     7    1
     6    47    38    1
     7    36    32    1
     8    22    14    1
     9    42    39    1
    10     8     6    1
    11    33    31    1
    12    18    15    1
    13    38    39   ar
    14    38    40   ar
    15     7     6   ar
    16     7     4   ar
    17    39    41   ar
    18     6     3   ar
    19    14    15   ar
    20    14    16   ar
    21    32    31   ar
    22    32    29   ar
    23    15    17   ar
    24    31    28   ar
    25    46    41    1
    26    40    29    1
    27    40    43   ar
    28    41    44   ar
    29    29    27   ar
    30    16     4    1
    31    16    19   ar
    32     4     2   ar
    33     3     9    1
    34     3     1   ar
    35    17    28    1
    36    17    20   ar
    37    28    26   ar
    38    19    20   ar
    39    19    21    1
    40    27    26   ar
    41    27    30    1
    42    20    24    1
    43    44    43   ar
    44    44    49    1
    45    26    34    1
    46    43    45    1
    47     2     1   ar
    48     2     5    1
    49     1    10    1
    50    50    49    1
    51    11    10    1
    52    24    25    1
    53    34    35    1
