@<TRIPOS>MOLECULE
mol_data/opt/m06hf/geoms/mol2/4gg4gg-.out
 26 27 0 0 0
SMALL
GASTEIGER

@<TRIPOS>ATOM
      1 C           0.0301    0.2283   -0.9120 C.ar    1  LIG1        0.0054
      2 C           1.4215    0.2687   -0.9062 C.ar    1  LIG1       -0.0398
      3 C          -0.6848    1.1324   -0.1292 C.ar    1  LIG1       -0.0475
      4 C           2.1007    1.1894   -0.1096 C.ar    1  LIG1       -0.0026
      5 H           1.9886   -0.4207   -1.5193 H       1  LIG1        0.0635
      6 C          -0.0172    2.0589    0.6635 C.ar    1  LIG1       -0.0469
      7 C           1.3776    2.0891    0.6839 C.ar    1  LIG1        0.0125
      8 H          -0.5873    2.7557    1.2643 H       1  LIG1        0.0629
      9 H          -1.7666    1.1096   -0.1436 H       1  LIG1        0.0629
     10 S          -0.8382   -0.9432   -1.9566 S.3     1  LIG1       -0.1426
     11 H          -0.8041   -1.9617   -1.0875 H       1  LIG1        0.1071
     12 S           2.3052    3.2392    1.6725 S.3     1  LIG1       -0.1420
     13 H           1.2426    3.7729    2.2814 H       1  LIG1        0.1071
     14 C           4.3079    0.3235    0.7217 C.ar    1  LIG1        0.0125
     15 C           5.7024    0.3557    0.7243 C.ar    1  LIG1       -0.0469
     16 C           3.5973    1.2110   -0.0974 C.ar    1  LIG1       -0.0026
     17 C           6.3824    1.2729   -0.0695 C.ar    1  LIG1       -0.0475
     18 H           6.2633   -0.3305    1.3456 H       1  LIG1        0.0629
     19 C           4.2887    2.1173   -0.8993 C.ar    1  LIG1       -0.0398
     20 C           5.6801    2.1608   -0.8811 C.ar    1  LIG1        0.0054
     21 H           3.7305    2.7922   -1.5364 H       1  LIG1        0.0635
     22 H           7.4642    1.3014   -0.0610 H       1  LIG1        0.0629
     23 S           3.3640   -0.8133    1.7099 S.3     1  LIG1       -0.1420
     24 H           4.4151   -1.3342    2.3494 H       1  LIG1        0.1071
     25 S           6.5703    3.3076   -1.9337 S.3     1  LIG1       -0.1426
     26 H           6.3763    4.3881   -1.1695 H       1  LIG1        0.1071
@<TRIPOS>BOND
     1    10    11    1
     2    10     1    1
     3    25    26    1
     4    25    20    1
     5    21    19    1
     6     5     2    1
     7     1     2   ar
     8     1     3   ar
     9     2     4   ar
    10    19    20   ar
    11    19    16   ar
    12    20    17   ar
    13     9     3    1
    14     3     6   ar
    15     4    16    1
    16     4     7   ar
    17    16    14   ar
    18    17    22    1
    19    17    15   ar
    20     6     7   ar
    21     6     8    1
    22     7    12    1
    23    14    15   ar
    24    14    23    1
    25    15    18    1
    26    12    13    1
    27    23    24    1
