@<TRIPOS>MOLECULE
mol_data/opt/m06hf/geoms/mol2/4gg4gg4gg.out
 38 40 0 0 0
SMALL
GASTEIGER

@<TRIPOS>ATOM
      1 C          -0.1007    1.0509    1.2077 C.ar    1  LIG1        0.0054
      2 C           1.2922    1.0573    1.2053 C.ar    1  LIG1       -0.0398
      3 C          -0.7840    1.2204    0.0054 C.ar    1  LIG1       -0.0475
      4 C           1.9980    1.2089    0.0138 C.ar    1  LIG1       -0.0026
      5 H           1.8471    0.9425    2.1286 H       1  LIG1        0.0635
      6 C          -0.0853    1.3993   -1.1831 C.ar    1  LIG1       -0.0469
      7 C           1.3091    1.3864   -1.1923 C.ar    1  LIG1        0.0125
      8 H          -0.6347    1.5328   -2.1060 H       1  LIG1        0.0629
      9 H          -1.8664    1.2034   -0.0044 H       1  LIG1        0.0629
     10 S          -1.0460    0.8895    2.7130 S.3     1  LIG1       -0.1426
     11 H          -0.2312    0.0114    3.3064 H       1  LIG1        0.1071
     12 S           2.2722    1.5799   -2.6755 S.3     1  LIG1       -0.1420
     13 H           1.2186    1.6498   -3.4958 H       1  LIG1        0.1071
     14 C           4.1779   -0.0378    0.0303 C.ar    1  LIG1        0.0131
     15 C           5.5710   -0.0319    0.0369 C.ar    1  LIG1       -0.0392
     16 C           3.4948    1.1830    0.0285 C.ar    1  LIG1       -0.0026
     17 C           6.2805    1.1672    0.0327 C.ar    1  LIG1       -0.0026
     18 H           6.1303   -0.9595    0.0371 H       1  LIG1        0.0635
     19 C           4.2043    2.3821    0.0325 C.ar    1  LIG1       -0.0392
     20 C           5.5974    2.3879    0.0300 C.ar    1  LIG1        0.0131
     21 H           3.6450    3.3097    0.0292 H       1  LIG1        0.0635
     22 S           3.2188   -1.5358    0.0318 S.3     1  LIG1       -0.1420
     23 H           4.2669   -2.3509   -0.1275 H       1  LIG1        0.1071
     24 S           6.5565    3.8859    0.0314 S.3     1  LIG1       -0.1420
     25 H           5.5088    4.7007   -0.1325 H       1  LIG1        0.1071
     26 C           8.4698    0.9613   -1.1813 C.ar    1  LIG1        0.0125
     27 C           9.8642    0.9484   -1.1679 C.ar    1  LIG1       -0.0469
     28 C           7.7773    1.1412    0.0225 C.ar    1  LIG1       -0.0026
     29 C          10.5593    1.1297    0.0223 C.ar    1  LIG1       -0.0475
     30 H          10.4164    0.8130   -2.0888 H       1  LIG1        0.0629
     31 C           8.4795    1.2953    1.2158 C.ar    1  LIG1       -0.0398
     32 C           9.8724    1.3017    1.2223 C.ar    1  LIG1        0.0054
     33 H           7.9219    1.4119    2.1371 H       1  LIG1        0.0635
     34 H          11.6417    1.1466    0.0157 H       1  LIG1        0.0629
     35 S           7.5112    0.7648   -2.6669 S.3     1  LIG1       -0.1420
     36 H           8.5672    0.6938   -3.4840 H       1  LIG1        0.1071
     37 S          10.8132    1.4661    2.7300 S.3     1  LIG1       -0.1426
     38 H           9.9970    2.3459    3.3189 H       1  LIG1        0.1071
@<TRIPOS>BOND
     1    13    12    1
     2    36    35    1
     3    12     7    1
     4    35    26    1
     5     8     6    1
     6    30    27    1
     7     7     6   ar
     8     7     4   ar
     9     6     3   ar
    10    26    27   ar
    11    26    28   ar
    12    27    29   ar
    13    25    24    1
    14    23    22    1
    15     9     3    1
    16     3     1   ar
    17     4    16    1
    18     4     2   ar
    19    34    29    1
    20    29    32   ar
    21    28    17    1
    22    28    31   ar
    23    16    14   ar
    24    16    19   ar
    25    21    19    1
    26    20    24    1
    27    20    19   ar
    28    20    17   ar
    29    14    22    1
    30    14    15   ar
    31    17    15   ar
    32    15    18    1
    33     2     1   ar
    34     2     5    1
    35     1    10    1
    36    31    32   ar
    37    31    33    1
    38    32    37    1
    39    10    11    1
    40    37    38    1
