@<TRIPOS>MOLECULE
mol_data/opt/m06hf/geoms/mol2/4gg4gg-4gg4gg.out
 50 53 0 0 0
SMALL
GASTEIGER

@<TRIPOS>ATOM
      1 C          -0.2019    0.2881   -0.8193 C.ar    1  LIG1        0.0054
      2 C           1.1905    0.2915   -0.8260 C.ar    1  LIG1       -0.0398
      3 C          -0.8842    1.2139   -0.0337 C.ar    1  LIG1       -0.0475
      4 C           1.9004    1.1942   -0.0361 C.ar    1  LIG1       -0.0026
      5 H           1.7356   -0.4106   -1.4450 H       1  LIG1        0.0635
      6 C          -0.1843    2.1302    0.7440 C.ar    1  LIG1       -0.0469
      7 C           1.2105    2.1215    0.7554 C.ar    1  LIG1        0.0125
      8 H          -0.7305    2.8454    1.3453 H       1  LIG1        0.0629
      9 H          -1.9664    1.2151   -0.0305 H       1  LIG1        0.0629
     10 S          -1.1228   -0.8456   -1.8554 S.3     1  LIG1       -0.1426
     11 H          -0.8476   -1.9493   -1.1487 H       1  LIG1        0.1071
     12 S           2.1747    3.2499    1.7335 S.3     1  LIG1       -0.1420
     13 H           1.1238    3.8101    2.3423 H       1  LIG1        0.1071
     14 C           4.0885    0.2504    0.7560 C.ar    1  LIG1        0.0131
     15 C           5.4814    0.2524    0.7356 C.ar    1  LIG1       -0.0392
     16 C           3.3972    1.1703   -0.0400 C.ar    1  LIG1       -0.0026
     17 C           6.1821    1.1566   -0.0597 C.ar    1  LIG1       -0.0026
     18 H           6.0475   -0.4513    1.3340 H       1  LIG1        0.0635
     19 C           4.0984    2.0733   -0.8361 C.ar    1  LIG1       -0.0392
     20 C           5.4914    2.0752   -0.8575 C.ar    1  LIG1        0.0131
     21 H           3.5327    2.7766   -1.4351 H       1  LIG1        0.0635
     22 S           3.1357   -0.8720    1.7534 S.3     1  LIG1       -0.1420
     23 H           4.1940   -1.4303    2.3506 H       1  LIG1        0.1071
     24 S           6.4430    3.1968   -1.8569 S.3     1  LIG1       -0.1420
     25 H           5.3839    3.7432   -2.4640 H       1  LIG1        0.1071
     26 C           8.3733    0.1977   -0.8301 C.ar    1  LIG1        0.0131
     27 C           9.7664    0.2078   -0.8112 C.ar    1  LIG1       -0.0392
     28 C           7.6790    1.1356   -0.0585 C.ar    1  LIG1       -0.0026
     29 C          10.4641    1.1368   -0.0425 C.ar    1  LIG1       -0.0026
     30 H          10.3348   -0.5083   -1.3924 H       1  LIG1        0.0635
     31 C           8.3762    2.0644    0.7112 C.ar    1  LIG1       -0.0392
     32 C           9.7690    2.0738    0.7300 C.ar    1  LIG1        0.0131
     33 H           7.8073    2.7818    1.2901 H       1  LIG1        0.0635
     34 S           7.4259   -0.9560   -1.7964 S.3     1  LIG1       -0.1420
     35 H           8.4869   -1.5184   -2.3851 H       1  LIG1        0.1071
     36 S          10.7164    3.2274    1.6967 S.3     1  LIG1       -0.1420
     37 H           9.6551    3.7982    2.2764 H       1  LIG1        0.1071
     38 C          12.6638    0.2154    0.7547 C.ar    1  LIG1        0.0125
     39 C          14.0589    0.2228    0.7399 C.ar    1  LIG1       -0.0469
     40 C          11.9610    1.1264   -0.0437 C.ar    1  LIG1       -0.0026
     41 C          14.7461    1.1401   -0.0473 C.ar    1  LIG1       -0.0475
     42 H          14.6147   -0.4813    1.3454 H       1  LIG1        0.0629
     43 C          12.6589    2.0334   -0.8399 C.ar    1  LIG1       -0.0398
     44 C          14.0508    2.0539   -0.8358 C.ar    1  LIG1        0.0054
     45 H          12.1051    2.7279   -1.4597 H       1  LIG1        0.0635
     46 H          15.8283    1.1497   -0.0497 H       1  LIG1        0.0629
     47 S          11.7161   -0.9133    1.7489 S.3     1  LIG1       -0.1420
     48 H          12.7755   -1.4542    2.3607 H       1  LIG1        0.1071
     49 S          14.9492    3.2085   -1.8715 S.3     1  LIG1       -0.1426
     50 H          14.7761    4.2739   -1.0790 H       1  LIG1        0.1071
@<TRIPOS>BOND
     1    25    24    1
     2    35    34    1
     3    49    50    1
     4    49    44    1
     5    24    20    1
     6    10    11    1
     7    10     1    1
     8    34    26    1
     9    45    43    1
    10     5     2    1
    11    21    19    1
    12    30    27    1
    13    20    19   ar
    14    20    17   ar
    15    43    44   ar
    16    43    40   ar
    17    19    16   ar
    18    44    41   ar
    19    26    27   ar
    20    26    28   ar
    21     2     1   ar
    22     2     4   ar
    23     1     3   ar
    24    27    29   ar
    25    17    28    1
    26    17    15   ar
    27    28    31   ar
    28    46    41    1
    29    41    39   ar
    30    40    29    1
    31    40    38   ar
    32    29    32   ar
    33    16     4    1
    34    16    14   ar
    35     4     7   ar
    36     3     9    1
    37     3     6   ar
    38    31    32   ar
    39    31    33    1
    40    32    36    1
    41    15    14   ar
    42    15    18    1
    43    39    38   ar
    44    39    42    1
    45     6     7   ar
    46     6     8    1
    47    38    47    1
    48     7    12    1
    49    14    22    1
    50    36    37    1
    51    12    13    1
    52    47    48    1
    53    22    23    1
