@<TRIPOS>MOLECULE
mol_data/opt/m06hf/geoms/mol2/4gg4gg-4gg-.out
 38 40 0 0 0
SMALL
GASTEIGER

@<TRIPOS>ATOM
      1 C          -0.0904    0.0771   -0.5846 C.ar    1  LIG1        0.0054
      2 C           1.3017    0.0980   -0.5834 C.ar    1  LIG1       -0.0398
      3 C          -0.7919    1.1770   -0.0972 C.ar    1  LIG1       -0.0475
      4 C           1.9939    1.1913   -0.0652 C.ar    1  LIG1       -0.0026
      5 H           1.8615   -0.7413   -0.9778 H       1  LIG1        0.0635
      6 C          -0.1092    2.2837    0.3960 C.ar    1  LIG1       -0.0469
      7 C           1.2851    2.2931    0.4300 C.ar    1  LIG1        0.0125
      8 H          -0.6683    3.1346    0.7631 H       1  LIG1        0.0629
      9 H          -1.8739    1.1642   -0.0985 H       1  LIG1        0.0629
     10 S          -0.9881   -1.3243   -1.2475 S.3     1  LIG1       -0.1426
     11 H          -0.5747   -2.2020   -0.3271 H       1  LIG1        0.1071
     12 S           2.2218    3.6638    1.0700 S.3     1  LIG1       -0.1420
     13 H           1.1788    4.2743    1.6391 H       1  LIG1        0.1071
     14 C           4.1645    0.4355    0.9430 C.ar    1  LIG1        0.0131
     15 C           5.5575    0.4387    0.9531 C.ar    1  LIG1       -0.0392
     16 C           3.4901    1.1764   -0.0336 C.ar    1  LIG1       -0.0026
     17 C           6.2768    1.1724    0.0128 C.ar    1  LIG1       -0.0026
     18 H           6.1084   -0.1290    1.6932 H       1  LIG1        0.0635
     19 C           4.2098    1.9096   -0.9746 C.ar    1  LIG1       -0.0392
     20 C           5.6028    1.9177   -0.9608 C.ar    1  LIG1        0.0131
     21 H           3.6595    2.4761   -1.7162 H       1  LIG1        0.0635
     22 S           3.1924   -0.4711    2.1272 S.3     1  LIG1       -0.1420
     23 H           4.2372   -0.9485    2.8102 H       1  LIG1        0.1071
     24 S           6.5787    2.8419   -2.1258 S.3     1  LIG1       -0.1420
     25 H           5.5380    3.3257   -2.8105 H       1  LIG1        0.1071
     26 C           8.4844    0.1291   -0.5842 C.ar    1  LIG1        0.0125
     27 C           9.8786    0.1322   -0.5429 C.ar    1  LIG1       -0.0469
     28 C           7.7733    1.1576    0.0477 C.ar    1  LIG1       -0.0026
     29 C          10.5581    1.1572    0.1061 C.ar    1  LIG1       -0.0475
     30 H          10.4397   -0.6622   -1.0181 H       1  LIG1        0.0629
     31 C           8.4625    2.1693    0.7140 C.ar    1  LIG1       -0.0398
     32 C           9.8547    2.1809    0.7368 C.ar    1  LIG1        0.0054
     33 H           7.9011    2.9497    1.2131 H       1  LIG1        0.0635
     34 H          11.6400    1.1624    0.1272 H       1  LIG1        0.0629
     35 S           7.5460   -1.1459   -1.3939 S.3     1  LIG1       -0.1420
     36 H           8.5939   -1.7124   -1.9976 H       1  LIG1        0.1071
     37 S          10.7465    3.4502    1.6330 S.3     1  LIG1       -0.1426
     38 H          10.4913    4.4514    0.7798 H       1  LIG1        0.1071
@<TRIPOS>BOND
     1    25    24    1
     2    24    20    1
     3    36    35    1
     4    21    19    1
     5    35    26    1
     6    10     1    1
     7    10    11    1
     8    30    27    1
     9     5     2    1
    10    19    20   ar
    11    19    16   ar
    12    20    17   ar
    13     1     2   ar
    14     1     3   ar
    15    26    27   ar
    16    26    28   ar
    17     2     4   ar
    18    27    29   ar
    19     9     3    1
    20     3     6   ar
    21     4    16    1
    22     4     7   ar
    23    16    14   ar
    24    17    28    1
    25    17    15   ar
    26    28    31   ar
    27    29    34    1
    28    29    32   ar
    29     6     7   ar
    30     6     8    1
    31     7    12    1
    32    31    32   ar
    33    31    33    1
    34    32    37    1
    35    38    37    1
    36    14    15   ar
    37    14    22    1
    38    15    18    1
    39    12    13    1
    40    22    23    1
