@<TRIPOS>MOLECULE
mol_data/opt/m06hf/geoms/mol2/4gg4gg-4gg-4gg-.out
 50 53 0 0 0
SMALL
GASTEIGER

@<TRIPOS>ATOM
      1 C          -0.2014   -0.0271   -0.1389 C.ar    1  LIG1        0.0054
      2 C           1.1907   -0.0261   -0.1473 C.ar    1  LIG1       -0.0398
      3 C          -0.8866    1.1839   -0.0718 C.ar    1  LIG1       -0.0475
      4 C           1.8990    1.1717   -0.0622 C.ar    1  LIG1       -0.0026
      5 H           1.7358   -0.9595   -0.2162 H       1  LIG1        0.0635
      6 C          -0.1890    2.3844   -0.0019 C.ar    1  LIG1       -0.0469
      7 C           1.2062    2.3864    0.0141 C.ar    1  LIG1        0.0125
      8 H          -0.7357    3.3173    0.0446 H       1  LIG1        0.0629
      9 H          -1.9688    1.1839   -0.0739 H       1  LIG1        0.0629
     10 S          -1.1136   -1.5631   -0.2795 S.3     1  LIG1       -0.1426
     11 H          -0.9508   -1.9479    0.9925 H       1  LIG1        0.1071
     12 S           2.1637    3.8811    0.1241 S.3     1  LIG1       -0.1420
     13 H           1.1175    4.6785    0.3648 H       1  LIG1        0.1071
     14 C           4.0832    0.8774    1.1399 C.ar    1  LIG1        0.0131
     15 C           5.4762    0.8688    1.1278 C.ar    1  LIG1       -0.0392
     16 C           3.3960    1.1526   -0.0473 C.ar    1  LIG1       -0.0026
     17 C           6.1815    1.1314   -0.0447 C.ar    1  LIG1       -0.0026
     18 H           6.0372    0.6547    2.0295 H       1  LIG1        0.0635
     19 C           4.1019    1.4152   -1.2198 C.ar    1  LIG1       -0.0392
     20 C           5.4951    1.4047   -1.2332 C.ar    1  LIG1        0.0131
     21 H           3.5406    1.6302   -2.1211 H       1  LIG1        0.0635
     22 S           3.1271    0.5582    2.6049 S.3     1  LIG1       -0.1420
     23 H           4.1819    0.4762    3.4209 H       1  LIG1        0.1071
     24 S           6.4528    1.7189   -2.6983 S.3     1  LIG1       -0.1420
     25 H           5.4022    1.7615   -3.5232 H       1  LIG1        0.1071
     26 C           8.3724   -0.1010   -0.0358 C.ar    1  LIG1        0.0131
     27 C           9.7647   -0.0827   -0.0010 C.ar    1  LIG1       -0.0392
     28 C           7.6783    1.1138   -0.0226 C.ar    1  LIG1       -0.0026
     29 C          10.4649    1.1218    0.0234 C.ar    1  LIG1       -0.0026
     30 H          10.3304   -1.0065    0.0008 H       1  LIG1        0.0635
     31 C           8.3773    2.3182    0.0068 C.ar    1  LIG1       -0.0392
     32 C           9.7705    2.3361    0.0193 C.ar    1  LIG1        0.0131
     33 H           7.8110    3.2418    0.0136 H       1  LIG1        0.0635
     34 S           7.4291   -1.6089   -0.0924 S.3     1  LIG1       -0.1420
     35 H           8.4781   -2.3974   -0.3504 H       1  LIG1        0.1071
     36 S          10.7119    3.8461    0.0400 S.3     1  LIG1       -0.1420
     37 H           9.6640    4.6442   -0.1803 H       1  LIG1        0.1071
     38 C          12.6973    0.8672   -1.1093 C.ar    1  LIG1        0.0125
     39 C          14.0913    0.8422   -1.0489 C.ar    1  LIG1       -0.0469
     40 C          11.9613    1.1050    0.0585 C.ar    1  LIG1       -0.0026
     41 C          14.7457    1.0674    0.1570 C.ar    1  LIG1       -0.0475
     42 H          14.6722    0.6525   -1.9422 H       1  LIG1        0.0629
     43 C          12.6269    1.3241    1.2639 C.ar    1  LIG1       -0.0398
     44 C          14.0180    1.3194    1.3176 C.ar    1  LIG1        0.0054
     45 H          12.0495    1.4991    2.1633 H       1  LIG1        0.0635
     46 H          15.8269    1.0488    0.1999 H       1  LIG1        0.0629
     47 S          11.7953    0.6193   -2.6211 S.3     1  LIG1       -0.1420
     48 H          12.8793    0.4864   -3.3905 H       1  LIG1        0.1071
     49 S          14.8645    1.5674    2.8769 S.3     1  LIG1       -0.1426
     50 H          14.8091    2.9042    2.8639 H       1  LIG1        0.1071
@<TRIPOS>BOND
     1    25    24    1
     2    48    47    1
     3    24    20    1
     4    47    38    1
     5    21    19    1
     6    42    39    1
     7    20    19   ar
     8    20    17   ar
     9    19    16   ar
    10    38    39   ar
    11    38    40   ar
    12    39    41   ar
    13    35    34    1
    14    10     1    1
    15    10    11    1
    16     5     2    1
    17    37    36    1
    18     2     1   ar
    19     2     4   ar
    20     1     3   ar
    21    34    26    1
    22     9     3    1
    23     3     6   ar
    24     4    16    1
    25     4     7   ar
    26    16    14   ar
    27    17    28    1
    28    17    15   ar
    29    26    28   ar
    30    26    27   ar
    31    28    31   ar
    32     6     7   ar
    33     6     8    1
    34    27    30    1
    35    27    29   ar
    36    31    33    1
    37    31    32   ar
    38     7    12    1
    39    32    29   ar
    40    32    36    1
    41    29    40    1
    42    40    43   ar
    43    12    13    1
    44    41    46    1
    45    41    44   ar
    46    15    14   ar
    47    15    18    1
    48    14    22    1
    49    43    44   ar
    50    43    45    1
    51    44    49    1
    52    22    23    1
    53    50    49    1
