@<TRIPOS>MOLECULE
mol_data/opt/m06hf/geoms/mol2/4gg4gg4gg-4gg-.out
 50 53 0 0 0
SMALL
GASTEIGER

@<TRIPOS>ATOM
      1 C          -0.1865    0.2879    0.8582 C.ar    1  LIG1        0.0054
      2 C           1.2055    0.3037    0.8591 C.ar    1  LIG1       -0.0398
      3 C          -0.8805    1.2070    0.0747 C.ar    1  LIG1       -0.0475
      4 C           1.9046    1.2115    0.0647 C.ar    1  LIG1       -0.0026
      5 H           1.7584   -0.3950    1.4749 H       1  LIG1        0.0635
      6 C          -0.1922    2.1249   -0.7105 C.ar    1  LIG1       -0.0469
      7 C           1.2030    2.1278   -0.7285 C.ar    1  LIG1        0.0125
      8 H          -0.7470    2.8332   -1.3121 H       1  LIG1        0.0629
      9 H          -1.9627    1.2009    0.0796 H       1  LIG1        0.0629
     10 S          -1.0862   -0.8676    1.8916 S.3     1  LIG1       -0.1426
     11 H          -0.9189   -1.9305    1.0945 H       1  LIG1        0.1071
     12 S           2.1521    3.2572   -1.7206 S.3     1  LIG1       -0.1420
     13 H           1.0931    3.8039   -2.3278 H       1  LIG1        0.1071
     14 C           4.0917    0.2599   -0.7178 C.ar    1  LIG1        0.0131
     15 C           5.4845    0.2646   -0.7022 C.ar    1  LIG1       -0.0392
     16 C           3.4014    1.1961    0.0600 C.ar    1  LIG1       -0.0026
     17 C           6.1865    1.1881    0.0694 C.ar    1  LIG1       -0.0026
     18 H           6.0497   -0.4524   -1.2854 H       1  LIG1        0.0635
     19 C           4.1039    2.1198    0.8308 C.ar    1  LIG1       -0.0392
     20 C           5.4971    2.1251    0.8464 C.ar    1  LIG1        0.0131
     21 H           3.5393    2.8354    1.4160 H       1  LIG1        0.0635
     22 S           3.1381   -0.8868   -1.6868 S.3     1  LIG1       -0.1420
     23 H           4.1962   -1.4587   -2.2714 H       1  LIG1        0.1071
     24 S           6.4506    3.2719    1.8150 S.3     1  LIG1       -0.1420
     25 H           5.3927    3.8355    2.4083 H       1  LIG1        0.1071
     26 C           8.3729    0.2382    0.8597 C.ar    1  LIG1        0.0131
     27 C           9.7659    0.2357    0.8349 C.ar    1  LIG1       -0.0392
     28 C           7.6834    1.1622    0.0671 C.ar    1  LIG1       -0.0026
     29 C          10.4681    1.1395    0.0407 C.ar    1  LIG1       -0.0026
     30 H          10.3307   -0.4718    1.4299 H       1  LIG1        0.0635
     31 C           8.3851    2.0672   -0.7263 C.ar    1  LIG1       -0.0392
     32 C           9.7780    2.0647   -0.7501 C.ar    1  LIG1        0.0131
     33 H           7.8199    2.7750   -1.3206 H       1  LIG1        0.0635
     34 S           7.4200   -0.8842    1.8570 S.3     1  LIG1       -0.1420
     35 H           8.4788   -1.4364    2.4595 H       1  LIG1        0.1071
     36 S          10.7321    3.1879   -1.7454 S.3     1  LIG1       -0.1420
     37 H           9.6742    3.7520   -2.3378 H       1  LIG1        0.1071
     38 C          12.6499    0.1842   -0.7633 C.ar    1  LIG1        0.0125
     39 C          14.0447    0.1709   -0.7551 C.ar    1  LIG1       -0.0469
     40 C          11.9648    1.1107    0.0333 C.ar    1  LIG1       -0.0026
     41 C          14.7493    1.0820    0.0243 C.ar    1  LIG1       -0.0475
     42 H          14.5872   -0.5437   -1.3604 H       1  LIG1        0.0629
     43 C          12.6795    2.0081    0.8249 C.ar    1  LIG1       -0.0398
     44 C          14.0719    2.0070    0.8150 C.ar    1  LIG1        0.0054
     45 H          12.1381    2.7096    1.4479 H       1  LIG1        0.0635
     46 H          15.8315    1.0772    0.0187 H       1  LIG1        0.0629
     47 S          11.6798   -0.9373   -1.7435 S.3     1  LIG1       -0.1420
     48 H          12.7275   -1.4984   -2.3570 H       1  LIG1        0.1071
     49 S          14.9988    3.1338    1.8532 S.3     1  LIG1       -0.1426
     50 H          14.7259    4.2409    1.1511 H       1  LIG1        0.1071
@<TRIPOS>BOND
     1    48    47    1
     2    37    36    1
     3    13    12    1
     4    23    22    1
     5    36    32    1
     6    47    38    1
     7    12     7    1
     8    22    14    1
     9    42    39    1
    10    33    31    1
    11     8     6    1
    12    18    15    1
    13    38    39   ar
    14    38    40   ar
    15    39    41   ar
    16    32    31   ar
    17    32    29   ar
    18     7     6   ar
    19     7     4   ar
    20    31    28   ar
    21    14    15   ar
    22    14    16   ar
    23     6     3   ar
    24    15    17   ar
    25    46    41    1
    26    41    44   ar
    27    40    29    1
    28    40    43   ar
    29    29    27   ar
    30    16     4    1
    31    16    19   ar
    32     4     2   ar
    33    28    17    1
    34    28    26   ar
    35    17    20   ar
    36     3     9    1
    37     3     1   ar
    38    44    43   ar
    39    44    49    1
    40    43    45    1
    41    19    20   ar
    42    19    21    1
    43    27    26   ar
    44    27    30    1
    45    20    24    1
    46     1     2   ar
    47     1    10    1
    48     2     5    1
    49    26    34    1
    50    11    10    1
    51    50    49    1
    52    24    25    1
    53    34    35    1
