@<TRIPOS>MOLECULE
mol_data/opt/m06hf/geoms/mol2/4gg4gg4gg4gg.out
 50 53 0 0 0
SMALL
GASTEIGER

@<TRIPOS>ATOM
      1 C          -0.1629    1.8840    1.0789 C.ar    1  LIG1        0.0054
      2 C           1.2288    1.8578    1.0456 C.ar    1  LIG1       -0.0398
      3 C          -0.8825    1.3590    0.0086 C.ar    1  LIG1       -0.0475
      4 C           1.9020    1.2853   -0.0319 C.ar    1  LIG1       -0.0026
      5 H           1.8008    2.2797    1.8632 H       1  LIG1        0.0635
      6 C          -0.2192    0.8027   -1.0797 C.ar    1  LIG1       -0.0469
      7 C           1.1746    0.7506   -1.1029 C.ar    1  LIG1        0.0125
      8 H          -0.7929    0.4016   -1.9053 H       1  LIG1        0.0629
      9 H          -1.9642    1.3839    0.0309 H       1  LIG1        0.0629
     10 S          -1.0295    2.6351    2.4563 S.3     1  LIG1       -0.1426
     11 H          -0.7780    1.6550    3.3340 H       1  LIG1        0.1071
     12 S           2.0896    0.0256   -2.4450 S.3     1  LIG1       -0.1420
     13 H           1.0178   -0.4697   -3.0709 H       1  LIG1        0.1071
     14 C           4.0721    0.2724    0.7216 C.ar    1  LIG1        0.0131
     15 C           5.4647    0.2611    0.7164 C.ar    1  LIG1       -0.0392
     16 C           3.3984    1.2395   -0.0326 C.ar    1  LIG1       -0.0026
     17 C           6.1838    1.1822   -0.0424 C.ar    1  LIG1       -0.0026
     18 H           6.0158   -0.4688    1.2971 H       1  LIG1        0.0635
     19 C           4.1179    2.1616   -0.7894 C.ar    1  LIG1       -0.0392
     20 C           5.5110    2.1382   -0.8106 C.ar    1  LIG1        0.0131
     21 H           3.5669    2.8942   -1.3667 H       1  LIG1        0.0635
     22 S           3.1010   -0.8934    1.6517 S.3     1  LIG1       -0.1420
     23 H           4.1310   -1.6789    1.9819 H       1  LIG1        0.1071
     24 S           6.4829    3.2770   -1.7714 S.3     1  LIG1       -0.1420
     25 H           5.4355    3.8462   -2.3785 H       1  LIG1        0.1071
     26 C           8.3639    0.1717   -0.7774 C.ar    1  LIG1        0.0131
     27 C           9.7565    0.1495   -0.7365 C.ar    1  LIG1       -0.0392
     28 C           7.6801    1.1376   -0.0314 C.ar    1  LIG1       -0.0026
     29 C          10.4652    1.0818    0.0181 C.ar    1  LIG1       -0.0026
     30 H          10.3158   -0.5903   -1.2965 H       1  LIG1        0.0635
     31 C           8.3883    2.0689    0.7252 C.ar    1  LIG1       -0.0392
     32 C           9.7807    2.0582    0.7502 C.ar    1  LIG1        0.0131
     33 H           7.8290    2.8062    1.2883 H       1  LIG1        0.0635
     34 S           7.4059   -0.9805   -1.7361 S.3     1  LIG1       -0.1420
     35 H           8.4618   -1.5585   -2.3200 H       1  LIG1        0.1071
     36 S          10.7383    3.2364    1.6786 S.3     1  LIG1       -0.1420
     37 H           9.7028    4.0234    1.9874 H       1  LIG1        0.1071
     38 C          12.7023    1.5633   -1.0264 C.ar    1  LIG1        0.0125
     39 C          14.0959    1.5116   -0.9855 C.ar    1  LIG1       -0.0469
     40 C          11.9615    1.0368    0.0393 C.ar    1  LIG1       -0.0026
     41 C          14.7453    0.9624    0.1146 C.ar    1  LIG1       -0.0475
     42 H          14.6797    1.9059   -1.8072 H       1  LIG1        0.0629
     43 C          12.6211    0.4732    1.1300 C.ar    1  LIG1       -0.0398
     44 C          14.0123    0.4462    1.1801 C.ar    1  LIG1        0.0054
     45 H          12.0393    0.0585    1.9442 H       1  LIG1        0.0635
     46 H          15.8266    0.9352    0.1496 H       1  LIG1        0.0629
     47 S          11.8043    2.2766   -2.3861 S.3     1  LIG1       -0.1420
     48 H          12.8837    2.7680   -3.0019 H       1  LIG1        0.1071
     49 S          14.8604   -0.2979    2.5730 S.3     1  LIG1       -0.1426
     50 H          14.6462    0.7108    3.4288 H       1  LIG1        0.1071
@<TRIPOS>BOND
     1    13    12    1
     2    48    47    1
     3    12     7    1
     4    47    38    1
     5    25    24    1
     6    35    34    1
     7     8     6    1
     8    42    39    1
     9    24    20    1
    10    34    26    1
    11    21    19    1
    12    30    27    1
    13     7     6   ar
    14     7     4   ar
    15     6     3   ar
    16    38    39   ar
    17    38    40   ar
    18    39    41   ar
    19    20    19   ar
    20    20    17   ar
    21    19    16   ar
    22    26    27   ar
    23    26    28   ar
    24    27    29   ar
    25    17    28    1
    26    17    15   ar
    27    16     4    1
    28    16    14   ar
    29     4     2   ar
    30    28    31   ar
    31     3     9    1
    32     3     1   ar
    33    29    40    1
    34    29    32   ar
    35    40    43   ar
    36    41    46    1
    37    41    44   ar
    38    15    14   ar
    39    15    18    1
    40    14    22    1
    41    31    32   ar
    42    31    33    1
    43    32    36    1
    44     2     1   ar
    45     2     5    1
    46     1    10    1
    47    43    44   ar
    48    43    45    1
    49    44    49    1
    50    22    23    1
    51    36    37    1
    52    10    11    1
    53    49    50    1
