@<TRIPOS>MOLECULE
mol_data/opt/m06hf/geoms/mol2/4gg4gg-4gg4gg-.out
 50 53 0 0 0
SMALL
GASTEIGER

@<TRIPOS>ATOM
      1 C          -0.1887    0.2565   -0.8284 C.ar    1  LIG1        0.0054
      2 C           1.2027    0.2731   -0.8305 C.ar    1  LIG1       -0.0398
      3 C          -0.8833    1.1911   -0.0633 C.ar    1  LIG1       -0.0475
      4 C           1.9021    1.1978   -0.0554 C.ar    1  LIG1       -0.0026
      5 H           1.7554   -0.4394   -1.4303 H       1  LIG1        0.0635
      6 C          -0.1953    2.1239    0.7039 C.ar    1  LIG1       -0.0469
      7 C           1.2004    2.1279    0.7208 C.ar    1  LIG1        0.0125
      8 H          -0.7500    2.8438    1.2917 H       1  LIG1        0.0629
      9 H          -1.9655    1.1854   -0.0692 H       1  LIG1        0.0629
     10 S          -1.0864   -0.9240   -1.8356 S.3     1  LIG1       -0.1426
     11 H          -0.9752   -1.9513   -0.9825 H       1  LIG1        0.1071
     12 S           2.1482    3.2774    1.6913 S.3     1  LIG1       -0.1420
     13 H           1.0887    3.8293    2.2929 H       1  LIG1        0.1071
     14 C           4.0921    0.2570    0.7356 C.ar    1  LIG1        0.0131
     15 C           5.4845    0.2653    0.7204 C.ar    1  LIG1       -0.0392
     16 C           3.3991    1.1835   -0.0521 C.ar    1  LIG1       -0.0026
     17 C           6.1845    1.1784   -0.0658 C.ar    1  LIG1       -0.0026
     18 H           6.0515   -0.4399    1.3159 H       1  LIG1        0.0635
     19 C           4.0994    2.0986   -0.8345 C.ar    1  LIG1       -0.0392
     20 C           5.4928    2.1039   -0.8540 C.ar    1  LIG1        0.0131
     21 H           3.5332    2.8066   -1.4276 H       1  LIG1        0.0635
     22 S           3.1397   -0.8725    1.7249 S.3     1  LIG1       -0.1420
     23 H           4.1928   -1.5469    2.1971 H       1  LIG1        0.1071
     24 S           6.4424    3.2390   -1.8406 S.3     1  LIG1       -0.1420
     25 H           5.3827    3.7870   -2.4451 H       1  LIG1        0.1071
     26 C           8.3752    0.2127   -0.8289 C.ar    1  LIG1        0.0131
     27 C           9.7682    0.2179   -0.8060 C.ar    1  LIG1       -0.0392
     28 C           7.6815    1.1564   -0.0633 C.ar    1  LIG1       -0.0026
     29 C          10.4670    1.1455   -0.0365 C.ar    1  LIG1       -0.0026
     30 H          10.3355   -0.4986   -1.3876 H       1  LIG1        0.0635
     31 C           8.3798    2.0847    0.7060 C.ar    1  LIG1       -0.0392
     32 C           9.7726    2.0888    0.7291 C.ar    1  LIG1        0.0131
     33 H           7.8119    2.8021    1.2858 H       1  LIG1        0.0635
     34 S           7.4254   -0.9327   -1.8022 S.3     1  LIG1       -0.1420
     35 H           8.4806   -1.6104   -2.2648 H       1  LIG1        0.1071
     36 S          10.7223    3.2326    1.7047 S.3     1  LIG1       -0.1420
     37 H           9.6679    3.9149    2.1626 H       1  LIG1        0.1071
     38 C          12.6582    0.2023    0.7581 C.ar    1  LIG1        0.0125
     39 C          14.0539    0.2014    0.7489 C.ar    1  LIG1       -0.0469
     40 C          11.9639    1.1268   -0.0315 C.ar    1  LIG1       -0.0026
     41 C          14.7494    1.1243   -0.0235 C.ar    1  LIG1       -0.0475
     42 H          14.6029   -0.5145    1.3469 H       1  LIG1        0.0629
     43 C          12.6707    2.0413   -0.8117 C.ar    1  LIG1       -0.0398
     44 C          14.0622    2.0536   -0.8017 C.ar    1  LIG1        0.0054
     45 H          12.1239    2.7494   -1.4221 H       1  LIG1        0.0635
     46 H          15.8316    1.1265   -0.0232 H       1  LIG1        0.0629
     47 S          11.7015   -0.9337    1.7359 S.3     1  LIG1       -0.1420
     48 H          12.7558   -1.4818    2.3497 H       1  LIG1        0.1071
     49 S          14.9695    3.2210   -1.8154 S.3     1  LIG1       -0.1426
     50 H          14.8531    4.2586   -0.9756 H       1  LIG1        0.1071
@<TRIPOS>BOND
     1    25    24    1
     2    35    34    1
     3    24    20    1
     4    10    11    1
     5    10     1    1
     6    49    50    1
     7    49    44    1
     8    34    26    1
     9     5     2    1
    10    21    19    1
    11    45    43    1
    12    30    27    1
    13    20    19   ar
    14    20    17   ar
    15    19    16   ar
    16     2     1   ar
    17     2     4   ar
    18    26    27   ar
    19    26    28   ar
    20     1     3   ar
    21    43    44   ar
    22    43    40   ar
    23    27    29   ar
    24    44    41   ar
    25     9     3    1
    26    17    28    1
    27    17    15   ar
    28    28    31   ar
    29     3     6   ar
    30     4    16    1
    31     4     7   ar
    32    16    14   ar
    33    29    40    1
    34    29    32   ar
    35    40    38   ar
    36    41    46    1
    37    41    39   ar
    38     6     7   ar
    39     6     8    1
    40    31    32   ar
    41    31    33    1
    42    15    14   ar
    43    15    18    1
    44     7    12    1
    45    32    36    1
    46    14    22    1
    47    39    38   ar
    48    39    42    1
    49    38    47    1
    50    12    13    1
    51    36    37    1
    52    22    23    1
    53    47    48    1
