@<TRIPOS>MOLECULE
mol_data/opt/m06hf/geoms/mol2/4gh.out
 15 15 0 0 0
SMALL
GASTEIGER

@<TRIPOS>ATOM
      1 C           0.2144   -0.0168   -0.1763 C.ar    1  LIG1        0.0049
      2 C           1.6060    0.0412   -0.2340 C.ar    1  LIG1       -0.0468
      3 C          -0.5077    1.1702   -0.0667 C.ar    1  LIG1       -0.0468
      4 C           2.2674    1.2597   -0.1655 C.ar    1  LIG1       -0.0400
      5 H           2.1724   -0.8753   -0.3366 H       1  LIG1        0.0629
      6 C           0.1458    2.3934   -0.0010 C.ar    1  LIG1       -0.0400
      7 C           1.5443    2.4540   -0.0501 C.ar    1  LIG1        0.0246
      8 H          -0.4259    3.3086    0.0909 H       1  LIG1        0.0636
      9 H           3.3493    1.2914   -0.2021 H       1  LIG1        0.0636
     10 H          -1.5889    1.1332   -0.0359 H       1  LIG1        0.0629
     11 S          -0.6379   -1.5869   -0.3113 S.3     1  LIG1       -0.1426
     12 H          -0.6203   -1.8972    0.9920 H       1  LIG1        0.1071
     13 N           2.2048    3.6736    0.0591 N.pl3   1  LIG1       -0.3580
     14 H           3.1435    3.6959   -0.3110 H       1  LIG1        0.1423
     15 H           1.6646    4.4867   -0.1969 H       1  LIG1        0.1423
@<TRIPOS>BOND
     1     5     2    1
     2    11     1    1
     3    11    12    1
     4    14    13    1
     5     2     1   ar
     6     2     4   ar
     7     9     4    1
     8    15    13    1
     9     1     3   ar
    10     4     7   ar
    11     3    10    1
    12     3     6   ar
    13     7     6   ar
    14     7    13    1
    15     6     8    1
