@<TRIPOS>MOLECULE
mol_data/opt/m06hf/geoms/mol2/4gh4gh-4gh-.out
 41 43 0 0 0
SMALL
GASTEIGER

@<TRIPOS>ATOM
      1 C          -0.0332    1.6193    1.2528 C.ar    1  LIG1        0.0054
      2 C           1.3579    1.6287    1.1959 C.ar    1  LIG1       -0.0390
      3 C          -0.7528    1.3012    0.1013 C.ar    1  LIG1       -0.0468
      4 C           2.0307    1.3074    0.0208 C.ar    1  LIG1        0.0049
      5 H           1.9341    1.8821    2.0774 H       1  LIG1        0.0635
      6 C          -0.0968    0.9949   -1.0815 C.ar    1  LIG1       -0.0394
      7 C           1.3034    0.9917   -1.1440 C.ar    1  LIG1        0.0325
      8 H          -0.6664    0.7639   -1.9732 H       1  LIG1        0.0636
      9 H          -1.8348    1.2997    0.1355 H       1  LIG1        0.0629
     10 S          -0.8905    2.0743    2.7572 S.3     1  LIG1       -0.1426
     11 H          -0.7863    0.8928    3.3779 H       1  LIG1        0.1071
     12 N           1.9605    0.7398   -2.3345 N.pl3   1  LIG1       -0.3575
     13 H           2.9370    0.4909   -2.2489 H       1  LIG1        0.1423
     14 H           1.4573    0.1778   -3.0045 H       1  LIG1        0.1423
     15 C           4.2322    0.0938    0.0197 C.ar    1  LIG1        0.0132
     16 C           5.6236    0.1251   -0.0238 C.ar    1  LIG1       -0.0385
     17 C           3.5269    1.3042   -0.0154 C.ar    1  LIG1       -0.0012
     18 C           6.3161    1.3303   -0.1022 C.ar    1  LIG1        0.0049
     19 H           6.1991   -0.7926    0.0051 H       1  LIG1        0.0635
     20 C           4.2181    2.5091   -0.0862 C.ar    1  LIG1       -0.0316
     21 C           5.6161    2.5486   -0.1290 C.ar    1  LIG1        0.0330
     22 H           3.6515    3.4321   -0.1093 H       1  LIG1        0.0642
     23 S           3.2999   -1.4238    0.1505 S.3     1  LIG1       -0.1420
     24 H           4.3492   -2.2266   -0.0554 H       1  LIG1        0.1071
     25 N           6.2970    3.7584   -0.1461 N.pl3   1  LIG1       -0.3575
     26 H           7.2466    3.7055   -0.4916 H       1  LIG1        0.1423
     27 H           5.7802    4.5335   -0.5353 H       1  LIG1        0.1423
     28 C           8.4883    1.4930   -1.3584 C.ar    1  LIG1        0.0126
     29 C           9.8832    1.4836   -1.3595 C.ar    1  LIG1       -0.0462
     30 C           7.8125    1.3260   -0.1441 C.ar    1  LIG1       -0.0012
     31 C          10.5942    1.3114   -0.1804 C.ar    1  LIG1       -0.0400
     32 H          10.4270    1.6013   -2.2887 H       1  LIG1        0.0629
     33 C           8.5303    1.1531    1.0361 C.ar    1  LIG1       -0.0322
     34 C           9.9279    1.1434    1.0389 C.ar    1  LIG1        0.0252
     35 H           7.9826    1.0280    1.9628 H       1  LIG1        0.0642
     36 H          11.6772    1.2979   -0.2043 H       1  LIG1        0.0636
     37 S           7.5118    1.6814   -2.8417 S.3     1  LIG1       -0.1420
     38 H           8.5531    1.9371   -3.6421 H       1  LIG1        0.1071
     39 N          10.6385    0.9198    2.2171 N.pl3   1  LIG1       -0.3579
     40 H          11.5840    1.2739    2.2255 H       1  LIG1        0.1423
     41 H          10.1400    1.1366    3.0682 H       1  LIG1        0.1423
@<TRIPOS>BOND
     1    38    37    1
     2    14    12    1
     3    37    28    1
     4    12    13    1
     5    12     7    1
     6    32    29    1
     7     8     6    1
     8    29    28   ar
     9    29    31   ar
    10    28    30   ar
    11     7     6   ar
    12     7     4   ar
    13     6     3   ar
    14    27    25    1
    15    26    25    1
    16    36    31    1
    17    31    34   ar
    18    25    21    1
    19    30    18    1
    20    30    33   ar
    21    21    18   ar
    22    21    20   ar
    23    22    20    1
    24    18    16   ar
    25    20    17   ar
    26    24    23    1
    27    16    19    1
    28    16    15   ar
    29    17    15   ar
    30    17     4    1
    31    15    23    1
    32     4     2   ar
    33     3     9    1
    34     3     1   ar
    35    33    34   ar
    36    33    35    1
    37    34    39    1
    38     2     1   ar
    39     2     5    1
    40     1    10    1
    41    39    40    1
    42    39    41    1
    43    10    11    1
