@<TRIPOS>MOLECULE
mol_data/opt/m06hf/geoms/mol2/4gh4gh4gh-4gh-.out
 54 57 0 0 0
SMALL
GASTEIGER

@<TRIPOS>ATOM
      1 C          -0.1726    2.1470    0.9881 C.ar    1  LIG1        0.0054
      2 C           1.2197    2.1398    0.9851 C.ar    1  LIG1       -0.0390
      3 C          -0.8535    1.4097    0.0195 C.ar    1  LIG1       -0.0468
      4 C           1.9301    1.3953    0.0484 C.ar    1  LIG1        0.0049
      5 H           1.7651    2.7128    1.7247 H       1  LIG1        0.0635
      6 C          -0.1591    0.6645   -0.9215 C.ar    1  LIG1       -0.0394
      7 C           1.2425    0.6393   -0.9205 C.ar    1  LIG1        0.0325
      8 H          -0.6983    0.1000   -1.6721 H       1  LIG1        0.0636
      9 H          -1.9359    1.4242    0.0054 H       1  LIG1        0.0629
     10 S          -1.0722    3.1255    2.1885 S.3     1  LIG1       -0.1426
     11 H          -1.1784    2.1727    3.1226 H       1  LIG1        0.1071
     12 N           1.9423   -0.0709   -1.8789 N.pl3   1  LIG1       -0.3575
     13 H           2.9109   -0.2625   -1.6591 H       1  LIG1        0.1423
     14 H           1.4562   -0.8537   -2.2898 H       1  LIG1        0.1423
     15 C           4.1168    0.3323    0.6799 C.ar    1  LIG1        0.0132
     16 C           5.5090    0.3312    0.6483 C.ar    1  LIG1       -0.0385
     17 C           3.4268    1.3807    0.0587 C.ar    1  LIG1       -0.0012
     18 C           6.2156    1.3413    0.0006 C.ar    1  LIG1        0.0049
     19 H           6.0722   -0.4602    1.1291 H       1  LIG1        0.0635
     20 C           4.1315    2.3954   -0.5815 C.ar    1  LIG1       -0.0316
     21 C           5.5293    2.3942   -0.6283 C.ar    1  LIG1        0.0330
     22 H           3.5744    3.1899   -1.0633 H       1  LIG1        0.0642
     23 S           3.1628   -0.9391    1.4909 S.3     1  LIG1       -0.1420
     24 H           4.1963   -1.7706    1.6648 H       1  LIG1        0.1071
     25 N           6.2278    3.4241   -1.2482 N.pl3   1  LIG1       -0.3575
     26 H           7.1667    3.1851   -1.5401 H       1  LIG1        0.1423
     27 H           5.7091    3.9300   -1.9516 H       1  LIG1        0.1423
     28 C           8.3585    0.3361   -0.8398 C.ar    1  LIG1        0.0132
     29 C           9.7514    0.3140   -0.8586 C.ar    1  LIG1       -0.0385
     30 C           7.7100    1.2923   -0.0500 C.ar    1  LIG1       -0.0012
     31 C          10.4965    1.2366   -0.1299 C.ar    1  LIG1        0.0049
     32 H          10.2851   -0.4196   -1.4517 H       1  LIG1        0.0635
     33 C           8.4538    2.2203    0.6751 C.ar    1  LIG1       -0.0316
     34 C           9.8509    2.2155    0.6440 C.ar    1  LIG1        0.0330
     35 H           7.9271    2.9592    1.2679 H       1  LIG1        0.0642
     36 S           7.3616   -0.7945   -1.7977 S.3     1  LIG1       -0.1420
     37 H           8.3816   -1.2896   -2.5057 H       1  LIG1        0.1071
     38 N          10.5906    3.1241    1.3937 N.pl3   1  LIG1       -0.3575
     39 H          11.5329    3.2771    1.0584 H       1  LIG1        0.1423
     40 H          10.1073    3.9810    1.6218 H       1  LIG1        0.1423
     41 C          12.6707    1.7078   -1.2971 C.ar    1  LIG1        0.0126
     42 C          14.0648    1.6552   -1.3163 C.ar    1  LIG1       -0.0462
     43 C          11.9921    1.2038   -0.1830 C.ar    1  LIG1       -0.0012
     44 C          14.7712    1.1344   -0.2416 C.ar    1  LIG1       -0.0400
     45 H          14.6111    2.0242   -2.1753 H       1  LIG1        0.0629
     46 C          12.7056    0.6904    0.8984 C.ar    1  LIG1       -0.0322
     47 C          14.1021    0.6492    0.8884 C.ar    1  LIG1        0.0252
     48 H          12.1542    0.3190    1.7542 H       1  LIG1        0.0642
     49 H          15.8533    1.0983   -0.2784 H       1  LIG1        0.0636
     50 S          11.7038    2.4023   -2.6282 S.3     1  LIG1       -0.1420
     51 H          12.7521    2.9082   -3.2875 H       1  LIG1        0.1071
     52 N          14.8090    0.0883    1.9519 N.pl3   1  LIG1       -0.3579
     53 H          15.7597    0.4129    2.0537 H       1  LIG1        0.1423
     54 H          14.3147    0.0723    2.8325 H       1  LIG1        0.1423
@<TRIPOS>BOND
     1    51    50    1
     2    50    41    1
     3    37    36    1
     4    14    12    1
     5    45    42    1
     6    27    25    1
     7    12    13    1
     8    12     7    1
     9    36    28    1
    10     8     6    1
    11    26    25    1
    12    32    29    1
    13    42    41   ar
    14    42    44   ar
    15    41    43   ar
    16    25    21    1
    17    22    20    1
    18     6     7   ar
    19     6     3   ar
    20     7     4   ar
    21    29    28   ar
    22    29    31   ar
    23    28    30   ar
    24    21    20   ar
    25    21    18   ar
    26    20    17   ar
    27    49    44    1
    28    44    47   ar
    29    43    31    1
    30    43    46   ar
    31    31    34   ar
    32    30    18    1
    33    30    33   ar
    34    18    16   ar
    35     9     3    1
    36     3     1   ar
    37     4    17    1
    38     4     2   ar
    39    17    15   ar
    40    34    33   ar
    41    34    38    1
    42    16    15   ar
    43    16    19    1
    44    33    35    1
    45    15    23    1
    46    47    46   ar
    47    47    52    1
    48    46    48    1
    49     2     1   ar
    50     2     5    1
    51     1    10    1
    52    39    38    1
    53    38    40    1
    54    23    24    1
    55    52    53    1
    56    52    54    1
    57    10    11    1
