@<TRIPOS>MOLECULE
mol_data/opt/m06hf/geoms/mol2/4gh4gh4gh-4gh.out
 54 57 0 0 0
SMALL
GASTEIGER

@<TRIPOS>ATOM
      1 C          -0.1705    2.3323    0.6913 C.ar    1  LIG1        0.0054
      2 C           1.2213    2.3071    0.7125 C.ar    1  LIG1       -0.0390
      3 C          -0.8503    1.4007   -0.0928 C.ar    1  LIG1       -0.0468
      4 C           1.9322    1.3577   -0.0157 C.ar    1  LIG1        0.0049
      5 H           1.7666    3.0285    1.3089 H       1  LIG1        0.0635
      6 C          -0.1558    0.4500   -0.8254 C.ar    1  LIG1       -0.0394
      7 C           1.2455    0.4086   -0.7968 C.ar    1  LIG1        0.0325
      8 H          -0.6939   -0.2637   -1.4371 H       1  LIG1        0.0636
      9 H          -1.9321    1.4255   -0.1280 H       1  LIG1        0.0629
     10 S          -1.0703    3.5742    1.6163 S.3     1  LIG1       -0.1426
     11 H          -1.1909    2.8776    2.7523 H       1  LIG1        0.1071
     12 N           1.9458   -0.5069   -1.5601 N.pl3   1  LIG1       -0.3575
     13 H           2.9100   -0.6532   -1.2925 H       1  LIG1        0.1423
     14 H           1.4544   -1.3567   -1.7919 H       1  LIG1        0.1423
     15 C           4.1028    0.4453    0.8631 C.ar    1  LIG1        0.0132
     16 C           5.4957    0.4360    0.8576 C.ar    1  LIG1       -0.0385
     17 C           3.4286    1.3369    0.0192 C.ar    1  LIG1       -0.0012
     18 C           6.2156    1.2910    0.0287 C.ar    1  LIG1        0.0049
     19 H           6.0487   -0.2405    1.4986 H       1  LIG1        0.0635
     20 C           4.1480    2.1942   -0.8070 C.ar    1  LIG1       -0.0316
     21 C           5.5465    2.1882   -0.8213 C.ar    1  LIG1        0.0330
     22 H           3.6028    2.8718   -1.4530 H       1  LIG1        0.0642
     23 S           3.1221   -0.6132    1.9145 S.3     1  LIG1       -0.1420
     24 H           4.1503   -1.3543    2.3435 H       1  LIG1        0.1071
     25 N           6.2613    3.0690   -1.6208 N.pl3   1  LIG1       -0.3575
     26 H           7.2182    2.7972   -1.8068 H       1  LIG1        0.1423
     27 H           5.7739    3.3953   -2.4422 H       1  LIG1        0.1423
     28 C           8.3777    0.4171   -0.8924 C.ar    1  LIG1        0.0132
     29 C           9.7702    0.4259   -0.9159 C.ar    1  LIG1       -0.0385
     30 C           7.7118    1.2529    0.0119 C.ar    1  LIG1       -0.0012
     31 C          10.4963    1.2592   -0.0698 C.ar    1  LIG1        0.0049
     32 H          10.3182   -0.2070   -1.6040 H       1  LIG1        0.0635
     33 C           8.4358    2.0827    0.8616 C.ar    1  LIG1       -0.0316
     34 C           9.8339    2.1054    0.8352 C.ar    1  LIG1        0.0330
     35 H           7.8952    2.7280    1.5438 H       1  LIG1        0.0642
     36 S           7.3888   -0.6071   -1.9696 S.3     1  LIG1       -0.1420
     37 H           8.4044   -0.9741   -2.7587 H       1  LIG1        0.1071
     38 N          10.5572    2.9132    1.7040 N.pl3   1  LIG1       -0.3575
     39 H          11.5013    3.1171    1.4013 H       1  LIG1        0.1423
     40 H          10.0651    3.7301    2.0358 H       1  LIG1        0.1423
     41 C          12.6191    2.1760   -1.0311 C.ar    1  LIG1        0.0126
     42 C          14.0122    2.1925   -1.0906 C.ar    1  LIG1       -0.0462
     43 C          11.9911    1.2898   -0.1491 C.ar    1  LIG1       -0.0012
     44 C          14.7659    1.3523   -0.2824 C.ar    1  LIG1       -0.0400
     45 H          14.5209    2.8615   -1.7732 H       1  LIG1        0.0629
     46 C          12.7505    0.4540    0.6648 C.ar    1  LIG1       -0.0322
     47 C          14.1473    0.4715    0.6121 C.ar    1  LIG1        0.0252
     48 H          12.2375   -0.2165    1.3440 H       1  LIG1        0.0642
     49 H          15.8470    1.3750   -0.3481 H       1  LIG1        0.0636
     50 S          11.5745    3.2255   -2.0271 S.3     1  LIG1       -0.1420
     51 H          12.5719    3.9394   -2.5619 H       1  LIG1        0.1071
     52 N          14.9030   -0.4034    1.3922 N.pl3   1  LIG1       -0.3579
     53 H          15.8502   -0.1060    1.5765 H       1  LIG1        0.1423
     54 H          14.4408   -0.7443    2.2228 H       1  LIG1        0.1423
@<TRIPOS>BOND
     1    37    36    1
     2    51    50    1
     3    27    25    1
     4    50    41    1
     5    36    28    1
     6    26    25    1
     7    14    12    1
     8    45    42    1
     9    25    21    1
    10    32    29    1
    11    12    13    1
    12    12     7    1
    13    22    20    1
    14     8     6    1
    15    42    41   ar
    16    42    44   ar
    17    41    43   ar
    18    29    28   ar
    19    29    31   ar
    20    28    30   ar
    21     6     7   ar
    22     6     3   ar
    23    21    20   ar
    24    21    18   ar
    25    20    17   ar
    26     7     4   ar
    27    49    44    1
    28    44    47   ar
    29    43    31    1
    30    43    46   ar
    31     9     3    1
    32     3     1   ar
    33    31    34   ar
    34     4    17    1
    35     4     2   ar
    36    30    18    1
    37    30    33   ar
    38    17    15   ar
    39    18    16   ar
    40    47    46   ar
    41    47    52    1
    42    46    48    1
    43     1     2   ar
    44     1    10    1
    45     2     5    1
    46    34    33   ar
    47    34    38    1
    48    16    15   ar
    49    16    19    1
    50    33    35    1
    51    15    23    1
    52    52    53    1
    53    52    54    1
    54    39    38    1
    55    10    11    1
    56    38    40    1
    57    23    24    1
