@<TRIPOS>MOLECULE
mol_data/opt/m06hf/geoms/mol2/4gh4gh-.out
 28 29 0 0 0
SMALL
GASTEIGER

@<TRIPOS>ATOM
      1 C           0.1464    0.5134    1.1773 C.ar    1  LIG1        0.0054
      2 C           1.5326    0.5351    1.0558 C.ar    1  LIG1       -0.0390
      3 C          -0.6218    1.2380    0.2657 C.ar    1  LIG1       -0.0468
      4 C           2.1540    1.2523    0.0363 C.ar    1  LIG1        0.0049
      5 H           2.1457   -0.0163    1.7581 H       1  LIG1        0.0635
      6 C          -0.0180    1.9575   -0.7537 C.ar    1  LIG1       -0.0394
      7 C           1.3779    1.9795   -0.8856 C.ar    1  LIG1        0.0325
      8 H          -0.6236    2.5260   -1.4484 H       1  LIG1        0.0636
      9 H          -1.6997    1.2390    0.3623 H       1  LIG1        0.0629
     10 S          -0.6304   -0.3657    2.5301 S.3     1  LIG1       -0.1426
     11 H          -0.8267   -1.5277    1.8916 H       1  LIG1        0.1071
     12 N           1.9836    2.7478   -1.8648 N.pl3   1  LIG1       -0.3575
     13 H           2.9446    2.5090   -2.0699 H       1  LIG1        0.1423
     14 H           1.4280    2.9226   -2.6887 H       1  LIG1        0.1423
     15 C           4.3055    0.4912   -1.0273 C.ar    1  LIG1        0.0126
     16 C           5.6983    0.5338   -1.0907 C.ar    1  LIG1       -0.0462
     17 C           3.6475    1.2690   -0.0669 C.ar    1  LIG1       -0.0012
     18 C           6.4261    1.3313   -0.2186 C.ar    1  LIG1       -0.0400
     19 H           6.2283   -0.0670   -1.8193 H       1  LIG1        0.0629
     20 C           4.3831    2.0670    0.8055 C.ar    1  LIG1       -0.0322
     21 C           5.7788    2.1119    0.7455 C.ar    1  LIG1        0.0252
     22 H           3.8500    2.6599    1.5392 H       1  LIG1        0.0642
     23 H           7.5075    1.3422   -0.2781 H       1  LIG1        0.0636
     24 S           3.3119   -0.5339   -2.1009 S.3     1  LIG1       -0.1420
     25 H           4.3343   -0.9500   -2.8547 H       1  LIG1        0.1071
     26 N           6.5089    2.8758    1.6560 N.pl3   1  LIG1       -0.3579
     27 H           7.4299    3.1504    1.3448 H       1  LIG1        0.1423
     28 H           6.0023    3.6437    2.0730 H       1  LIG1        0.1423
@<TRIPOS>BOND
     1    25    24    1
     2    14    12    1
     3    24    15    1
     4    13    12    1
     5    12     7    1
     6    19    16    1
     7     8     6    1
     8    16    15   ar
     9    16    18   ar
    10    15    17   ar
    11     7     6   ar
    12     7     4   ar
    13     6     3   ar
    14    23    18    1
    15    18    21   ar
    16    17     4    1
    17    17    20   ar
    18     4     2   ar
    19     3     9    1
    20     3     1   ar
    21    21    20   ar
    22    21    26    1
    23    20    22    1
    24     2     1   ar
    25     2     5    1
    26     1    10    1
    27    27    26    1
    28    26    28    1
    29    11    10    1
