@<TRIPOS>MOLECULE
mol_data/opt/m06hf/geoms/mol2/4gh4gh-4gh4gh-.out
 54 57 0 0 0
SMALL
GASTEIGER

@<TRIPOS>ATOM
      1 C          -0.1274    2.1384    1.0719 C.ar    1  LIG1        0.0054
      2 C           1.2640    2.1076    1.0246 C.ar    1  LIG1       -0.0390
      3 C          -0.8507    1.4317    0.1116 C.ar    1  LIG1       -0.0468
      4 C           1.9316    1.3680    0.0535 C.ar    1  LIG1        0.0049
      5 H           1.8422    2.6581    1.7563 H       1  LIG1        0.0635
      6 C          -0.1988    0.6918   -0.8637 C.ar    1  LIG1       -0.0394
      7 C           1.2014    0.6415   -0.9062 C.ar    1  LIG1        0.0325
      8 H          -0.7710    0.1502   -1.6067 H       1  LIG1        0.0636
      9 H          -1.9327    1.4645    0.1321 H       1  LIG1        0.0629
     10 S          -0.9722    3.1069    2.3200 S.3     1  LIG1       -0.1426
     11 H          -1.0399    2.1465    3.2501 H       1  LIG1        0.1071
     12 N           1.8604   -0.0633   -1.8964 N.pl3   1  LIG1       -0.3575
     13 H           2.8286   -0.2834   -1.7043 H       1  LIG1        0.1423
     14 H           1.3450   -0.8216   -2.3172 H       1  LIG1        0.1423
     15 C           4.1220    0.2831    0.6358 C.ar    1  LIG1        0.0132
     16 C           5.5141    0.2797    0.5921 C.ar    1  LIG1       -0.0385
     17 C           3.4280    1.3323    0.0212 C.ar    1  LIG1       -0.0012
     18 C           6.2166    1.2837   -0.0695 C.ar    1  LIG1        0.0049
     19 H           6.0793   -0.5051    1.0813 H       1  LIG1        0.0635
     20 C           4.1279    2.3378   -0.6385 C.ar    1  LIG1       -0.0316
     21 C           5.5248    2.3307   -0.7033 C.ar    1  LIG1        0.0330
     22 H           3.5678    3.1328   -1.1160 H       1  LIG1        0.0642
     23 S           3.1735   -0.9749    1.4736 S.3     1  LIG1       -0.1420
     24 H           4.1744   -1.8590    1.5437 H       1  LIG1        0.1071
     25 N           6.2174    3.3548   -1.3400 N.pl3   1  LIG1       -0.3575
     26 H           7.1525    3.1125   -1.6412 H       1  LIG1        0.1423
     27 H           5.6906    3.8556   -2.0409 H       1  LIG1        0.1423
     28 C           8.3889    0.2689   -0.8379 C.ar    1  LIG1        0.0132
     29 C           9.7824    0.2713   -0.8348 C.ar    1  LIG1       -0.0385
     30 C           7.7117    1.2506   -0.1060 C.ar    1  LIG1       -0.0012
     31 C          10.5010    1.2405   -0.1410 C.ar    1  LIG1        0.0049
     32 H          10.3376   -0.4804   -1.3836 H       1  LIG1        0.0635
     33 C           8.4297    2.2247    0.5849 C.ar    1  LIG1       -0.0316
     34 C           9.8266    2.2438    0.5750 C.ar    1  LIG1        0.0330
     35 H           7.8812    2.9822    1.1329 H       1  LIG1        0.0642
     36 S           7.4313   -0.9283   -1.7549 S.3     1  LIG1       -0.1420
     37 H           8.4756   -1.4466   -2.4069 H       1  LIG1        0.1071
     38 N          10.5382    3.2007    1.2908 N.pl3   1  LIG1       -0.3575
     39 H          11.4818    3.3576    0.9612 H       1  LIG1        0.1423
     40 H          10.0348    4.0568    1.4743 H       1  LIG1        0.1423
     41 C          12.6856    1.6964   -1.2949 C.ar    1  LIG1        0.0126
     42 C          14.0805    1.6729   -1.2876 C.ar    1  LIG1       -0.0462
     43 C          11.9975    1.2329   -0.1692 C.ar    1  LIG1       -0.0012
     44 C          14.7782    1.2195   -0.1772 C.ar    1  LIG1       -0.0400
     45 H          14.6345    2.0119   -2.1541 H       1  LIG1        0.0629
     46 C          12.7019    0.7869    0.9474 C.ar    1  LIG1       -0.0322
     47 C          14.0989    0.7752    0.9634 C.ar    1  LIG1        0.0252
     48 H          12.1432    0.4460    1.8112 H       1  LIG1        0.0642
     49 H          15.8614    1.2057   -0.1935 H       1  LIG1        0.0636
     50 S          11.7288    2.3033   -2.6757 S.3     1  LIG1       -0.1420
     51 H          12.7796    2.7914   -3.3446 H       1  LIG1        0.1071
     52 N          14.7975    0.2824    2.0655 N.pl3   1  LIG1       -0.3579
     53 H          15.7405    0.6293    2.1657 H       1  LIG1        0.1423
     54 H          14.2888    0.3023    2.9379 H       1  LIG1        0.1423
@<TRIPOS>BOND
     1    51    50    1
     2    50    41    1
     3    37    36    1
     4    14    12    1
     5    45    42    1
     6    27    25    1
     7    12    13    1
     8    12     7    1
     9    36    28    1
    10    26    25    1
    11     8     6    1
    12    32    29    1
    13    25    21    1
    14    41    42   ar
    15    41    43   ar
    16    42    44   ar
    17    22    20    1
    18     7     6   ar
    19     7     4   ar
    20     6     3   ar
    21    28    29   ar
    22    28    30   ar
    23    29    31   ar
    24    21    20   ar
    25    21    18   ar
    26    20    17   ar
    27    49    44    1
    28    44    47   ar
    29    43    31    1
    30    43    46   ar
    31    31    34   ar
    32    30    18    1
    33    30    33   ar
    34    18    16   ar
    35    17     4    1
    36    17    15   ar
    37     4     2   ar
    38     3     9    1
    39     3     1   ar
    40    34    33   ar
    41    34    38    1
    42    33    35    1
    43    16    15   ar
    44    16    19    1
    45    15    23    1
    46    46    47   ar
    47    46    48    1
    48    39    38    1
    49    47    52    1
    50     2     1   ar
    51     2     5    1
    52     1    10    1
    53    38    40    1
    54    23    24    1
    55    52    53    1
    56    52    54    1
    57    10    11    1
