@<TRIPOS>MOLECULE
mol_data/opt/m06hf/geoms/mol2/4gh4gh.out
 28 29 0 0 0
SMALL
GASTEIGER

@<TRIPOS>ATOM
      1 C           0.1150    0.5326    1.1163 C.ar    1  LIG1        0.0054
      2 C           1.5039    0.5535    1.0312 C.ar    1  LIG1       -0.0390
      3 C          -0.6291    1.2410    0.1725 C.ar    1  LIG1       -0.0468
      4 C           2.1518    1.2539    0.0164 C.ar    1  LIG1        0.0049
      5 H           2.0985    0.0147    1.7588 H       1  LIG1        0.0635
      6 C           0.0012    1.9437   -0.8426 C.ar    1  LIG1       -0.0394
      7 C           1.4001    1.9646   -0.9379 C.ar    1  LIG1        0.0325
      8 H          -0.5861    2.4998   -1.5627 H       1  LIG1        0.0636
      9 H          -1.7092    1.2426    0.2404 H       1  LIG1        0.0629
     10 S          -0.6970   -0.3242    2.4627 S.3     1  LIG1       -0.1426
     11 H          -0.8749   -1.4973    1.8391 H       1  LIG1        0.1071
     12 N           2.0312    2.7167   -1.9137 N.pl3   1  LIG1       -0.3575
     13 H           2.9973    2.4752   -2.0893 H       1  LIG1        0.1423
     14 H           1.4975    2.8769   -2.7549 H       1  LIG1        0.1423
     15 C           4.3310    0.4765   -0.9767 C.ar    1  LIG1        0.0126
     16 C           5.7250    0.5192   -1.0040 C.ar    1  LIG1       -0.0462
     17 C           3.6474    1.2700   -0.0475 C.ar    1  LIG1       -0.0012
     18 C           6.4291    1.3321   -0.1268 C.ar    1  LIG1       -0.0400
     19 H           6.2742   -0.0935   -1.7080 H       1  LIG1        0.0629
     20 C           4.3595    2.0835    0.8302 C.ar    1  LIG1       -0.0322
     21 C           5.7562    2.1286    0.8064 C.ar    1  LIG1        0.0252
     22 H           3.8069    2.6884    1.5394 H       1  LIG1        0.0642
     23 H           7.5117    1.3430   -0.1578 H       1  LIG1        0.0636
     24 S           3.3665   -0.5676   -2.0586 S.3     1  LIG1       -0.1420
     25 H           4.4087   -0.9955   -2.7779 H       1  LIG1        0.1071
     26 N           6.4617    2.9085    1.7227 N.pl3   1  LIG1       -0.3579
     27 H           7.3905    3.1784    1.4313 H       1  LIG1        0.1423
     28 H           5.9440    3.6831    2.1129 H       1  LIG1        0.1423
@<TRIPOS>BOND
     1    25    24    1
     2    14    12    1
     3    13    12    1
     4    24    15    1
     5    12     7    1
     6    19    16    1
     7     8     6    1
     8    16    15   ar
     9    16    18   ar
    10    15    17   ar
    11     7     6   ar
    12     7     4   ar
    13     6     3   ar
    14    23    18    1
    15    18    21   ar
    16    17     4    1
    17    17    20   ar
    18     4     2   ar
    19     3     9    1
    20     3     1   ar
    21    21    20   ar
    22    21    26    1
    23    20    22    1
    24     2     1   ar
    25     2     5    1
    26     1    10    1
    27    27    26    1
    28    26    28    1
    29    11    10    1
