@<TRIPOS>MOLECULE
mol_data/opt/m06hf/geoms/mol2/4gh4gh-4gh.out
 41 43 0 0 0
SMALL
GASTEIGER

@<TRIPOS>ATOM
      1 C          -0.0340    1.4668    1.2910 C.ar    1  LIG1        0.0054
      2 C           1.3573    1.4584    1.2420 C.ar    1  LIG1       -0.0390
      3 C          -0.7514    1.3448    0.1018 C.ar    1  LIG1       -0.0468
      4 C           2.0323    1.3065    0.0344 C.ar    1  LIG1        0.0049
      5 H           1.9314    1.5601    2.1547 H       1  LIG1        0.0635
      6 C          -0.0927    1.2052   -1.1105 C.ar    1  LIG1       -0.0394
      7 C           1.3078    1.1821   -1.1664 C.ar    1  LIG1        0.0325
      8 H          -0.6595    1.1239   -2.0295 H       1  LIG1        0.0636
      9 H          -1.8336    1.3618    0.1303 H       1  LIG1        0.0629
     10 S          -0.8892    1.6806    2.8510 S.3     1  LIG1       -0.1426
     11 H          -0.8604    0.3964    3.2319 H       1  LIG1        0.1071
     12 N           1.9671    1.0948   -2.3796 N.pl3   1  LIG1       -0.3575
     13 H           2.9390    0.8195   -2.3264 H       1  LIG1        0.1423
     14 H           1.4595    0.6338   -3.1200 H       1  LIG1        0.1423
     15 C           4.2152    0.0682   -0.1253 C.ar    1  LIG1        0.0132
     16 C           5.6074    0.0814   -0.1543 C.ar    1  LIG1       -0.0385
     17 C           3.5284    1.2824    0.0037 C.ar    1  LIG1       -0.0012
     18 C           6.3185    1.2750   -0.0710 C.ar    1  LIG1        0.0049
     19 H           6.1672   -0.8427   -0.2407 H       1  LIG1        0.0635
     20 C           4.2385    2.4756    0.0918 C.ar    1  LIG1       -0.0316
     21 C           5.6362    2.4969    0.0509 C.ar    1  LIG1        0.0330
     22 H           3.6860    3.4033    0.1830 H       1  LIG1        0.0642
     23 S           3.2634   -1.4410   -0.2206 S.3     1  LIG1       -0.1420
     24 H           4.2881   -2.2033   -0.6135 H       1  LIG1        0.1071
     25 N           6.3403    3.6902    0.1686 N.pl3   1  LIG1       -0.3575
     26 H           7.2803    3.6628   -0.2050 H       1  LIG1        0.1423
     27 H           5.8285    4.5162   -0.1058 H       1  LIG1        0.1423
     28 C           8.4804    1.0911   -1.3374 C.ar    1  LIG1        0.0126
     29 C           9.8754    1.0874   -1.3460 C.ar    1  LIG1       -0.0462
     30 C           7.8144    1.2640   -0.1201 C.ar    1  LIG1       -0.0012
     31 C          10.5943    1.2641   -0.1725 C.ar    1  LIG1       -0.0400
     32 H          10.4132    0.9454   -2.2752 H       1  LIG1        0.0629
     33 C           8.5401    1.4517    1.0545 C.ar    1  LIG1       -0.0322
     34 C           9.9372    1.4562    1.0484 C.ar    1  LIG1        0.0252
     35 H           7.9976    1.5940    1.9821 H       1  LIG1        0.0642
     36 H          11.6773    1.2492   -0.1999 H       1  LIG1        0.0636
     37 S           7.4937    0.8978   -2.8127 S.3     1  LIG1       -0.1420
     38 H           8.5301    0.8828   -3.6571 H       1  LIG1        0.1071
     39 N          10.6577    1.5931    2.2340 N.pl3   1  LIG1       -0.3579
     40 H          11.5946    1.9552    2.1321 H       1  LIG1        0.1423
     41 H          10.1567    2.0298    2.9945 H       1  LIG1        0.1423
@<TRIPOS>BOND
     1    38    37    1
     2    14    12    1
     3    37    28    1
     4    12    13    1
     5    12     7    1
     6    32    29    1
     7     8     6    1
     8    29    28   ar
     9    29    31   ar
    10    28    30   ar
    11     7     6   ar
    12     7     4   ar
    13     6     3   ar
    14    24    23    1
    15    19    16    1
    16    23    15    1
    17    26    25    1
    18    36    31    1
    19    31    34   ar
    20    16    15   ar
    21    16    18   ar
    22    15    17   ar
    23    30    18    1
    24    30    33   ar
    25    27    25    1
    26    18    21   ar
    27    17     4    1
    28    17    20   ar
    29     4     2   ar
    30    21    20   ar
    31    21    25    1
    32    20    22    1
    33     3     9    1
    34     3     1   ar
    35    34    33   ar
    36    34    39    1
    37    33    35    1
    38     2     1   ar
    39     2     5    1
    40     1    10    1
    41    40    39    1
    42    39    41    1
    43    10    11    1
