@<TRIPOS>MOLECULE
mol_data/opt/m06hf/geoms/mol2/4gh4gh4gh-.out
 41 43 0 0 0
SMALL
GASTEIGER

@<TRIPOS>ATOM
      1 C          -0.0175    1.4582    1.3538 C.ar    1  LIG1        0.0054
      2 C           1.3731    1.4475    1.2886 C.ar    1  LIG1       -0.0390
      3 C          -0.7490    1.3551    0.1713 C.ar    1  LIG1       -0.0468
      4 C           2.0337    1.3120    0.0711 C.ar    1  LIG1        0.0049
      5 H           1.9579    1.5346    2.1960 H       1  LIG1        0.0635
      6 C          -0.1045    1.2320   -1.0505 C.ar    1  LIG1       -0.0394
      7 C           1.2951    1.2066   -1.1229 C.ar    1  LIG1        0.0325
      8 H          -0.6822    1.1653   -1.9639 H       1  LIG1        0.0636
      9 H          -1.8307    1.3741    0.2126 H       1  LIG1        0.0629
     10 S          -0.8541    1.6505    2.9266 S.3     1  LIG1       -0.1426
     11 H          -0.8244    0.3607    3.2876 H       1  LIG1        0.1071
     12 N           1.9402    1.1358   -2.3450 N.pl3   1  LIG1       -0.3575
     13 H           2.9118    0.8570   -2.3068 H       1  LIG1        0.1423
     14 H           1.4229    0.6859   -3.0855 H       1  LIG1        0.1423
     15 C           4.2115    0.0711   -0.1312 C.ar    1  LIG1        0.0132
     16 C           5.6034    0.0815   -0.1765 C.ar    1  LIG1       -0.0385
     17 C           3.5293    1.2849    0.0225 C.ar    1  LIG1       -0.0012
     18 C           6.3183    1.2723   -0.0853 C.ar    1  LIG1        0.0049
     19 H           6.1599   -0.8426   -0.2821 H       1  LIG1        0.0635
     20 C           4.2432    2.4753    0.1185 C.ar    1  LIG1       -0.0316
     21 C           5.6404    2.4939    0.0613 C.ar    1  LIG1        0.0330
     22 H           3.6941    3.4028    0.2287 H       1  LIG1        0.0642
     23 S           3.2551   -1.4346   -0.2359 S.3     1  LIG1       -0.1420
     24 H           4.2733   -2.1938   -0.6514 H       1  LIG1        0.1071
     25 N           6.3488    3.6838    0.1868 N.pl3   1  LIG1       -0.3575
     26 H           7.2843    3.6594   -0.1981 H       1  LIG1        0.1423
     27 H           5.8358    4.5148   -0.0698 H       1  LIG1        0.1423
     28 C           8.4642    1.1028   -1.3804 C.ar    1  LIG1        0.0126
     29 C           9.8590    1.0963   -1.4061 C.ar    1  LIG1       -0.0462
     30 C           7.8134    1.2586   -0.1526 C.ar    1  LIG1       -0.0012
     31 C          10.5925    1.2536   -0.2389 C.ar    1  LIG1       -0.0400
     32 H          10.3851    0.9673   -2.3439 H       1  LIG1        0.0629
     33 C           8.5538    1.4268    1.0158 C.ar    1  LIG1       -0.0322
     34 C           9.9507    1.4284    0.9927 C.ar    1  LIG1        0.0252
     35 H           8.0230    1.5561    1.9520 H       1  LIG1        0.0642
     36 H          11.6751    1.2367   -0.2797 H       1  LIG1        0.0636
     37 S           7.4591    0.9342   -2.8463 S.3     1  LIG1       -0.1420
     38 H           8.4850    0.9303   -3.7035 H       1  LIG1        0.1071
     39 N          10.6859    1.5456    2.1715 N.pl3   1  LIG1       -0.3579
     40 H          11.6225    1.9070    2.0635 H       1  LIG1        0.1423
     41 H          10.1953    1.9724    2.9442 H       1  LIG1        0.1423
@<TRIPOS>BOND
     1    38    37    1
     2    14    12    1
     3    37    28    1
     4    12    13    1
     5    12     7    1
     6    32    29    1
     7     8     6    1
     8    29    28   ar
     9    29    31   ar
    10    28    30   ar
    11     7     6   ar
    12     7     4   ar
    13     6     3   ar
    14    24    23    1
    15    19    16    1
    16    36    31    1
    17    31    34   ar
    18    23    15    1
    19    26    25    1
    20    16    15   ar
    21    16    18   ar
    22    30    18    1
    23    30    33   ar
    24    15    17   ar
    25    18    21   ar
    26    27    25    1
    27    17     4    1
    28    17    20   ar
    29    21    20   ar
    30    21    25    1
    31     4     2   ar
    32    20    22    1
    33     3     9    1
    34     3     1   ar
    35    34    33   ar
    36    34    39    1
    37    33    35    1
    38     2     1   ar
    39     2     5    1
    40     1    10    1
    41    40    39    1
    42    39    41    1
    43    10    11    1
