@<TRIPOS>MOLECULE
mol_data/opt/m06hf/geoms/mol2/4gi.out
 16 16 0 0 0
SMALL
GASTEIGER

@<TRIPOS>ATOM
      1 C           0.0857    0.0188    0.0169 C.ar    1  LIG1        0.0048
      2 C           1.4791    0.0127    0.0280 C.ar    1  LIG1       -0.0483
      3 C          -0.5930    1.2374    0.0077 C.ar    1  LIG1       -0.0483
      4 C           2.1791    1.2155    0.0247 C.ar    1  LIG1       -0.0578
      5 H           2.0228   -0.9234    0.0448 H       1  LIG1        0.0629
      6 C           0.1192    2.4309    0.0114 C.ar    1  LIG1       -0.0578
      7 C           1.5147    2.4412    0.0162 C.ar    1  LIG1       -0.0504
      8 H          -0.4217    3.3698    0.0083 H       1  LIG1        0.0621
      9 H           3.2625    1.1952    0.0333 H       1  LIG1        0.0621
     10 H          -1.6758    1.2526   -0.0023 H       1  LIG1        0.0629
     11 S          -0.8915   -1.4721    0.0352 S.3     1  LIG1       -0.1426
     12 H           0.1264   -2.3210   -0.1317 H       1  LIG1        0.1071
     13 C           2.2856    3.7484   -0.0157 C.3     1  LIG1       -0.0397
     14 H           1.7277    4.5344    0.4931 H       1  LIG1        0.0278
     15 H           2.4567    4.0617   -1.0476 H       1  LIG1        0.0278
     16 H           3.2528    3.6354    0.4736 H       1  LIG1        0.0278
@<TRIPOS>BOND
     1    15    13    1
     2    12    11    1
     3    13     7    1
     4    13    16    1
     5    13    14    1
     6    10     3    1
     7     3     6   ar
     8     3     1   ar
     9     8     6    1
    10     6     7   ar
    11     7     4   ar
    12     1     2   ar
    13     1    11    1
    14     4     2   ar
    15     4     9    1
    16     2     5    1
