@<TRIPOS>MOLECULE
mol_data/opt/m06hf/geoms/mol2/4gi4gi.out
 30 31 0 0 0
SMALL
GASTEIGER

@<TRIPOS>ATOM
      1 C           0.1088    0.4341   -1.1277 C.ar    1  LIG1        0.0053
      2 C           1.4975    0.4780   -1.0145 C.ar    1  LIG1       -0.0406
      3 C          -0.6704    1.2247   -0.2881 C.ar    1  LIG1       -0.0483
      4 C           2.1003    1.2964   -0.0617 C.ar    1  LIG1       -0.0129
      5 H           2.1241   -0.1213   -1.6642 H       1  LIG1        0.0635
      6 C          -0.0604    2.0585    0.6450 C.ar    1  LIG1       -0.0572
      7 C           1.3252    2.1089    0.7806 C.ar    1  LIG1       -0.0426
      8 H          -0.6778    2.6753    1.2868 H       1  LIG1        0.0621
      9 H          -1.7499    1.1835   -0.3580 H       1  LIG1        0.0629
     10 S          -0.7180   -0.5564   -2.3614 S.3     1  LIG1       -0.1426
     11 H           0.1584   -1.5650   -2.3711 H       1  LIG1        0.1071
     12 C           1.9850    3.0097    1.8064 C.3     1  LIG1       -0.0391
     13 H           1.2378    3.6320    2.2975 H       1  LIG1        0.0278
     14 H           2.7250    3.6527    1.3275 H       1  LIG1        0.0278
     15 H           2.4955    2.4066    2.5600 H       1  LIG1        0.0278
     16 C           4.2494    0.5256    0.9956 C.ar    1  LIG1        0.0125
     17 C           5.6422    0.5595    1.0746 C.ar    1  LIG1       -0.0477
     18 C           3.5957    1.3101    0.0405 C.ar    1  LIG1       -0.0042
     19 C           6.3719    1.3664    0.2107 C.ar    1  LIG1       -0.0578
     20 H           6.1603   -0.0444    1.8090 H       1  LIG1        0.0629
     21 C           4.3479    2.1079   -0.8223 C.ar    1  LIG1       -0.0501
     22 C           5.7389    2.1506   -0.7549 C.ar    1  LIG1       -0.0498
     23 H           3.8209    2.7072   -1.5566 H       1  LIG1        0.0627
     24 H           7.4528    1.3829    0.2878 H       1  LIG1        0.0621
     25 S           3.2489   -0.4976    2.0596 S.3     1  LIG1       -0.1420
     26 H           4.2660   -0.9238    2.8142 H       1  LIG1        0.1071
     27 C           6.5463    3.0000   -1.7193 C.3     1  LIG1       -0.0397
     28 H           5.9409    3.8168   -2.1107 H       1  LIG1        0.0278
     29 H           6.8905    2.3927   -2.5590 H       1  LIG1        0.0278
     30 H           7.4189    3.4206   -1.2194 H       1  LIG1        0.0278
@<TRIPOS>BOND
     1    29    27    1
     2    11    10    1
     3    10     1    1
     4    28    27    1
     5    27    30    1
     6    27    22    1
     7     5     2    1
     8    23    21    1
     9     1     2   ar
    10     1     3   ar
    11     2     4   ar
    12    21    22   ar
    13    21    18   ar
    14    22    19   ar
    15     9     3    1
    16     3     6   ar
    17     4    18    1
    18     4     7   ar
    19    18    16   ar
    20    19    24    1
    21    19    17   ar
    22     6     7   ar
    23     6     8    1
    24     7    12    1
    25    16    17   ar
    26    16    25    1
    27    17    20    1
    28    14    12    1
    29    12    13    1
    30    12    15    1
    31    25    26    1
