@<TRIPOS>MOLECULE
mol_data/opt/m06hf/geoms/mol2/4gi4gi-.out
 30 31 0 0 0
SMALL
GASTEIGER

@<TRIPOS>ATOM
      1 C           0.0882    0.4287   -1.0753 C.ar    1  LIG1        0.0053
      2 C           1.4782    0.4744   -0.9848 C.ar    1  LIG1       -0.0406
      3 C          -0.6772    1.2196   -0.2226 C.ar    1  LIG1       -0.0483
      4 C           2.0960    1.2956   -0.0440 C.ar    1  LIG1       -0.0129
      5 H           2.0964   -0.1265   -1.6412 H       1  LIG1        0.0635
      6 C          -0.0524    2.0527    0.7005 C.ar    1  LIG1       -0.0572
      7 C           1.3353    2.1058    0.8124 C.ar    1  LIG1       -0.0426
      8 H          -0.6598    2.6679    1.3533 H       1  LIG1        0.0621
      9 H          -1.7579    1.1790   -0.2735 H       1  LIG1        0.0629
     10 S          -0.7609   -0.5713   -2.2837 S.3     1  LIG1       -0.1426
     11 H           0.2052   -1.4822   -2.4355 H       1  LIG1        0.1071
     12 C           2.0123    3.0049    1.8282 C.3     1  LIG1       -0.0391
     13 H           1.2723    3.6171    2.3425 H       1  LIG1        0.0278
     14 H           2.7347    3.6580    1.3364 H       1  LIG1        0.0278
     15 H           2.5465    2.4007    2.5645 H       1  LIG1        0.0278
     16 C           4.2636    0.5150    0.9658 C.ar    1  LIG1        0.0125
     17 C           5.6580    0.5456    1.0174 C.ar    1  LIG1       -0.0477
     18 C           3.5929    1.3093    0.0316 C.ar    1  LIG1       -0.0042
     19 C           6.3716    1.3598    0.1478 C.ar    1  LIG1       -0.0578
     20 H           6.1892   -0.0670    1.7350 H       1  LIG1        0.0629
     21 C           4.3293    2.1154   -0.8374 C.ar    1  LIG1       -0.0501
     22 C           5.7208    2.1556   -0.7967 C.ar    1  LIG1       -0.0498
     23 H           3.7889    2.7224   -1.5553 H       1  LIG1        0.0627
     24 H           7.4539    1.3735    0.2030 H       1  LIG1        0.0621
     25 S           3.2820   -0.5152    2.0402 S.3     1  LIG1       -0.1420
     26 H           4.3136   -0.9509    2.7693 H       1  LIG1        0.1071
     27 C           6.5128    3.0161   -1.7639 C.3     1  LIG1       -0.0397
     28 H           5.8793    3.7898   -2.1964 H       1  LIG1        0.0278
     29 H           6.9120    2.4031   -2.5743 H       1  LIG1        0.0278
     30 H           7.3483    3.4948   -1.2524 H       1  LIG1        0.0278
@<TRIPOS>BOND
     1    29    27    1
     2    11    10    1
     3    10     1    1
     4    28    27    1
     5    27    30    1
     6    27    22    1
     7     5     2    1
     8    23    21    1
     9     1     2   ar
    10     1     3   ar
    11     2     4   ar
    12    21    22   ar
    13    21    18   ar
    14    22    19   ar
    15     9     3    1
    16     3     6   ar
    17     4    18    1
    18     4     7   ar
    19    18    16   ar
    20    19    24    1
    21    19    17   ar
    22     6     7   ar
    23     6     8    1
    24     7    12    1
    25    16    17   ar
    26    16    25    1
    27    17    20    1
    28    14    12    1
    29    12    13    1
    30    12    15    1
    31    25    26    1
