@<TRIPOS>MOLECULE
mol_data/opt/m06hf/geoms/mol2/4gi4gi4gi-4gi.out
 58 61 0 0 0
SMALL
GASTEIGER

@<TRIPOS>ATOM
      1 C          -0.1528    2.4652   -0.9967 C.ar    1  LIG1        0.0053
      2 C           1.2396    2.4586   -0.9325 C.ar    1  LIG1       -0.0406
      3 C          -0.8786    1.5436   -0.2495 C.ar    1  LIG1       -0.0483
      4 C           1.9030    1.5205   -0.1449 C.ar    1  LIG1       -0.0129
      5 H           1.8134    3.1830   -1.4974 H       1  LIG1        0.0635
      6 C          -0.2110    0.6163    0.5478 C.ar    1  LIG1       -0.0572
      7 C           1.1806    0.5829    0.6097 C.ar    1  LIG1       -0.0426
      8 H          -0.7843   -0.0979    1.1261 H       1  LIG1        0.0621
      9 H          -1.9597    1.5508   -0.2974 H       1  LIG1        0.0629
     10 S          -1.0151    3.6848   -1.9910 S.3     1  LIG1       -0.1426
     11 H          -0.6971    3.1561   -3.1785 H       1  LIG1        0.1071
     12 C           1.9073   -0.4379    1.4644 C.3     1  LIG1       -0.0391
     13 H           1.1913   -1.0584    2.0019 H       1  LIG1        0.0278
     14 H           2.5584    0.0618    2.1834 H       1  LIG1        0.0278
     15 H           2.5288   -1.0769    0.8338 H       1  LIG1        0.0278
     16 C           4.1307    0.7149   -0.9811 C.ar    1  LIG1        0.0130
     17 C           5.5238    0.7280   -0.9231 C.ar    1  LIG1       -0.0400
     18 C           3.4010    1.5242   -0.1068 C.ar    1  LIG1       -0.0042
     19 C           6.1863    1.5370   -0.0032 C.ar    1  LIG1       -0.0129
     20 H           6.1125    0.1078   -1.5884 H       1  LIG1        0.0635
     21 C           4.0792    2.3354    0.8039 C.ar    1  LIG1       -0.0495
     22 C           5.4696    2.3586    0.8785 C.ar    1  LIG1       -0.0421
     23 H           3.4933    2.9587    1.4699 H       1  LIG1        0.0627
     24 S           3.2213   -0.2907   -2.1365 S.3     1  LIG1       -0.1420
     25 H           4.2980   -0.9085   -2.6359 H       1  LIG1        0.1071
     26 C           6.1927    3.2374    1.8812 C.3     1  LIG1       -0.0391
     27 H           5.4769    3.8452    2.4332 H       1  LIG1        0.0278
     28 H           6.9006    3.8937    1.3722 H       1  LIG1        0.0278
     29 H           6.7519    2.6192    2.5867 H       1  LIG1        0.0278
     30 C           8.3563    0.6824    0.9306 C.ar    1  LIG1        0.0130
     31 C           9.7509    0.6875    0.9551 C.ar    1  LIG1       -0.0400
     32 C           7.6839    1.5168    0.0340 C.ar    1  LIG1       -0.0042
     33 C          10.4715    1.5123    0.0951 C.ar    1  LIG1       -0.0129
     34 H          10.2954    0.0535    1.6448 H       1  LIG1        0.0635
     35 C           8.4195    2.3318   -0.8272 C.ar    1  LIG1       -0.0495
     36 C           9.8115    2.3501   -0.8160 C.ar    1  LIG1       -0.0421
     37 H           7.8774    2.9688   -1.5171 H       1  LIG1        0.0627
     38 S           7.3768   -0.3604    1.9935 S.3     1  LIG1       -0.1420
     39 H           8.4141   -0.8616    2.6727 H       1  LIG1        0.1071
     40 C          10.5973    3.2505   -1.7490 C.3     1  LIG1       -0.0391
     41 H           9.9197    3.8023   -2.3994 H       1  LIG1        0.0278
     42 H          11.2798    2.6609   -2.3632 H       1  LIG1        0.0278
     43 H          11.1900    3.9609   -1.1690 H       1  LIG1        0.0278
     44 C          12.6511    2.4284    0.9457 C.ar    1  LIG1        0.0125
     45 C          14.0460    2.4013    0.9870 C.ar    1  LIG1       -0.0477
     46 C          11.9689    1.4971    0.1579 C.ar    1  LIG1       -0.0042
     47 C          14.7479    1.4593    0.2457 C.ar    1  LIG1       -0.0578
     48 H          14.5864    3.1133    1.5981 H       1  LIG1        0.0629
     49 C          12.6927    0.5540   -0.5732 C.ar    1  LIG1       -0.0501
     50 C          14.0846    0.5183   -0.5444 C.ar    1  LIG1       -0.0498
     51 H          12.1428   -0.1583   -1.1783 H       1  LIG1        0.0627
     52 H          15.8312    1.4556    0.2842 H       1  LIG1        0.0621
     53 S          11.6786    3.6006    1.8720 S.3     1  LIG1       -0.1420
     54 H          12.7182    4.3426    2.2695 H       1  LIG1        0.1071
     55 C          14.8626   -0.5241   -1.3264 C.3     1  LIG1       -0.0397
     56 H          14.2397   -0.9648   -2.1041 H       1  LIG1        0.0278
     57 H          15.1998   -1.3211   -0.6610 H       1  LIG1        0.0278
     58 H          15.7390   -0.0744   -1.7941 H       1  LIG1        0.0278
@<TRIPOS>BOND
     1    11    10    1
     2    25    24    1
     3    41    40    1
     4    42    40    1
     5    24    16    1
     6    56    55    1
     7    10     1    1
     8    58    55    1
     9    40    43    1
    10    40    36    1
    11    20    17    1
    12    37    35    1
    13     5     2    1
    14    55    57    1
    15    55    50    1
    16    51    49    1
    17     1     2   ar
    18     1     3   ar
    19    16    17   ar
    20    16    18   ar
    21     2     4   ar
    22    17    19   ar
    23    35    36   ar
    24    35    32   ar
    25    36    33   ar
    26    49    50   ar
    27    49    46   ar
    28    50    47   ar
    29     9     3    1
    30     3     6   ar
    31     4    18    1
    32     4     7   ar
    33    18    21   ar
    34    19    32    1
    35    19    22   ar
    36    32    30   ar
    37    33    46    1
    38    33    31   ar
    39    46    44   ar
    40    47    52    1
    41    47    45   ar
    42     6     7   ar
    43     6     8    1
    44     7    12    1
    45    21    22   ar
    46    21    23    1
    47    15    12    1
    48    22    26    1
    49    30    31   ar
    50    30    38    1
    51    44    45   ar
    52    44    53    1
    53    31    34    1
    54    45    48    1
    55    28    26    1
    56    12    13    1
    57    12    14    1
    58    53    54    1
    59    26    27    1
    60    26    29    1
    61    38    39    1
