@<TRIPOS>MOLECULE
mol_data/opt/m06hf/geoms/mol2/4gi4gi4gi4gi.out
 58 61 0 0 0
SMALL
GASTEIGER

@<TRIPOS>ATOM
      1 C          -0.1620    2.4619   -0.9133 C.ar    1  LIG1        0.0053
      2 C           1.2309    2.4540   -0.8703 C.ar    1  LIG1       -0.0406
      3 C          -0.8765    1.5065   -0.1978 C.ar    1  LIG1       -0.0483
      4 C           1.9069    1.4862   -0.1299 C.ar    1  LIG1       -0.0129
      5 H           1.7943    3.2025   -1.4135 H       1  LIG1        0.0635
      6 C          -0.1970    0.5448    0.5462 C.ar    1  LIG1       -0.0572
      7 C           1.1957    0.5157    0.5932 C.ar    1  LIG1       -0.0426
      8 H          -0.7610   -0.1943    1.1020 H       1  LIG1        0.0621
      9 H          -1.9584    1.5199   -0.2233 H       1  LIG1        0.0629
     10 S          -1.0317    3.7378   -1.8281 S.3     1  LIG1       -0.1426
     11 H          -0.9460    3.1558   -3.0311 H       1  LIG1        0.1071
     12 C           1.9334   -0.5292    1.4084 C.3     1  LIG1       -0.0391
     13 H           1.2247   -1.1574    1.9466 H       1  LIG1        0.0278
     14 H           2.6014   -0.0483    2.1250 H       1  LIG1        0.0278
     15 H           2.5381   -1.1577    0.7515 H       1  LIG1        0.0278
     16 C           4.1402    0.6828   -0.9617 C.ar    1  LIG1        0.0130
     17 C           5.5332    0.7080   -0.9056 C.ar    1  LIG1       -0.0400
     18 C           3.4049    1.5016   -0.1008 C.ar    1  LIG1       -0.0042
     19 C           6.1905    1.5413   -0.0038 C.ar    1  LIG1       -0.0129
     20 H           6.1261    0.0786   -1.5586 H       1  LIG1        0.0635
     21 C           4.0781    2.3378    0.7906 C.ar    1  LIG1       -0.0495
     22 C           5.4683    2.3755    0.8611 C.ar    1  LIG1       -0.0421
     23 H           3.4879    2.9685    1.4459 H       1  LIG1        0.0627
     24 S           3.2395   -0.3465   -2.1031 S.3     1  LIG1       -0.1420
     25 H           4.3182   -0.9689   -2.5872 H       1  LIG1        0.1071
     26 C           6.1861    3.2827    1.8419 C.3     1  LIG1       -0.0391
     27 H           5.4643    3.8676    2.4106 H       1  LIG1        0.0278
     28 H           6.8563    3.9616    1.3123 H       1  LIG1        0.0278
     29 H           6.7855    2.6873    2.5338 H       1  LIG1        0.0278
     30 C           8.3635    0.6967    0.9297 C.ar    1  LIG1        0.0130
     31 C           9.7579    0.7057    0.9538 C.ar    1  LIG1       -0.0400
     32 C           7.6884    1.5309    0.0350 C.ar    1  LIG1       -0.0042
     33 C          10.4753    1.5367    0.0968 C.ar    1  LIG1       -0.0129
     34 H          10.3047    0.0712    1.6413 H       1  LIG1        0.0635
     35 C           8.4206    2.3550   -0.8202 C.ar    1  LIG1       -0.0495
     36 C           9.8127    2.3784   -0.8082 C.ar    1  LIG1       -0.0421
     37 H           7.8763    2.9930   -1.5073 H       1  LIG1        0.0627
     38 S           7.3845   -0.3424    1.9960 S.3     1  LIG1       -0.1420
     39 H           8.4244   -0.8731    2.6472 H       1  LIG1        0.1071
     40 C          10.5951    3.2873   -1.7359 C.3     1  LIG1       -0.0391
     41 H           9.9154    3.8384   -2.3847 H       1  LIG1        0.0278
     42 H          11.2813    2.7038   -2.3518 H       1  LIG1        0.0278
     43 H          11.1838    3.9983   -1.1527 H       1  LIG1        0.0278
     44 C          12.6611    2.4343    0.9565 C.ar    1  LIG1        0.0125
     45 C          14.0562    2.4033    0.9911 C.ar    1  LIG1       -0.0477
     46 C          11.9732    1.5198    0.1541 C.ar    1  LIG1       -0.0042
     47 C          14.7527    1.4745    0.2283 C.ar    1  LIG1       -0.0578
     48 H          14.6009    3.1030    1.6124 H       1  LIG1        0.0629
     49 C          12.6917    0.5899   -0.5988 C.ar    1  LIG1       -0.0501
     50 C          14.0837    0.5505   -0.5768 C.ar    1  LIG1       -0.0498
     51 H          12.1377   -0.1094   -1.2152 H       1  LIG1        0.0627
     52 H          15.8362    1.4677    0.2619 H       1  LIG1        0.0621
     53 S          11.6960    3.5942    1.9057 S.3     1  LIG1       -0.1420
     54 H          12.7424    4.3106    2.3307 H       1  LIG1        0.1071
     55 C          14.8556   -0.4797   -1.3812 C.3     1  LIG1       -0.0397
     56 H          14.2359   -0.8869   -2.1794 H       1  LIG1        0.0278
     57 H          15.1717   -1.3017   -0.7361 H       1  LIG1        0.0278
     58 H          15.7446   -0.0298   -1.8239 H       1  LIG1        0.0278
@<TRIPOS>BOND
     1    11    10    1
     2    25    24    1
     3    41    40    1
     4    42    40    1
     5    56    55    1
     6    24    16    1
     7    10     1    1
     8    58    55    1
     9    40    43    1
    10    40    36    1
    11    20    17    1
    12    37    35    1
    13     5     2    1
    14    55    57    1
    15    55    50    1
    16    51    49    1
    17    16    17   ar
    18    16    18   ar
    19     1     2   ar
    20     1     3   ar
    21    17    19   ar
    22     2     4   ar
    23    35    36   ar
    24    35    32   ar
    25    36    33   ar
    26    49    50   ar
    27    49    46   ar
    28    50    47   ar
    29     9     3    1
    30     3     6   ar
    31     4    18    1
    32     4     7   ar
    33    18    21   ar
    34    19    32    1
    35    19    22   ar
    36    32    30   ar
    37    33    46    1
    38    33    31   ar
    39    46    44   ar
    40    47    52    1
    41    47    45   ar
    42     6     7   ar
    43     6     8    1
    44     7    12    1
    45    15    12    1
    46    21    22   ar
    47    21    23    1
    48    22    26    1
    49    30    31   ar
    50    30    38    1
    51    31    34    1
    52    44    45   ar
    53    44    53    1
    54    45    48    1
    55    28    26    1
    56    12    13    1
    57    12    14    1
    58    26    27    1
    59    26    29    1
    60    53    54    1
    61    38    39    1
