@<TRIPOS>MOLECULE
mol_data/opt/m06hf/geoms/mol2/4gi4gi-4gi.out
 44 46 0 0 0
SMALL
GASTEIGER

@<TRIPOS>ATOM
      1 C          -0.0284    1.4787   -1.4466 C.ar    1  LIG1        0.0053
      2 C           1.3637    1.5032   -1.3747 C.ar    1  LIG1       -0.0406
      3 C          -0.7741    1.3671   -0.2783 C.ar    1  LIG1       -0.0483
      4 C           2.0057    1.3853   -0.1447 C.ar    1  LIG1       -0.0129
      5 H           1.9542    1.6098   -2.2765 H       1  LIG1        0.0635
      6 C          -0.1270    1.2692    0.9519 C.ar    1  LIG1       -0.0572
      7 C           1.2631    1.2682    1.0415 C.ar    1  LIG1       -0.0426
      8 H          -0.7160    1.1831    1.8567 H       1  LIG1        0.0621
      9 H          -1.8549    1.3484   -0.3336 H       1  LIG1        0.0629
     10 S          -0.8691    1.6373   -3.0238 S.3     1  LIG1       -0.1426
     11 H          -0.4296    0.4818   -3.5337 H       1  LIG1        0.1071
     12 C           1.9669    1.1341    2.3780 C.3     1  LIG1       -0.0391
     13 H           1.2424    1.1622    3.1911 H       1  LIG1        0.0278
     14 H           2.6883    1.9416    2.5125 H       1  LIG1        0.0278
     15 H           2.5092    0.1869    2.4174 H       1  LIG1        0.0278
     16 C           4.2209    0.1990   -0.0785 C.ar    1  LIG1        0.0130
     17 C           5.6136    0.2360   -0.0107 C.ar    1  LIG1       -0.0400
     18 C           3.5032    1.3976   -0.0936 C.ar    1  LIG1       -0.0042
     19 C           6.2874    1.4539    0.0412 C.ar    1  LIG1       -0.0129
     20 H           6.1920   -0.6799    0.0055 H       1  LIG1        0.0635
     21 C           4.1928    2.6098   -0.0522 C.ar    1  LIG1       -0.0495
     22 C           5.5824    2.6659    0.0168 C.ar    1  LIG1       -0.0421
     23 H           3.6167    3.5280   -0.0689 H       1  LIG1        0.0627
     24 S           3.2959   -1.3202   -0.1665 S.3     1  LIG1       -0.1420
     25 H           4.3531   -2.1261   -0.0242 H       1  LIG1        0.1071
     26 C           6.3160    3.9922    0.0672 C.3     1  LIG1       -0.0391
     27 H           5.6052    4.8162    0.0204 H       1  LIG1        0.0278
     28 H           7.0111    4.0740   -0.7700 H       1  LIG1        0.0278
     29 H           6.8884    4.0698    0.9937 H       1  LIG1        0.0278
     30 C           8.4258    1.5518    1.3593 C.ar    1  LIG1        0.0125
     31 C           9.8201    1.5642    1.4096 C.ar    1  LIG1       -0.0477
     32 C           7.7838    1.4542    0.1210 C.ar    1  LIG1       -0.0042
     33 C          10.5623    1.4806    0.2378 C.ar    1  LIG1       -0.0578
     34 H          10.3298    1.6379    2.3623 H       1  LIG1        0.0629
     35 C           8.5478    1.3619   -1.0427 C.ar    1  LIG1       -0.0501
     36 C           9.9405    1.3723   -1.0070 C.ar    1  LIG1       -0.0498
     37 H           8.0294    1.2860   -1.9924 H       1  LIG1        0.0627
     38 H          11.6447    1.4956    0.2947 H       1  LIG1        0.0621
     39 S           7.4037    1.6418    2.8170 S.3     1  LIG1       -0.1420
     40 H           8.4111    1.8465    3.6704 H       1  LIG1        0.1071
     41 C          10.7589    1.2424   -2.2788 C.3     1  LIG1       -0.0397
     42 H          10.1811    1.5711   -3.1421 H       1  LIG1        0.0278
     43 H          11.0503    0.2021   -2.4350 H       1  LIG1        0.0278
     44 H          11.6644    1.8460   -2.2147 H       1  LIG1        0.0278
@<TRIPOS>BOND
     1    11    10    1
     2    42    41    1
     3    10     1    1
     4    43    41    1
     5    41    44    1
     6    41    36    1
     7     5     2    1
     8    37    35    1
     9     1     2   ar
    10     1     3   ar
    11     2     4   ar
    12    35    36   ar
    13    35    32   ar
    14    36    33   ar
    15    28    26    1
    16     9     3    1
    17     3     6   ar
    18    24    16    1
    19    24    25    1
    20     4    18    1
    21     4     7   ar
    22    18    16   ar
    23    18    21   ar
    24    16    17   ar
    25    23    21    1
    26    21    22   ar
    27    17    20    1
    28    17    19   ar
    29    22    19   ar
    30    22    26    1
    31    27    26    1
    32    19    32    1
    33    26    29    1
    34    32    30   ar
    35    33    38    1
    36    33    31   ar
    37     6     7   ar
    38     6     8    1
    39     7    12    1
    40    30    31   ar
    41    30    39    1
    42    31    34    1
    43    12    15    1
    44    12    14    1
    45    12    13    1
    46    39    40    1
