@<TRIPOS>MOLECULE
mol_data/opt/m06hf/geoms/mol2/4gi4gi4gi.out
 44 46 0 0 0
SMALL
GASTEIGER

@<TRIPOS>ATOM
      1 C          -0.0088    1.5089   -1.4687 C.ar    1  LIG1        0.0053
      2 C           1.3819    1.5063   -1.3952 C.ar    1  LIG1       -0.0406
      3 C          -0.7595    1.4010   -0.3017 C.ar    1  LIG1       -0.0483
      4 C           2.0208    1.3774   -0.1626 C.ar    1  LIG1       -0.0129
      5 H           1.9721    1.5981   -2.2982 H       1  LIG1        0.0635
      6 C          -0.1174    1.2636    0.9257 C.ar    1  LIG1       -0.0572
      7 C           1.2740    1.2477    1.0177 C.ar    1  LIG1       -0.0426
      8 H          -0.7085    1.1735    1.8287 H       1  LIG1        0.0621
      9 H          -1.8404    1.4250   -0.3571 H       1  LIG1        0.0629
     10 S          -0.8195    1.6996   -3.0599 S.3     1  LIG1       -0.1426
     11 H          -1.0376    0.3958   -3.2709 H       1  LIG1        0.1071
     12 C           1.9718    1.0888    2.3547 C.3     1  LIG1       -0.0391
     13 H           1.2443    1.1042    3.1655 H       1  LIG1        0.0278
     14 H           2.6947    1.8919    2.5060 H       1  LIG1        0.0278
     15 H           2.5119    0.1398    2.3793 H       1  LIG1        0.0278
     16 C           4.2384    0.1900   -0.1120 C.ar    1  LIG1        0.0130
     17 C           5.6309    0.2290   -0.0389 C.ar    1  LIG1       -0.0400
     18 C           3.5181    1.3870   -0.1059 C.ar    1  LIG1       -0.0042
     19 C           6.3017    1.4471    0.0397 C.ar    1  LIG1       -0.0129
     20 H           6.2113   -0.6858   -0.0393 H       1  LIG1        0.0635
     21 C           4.2050    2.5996   -0.0372 C.ar    1  LIG1       -0.0495
     22 C           5.5940    2.6576    0.0384 C.ar    1  LIG1       -0.0421
     23 H           3.6269    3.5167   -0.0376 H       1  LIG1        0.0627
     24 S           3.3174   -1.3296   -0.2315 S.3     1  LIG1       -0.1420
     25 H           4.3769   -2.1355   -0.1066 H       1  LIG1        0.1071
     26 C           6.3239    3.9843    0.1210 C.3     1  LIG1       -0.0391
     27 H           5.6117    4.8076    0.0800 H       1  LIG1        0.0278
     28 H           7.0293    4.0826   -0.7055 H       1  LIG1        0.0278
     29 H           6.8844    4.0468    1.0560 H       1  LIG1        0.0278
     30 C           8.4350    1.5177    1.3676 C.ar    1  LIG1        0.0125
     31 C           9.8290    1.5374    1.4233 C.ar    1  LIG1       -0.0477
     32 C           7.7978    1.4510    0.1247 C.ar    1  LIG1       -0.0042
     33 C          10.5757    1.4923    0.2522 C.ar    1  LIG1       -0.0578
     34 H          10.3349    1.5875    2.3795 H       1  LIG1        0.0629
     35 C           8.5664    1.3972   -1.0385 C.ar    1  LIG1       -0.0501
     36 C           9.9588    1.4160   -0.9974 C.ar    1  LIG1       -0.0498
     37 H           8.0516    1.3456   -1.9918 H       1  LIG1        0.0627
     38 H          11.6577    1.5131    0.3134 H       1  LIG1        0.0621
     39 S           7.4070    1.5621    2.8233 S.3     1  LIG1       -0.1420
     40 H           8.4105    1.7442    3.6862 H       1  LIG1        0.1071
     41 C          10.7825    1.3297   -2.2695 C.3     1  LIG1       -0.0397
     42 H          10.2042    1.6769   -3.1252 H       1  LIG1        0.0278
     43 H          11.0845    0.2970   -2.4539 H       1  LIG1        0.0278
     44 H          11.6818    1.9400   -2.1854 H       1  LIG1        0.0278
@<TRIPOS>BOND
     1    11    10    1
     2    42    41    1
     3    10     1    1
     4    43    41    1
     5     5     2    1
     6    41    44    1
     7    41    36    1
     8    37    35    1
     9     1     2   ar
    10     1     3   ar
    11     2     4   ar
    12    35    36   ar
    13    35    32   ar
    14    36    33   ar
    15    28    26    1
    16     9     3    1
    17     3     6   ar
    18    24    16    1
    19    24    25    1
    20     4    18    1
    21     4     7   ar
    22    16    18   ar
    23    16    17   ar
    24    18    21   ar
    25    20    17    1
    26    17    19   ar
    27    23    21    1
    28    21    22   ar
    29    22    19   ar
    30    22    26    1
    31    19    32    1
    32    27    26    1
    33    26    29    1
    34    32    30   ar
    35    33    38    1
    36    33    31   ar
    37     6     7   ar
    38     6     8    1
    39     7    12    1
    40    30    31   ar
    41    30    39    1
    42    31    34    1
    43    12    15    1
    44    12    14    1
    45    12    13    1
    46    39    40    1
