@<TRIPOS>MOLECULE
mol_data/opt/m06hf/geoms/mol2/4gi4gi-4gi4gi-.out
 58 61 0 0 0
SMALL
GASTEIGER

@<TRIPOS>ATOM
      1 C          -0.1509    2.4416   -1.0260 C.ar    1  LIG1        0.0053
      2 C           1.2413    2.4383   -0.9560 C.ar    1  LIG1       -0.0406
      3 C          -0.8783    1.5331   -0.2650 C.ar    1  LIG1       -0.0483
      4 C           1.9026    1.5148   -0.1497 C.ar    1  LIG1       -0.0129
      5 H           1.8168    3.1523   -1.5323 H       1  LIG1        0.0635
      6 C          -0.2128    0.6214    0.5519 C.ar    1  LIG1       -0.0572
      7 C           1.1784    0.5899    0.6188 C.ar    1  LIG1       -0.0426
      8 H          -0.7877   -0.0830    1.1406 H       1  LIG1        0.0621
      9 H          -1.9592    1.5372   -0.3183 H       1  LIG1        0.0629
     10 S          -1.0115    3.6358   -2.0521 S.3     1  LIG1       -0.1426
     11 H          -0.6644    3.0923   -3.2246 H       1  LIG1        0.1071
     12 C           1.9036   -0.4155    1.4927 C.3     1  LIG1       -0.0391
     13 H           1.1869   -1.0327    2.0329 H       1  LIG1        0.0278
     14 H           2.5462    0.0973    2.2103 H       1  LIG1        0.0278
     15 H           2.5336   -1.0593    0.8756 H       1  LIG1        0.0278
     16 C           4.1291    0.6982   -0.9751 C.ar    1  LIG1        0.0130
     17 C           5.5224    0.7148   -0.9215 C.ar    1  LIG1       -0.0400
     18 C           3.4005    1.5189   -0.1109 C.ar    1  LIG1       -0.0042
     19 C           6.1858    1.5381   -0.0151 C.ar    1  LIG1       -0.0129
     20 H           6.1105    0.0864   -1.5797 H       1  LIG1        0.0635
     21 C           4.0794    2.3438    0.7868 C.ar    1  LIG1       -0.0495
     22 C           5.4699    2.3696    0.8579 C.ar    1  LIG1       -0.0421
     23 H           3.4940    2.9752    1.4457 H       1  LIG1        0.0627
     24 S           3.2179   -0.3258   -2.1123 S.3     1  LIG1       -0.1420
     25 H           4.2921   -0.9572   -2.5967 H       1  LIG1        0.1071
     26 C           6.1944    3.2610    1.8483 C.3     1  LIG1       -0.0391
     27 H           5.4780    3.8614    2.4075 H       1  LIG1        0.0278
     28 H           6.8872    3.9250    1.3287 H       1  LIG1        0.0278
     29 H           6.7705    2.6521    2.5480 H       1  LIG1        0.0278
     30 C           8.3541    0.6753    0.9123 C.ar    1  LIG1        0.0130
     31 C           9.7482    0.6781    0.9376 C.ar    1  LIG1       -0.0400
     32 C           7.6835    1.5177    0.0216 C.ar    1  LIG1       -0.0042
     33 C          10.4707    1.5091    0.0850 C.ar    1  LIG1       -0.0129
     34 H          10.2919    0.0397    1.6239 H       1  LIG1        0.0635
     35 C           8.4204    2.3399   -0.8311 C.ar    1  LIG1       -0.0495
     36 C           9.8129    2.3570   -0.8177 C.ar    1  LIG1       -0.0421
     37 H           7.8796    2.9842   -1.5152 H       1  LIG1        0.0627
     38 S           7.3715   -0.3699    1.9695 S.3     1  LIG1       -0.1420
     39 H           8.4072   -0.8750    2.6481 H       1  LIG1        0.1071
     40 C          10.6004    3.2671   -1.7402 C.3     1  LIG1       -0.0391
     41 H           9.9232    3.8332   -2.3786 H       1  LIG1        0.0278
     42 H          11.2759    2.6831   -2.3673 H       1  LIG1        0.0278
     43 H          11.2014    3.9650   -1.1537 H       1  LIG1        0.0278
     44 C          12.6392    2.3935    0.9910 C.ar    1  LIG1        0.0125
     45 C          14.0333    2.3713    1.0418 C.ar    1  LIG1       -0.0477
     46 C          11.9678    1.4950    0.1559 C.ar    1  LIG1       -0.0042
     47 C          14.7456    1.4624    0.2686 C.ar    1  LIG1       -0.0578
     48 H          14.5665    3.0631    1.6816 H       1  LIG1        0.0629
     49 C          12.7013    0.5884   -0.6092 C.ar    1  LIG1       -0.0501
     50 C          14.0937    0.5545   -0.5672 C.ar    1  LIG1       -0.0498
     51 H          12.1599   -0.0988   -1.2501 H       1  LIG1        0.0627
     52 H          15.8284    1.4617    0.3170 H       1  LIG1        0.0621
     53 S          11.6514    3.5270    1.9481 S.3     1  LIG1       -0.1420
     54 H          12.6866    4.1434    2.5268 H       1  LIG1        0.1071
     55 C          14.8780   -0.4564   -1.3836 C.3     1  LIG1       -0.0397
     56 H          14.3064   -0.7701   -2.2565 H       1  LIG1        0.0278
     57 H          15.0985   -1.3394   -0.7806 H       1  LIG1        0.0278
     58 H          15.8211   -0.0262   -1.7203 H       1  LIG1        0.0278
@<TRIPOS>BOND
     1    11    10    1
     2    25    24    1
     3    41    40    1
     4    42    40    1
     5    56    55    1
     6    24    16    1
     7    10     1    1
     8    40    43    1
     9    40    36    1
    10    58    55    1
    11    20    17    1
    12     5     2    1
    13    37    35    1
    14    55    57    1
    15    55    50    1
    16    51    49    1
    17     1     2   ar
    18     1     3   ar
    19    16    17   ar
    20    16    18   ar
    21     2     4   ar
    22    17    19   ar
    23    35    36   ar
    24    35    32   ar
    25    36    33   ar
    26    49    50   ar
    27    49    46   ar
    28    50    47   ar
    29     9     3    1
    30     3     6   ar
    31     4    18    1
    32     4     7   ar
    33    18    21   ar
    34    19    32    1
    35    19    22   ar
    36    32    30   ar
    37    33    46    1
    38    33    31   ar
    39    46    44   ar
    40    47    52    1
    41    47    45   ar
    42     6     7   ar
    43     6     8    1
    44     7    12    1
    45    21    22   ar
    46    21    23    1
    47    22    26    1
    48    15    12    1
    49    30    31   ar
    50    30    38    1
    51    31    34    1
    52    44    45   ar
    53    44    53    1
    54    45    48    1
    55    28    26    1
    56    12    13    1
    57    12    14    1
    58    26    27    1
    59    26    29    1
    60    53    54    1
    61    38    39    1
