@<TRIPOS>MOLECULE
mol_data/opt/m06hf/geoms/mol2/4gi4gi-4gi-4gi-.out
 58 61 0 0 0
SMALL
GASTEIGER

@<TRIPOS>ATOM
      1 C          -0.1595    2.5042   -0.9055 C.ar    1  LIG1        0.0053
      2 C           1.2337    2.4690   -0.8865 C.ar    1  LIG1       -0.0406
      3 C          -0.8799    1.5950   -0.1380 C.ar    1  LIG1       -0.0483
      4 C           1.9035    1.5193   -0.1181 C.ar    1  LIG1       -0.0129
      5 H           1.8020    3.1834   -1.4693 H       1  LIG1        0.0635
      6 C          -0.2061    0.6516    0.6345 C.ar    1  LIG1       -0.0572
      7 C           1.1861    0.5950    0.6577 C.ar    1  LIG1       -0.0426
      8 H          -0.7746   -0.0517    1.2307 H       1  LIG1        0.0621
      9 H          -1.9616    1.6297   -0.1452 H       1  LIG1        0.0629
     10 S          -1.0200    3.7596   -1.8562 S.3     1  LIG1       -0.1426
     11 H          -0.9452    3.1395   -3.0401 H       1  LIG1        0.1071
     12 C           1.9181   -0.4321    1.4998 C.3     1  LIG1       -0.0391
     13 H           1.2077   -1.0241    2.0755 H       1  LIG1        0.0278
     14 H           2.6105    0.0615    2.1838 H       1  LIG1        0.0278
     15 H           2.4963   -1.0976    0.8554 H       1  LIG1        0.0278
     16 C           4.1091    0.6450   -0.9561 C.ar    1  LIG1        0.0130
     17 C           5.5034    0.6475   -0.9235 C.ar    1  LIG1       -0.0400
     18 C           3.4019    1.5055   -0.1126 C.ar    1  LIG1       -0.0042
     19 C           6.1887    1.4955   -0.0570 C.ar    1  LIG1       -0.0129
     20 H           6.0739   -0.0097   -1.5690 H       1  LIG1        0.0635
     21 C           4.1034    2.3574    0.7417 C.ar    1  LIG1       -0.0495
     22 C           5.4946    2.3694    0.7923 C.ar    1  LIG1       -0.0421
     23 H           3.5348    3.0196    1.3850 H       1  LIG1        0.0627
     24 S           3.1690   -0.3973   -2.0520 S.3     1  LIG1       -0.1420
     25 H           4.2056   -1.1467   -2.4421 H       1  LIG1        0.1071
     26 C           6.2429    3.2899    1.7375 C.3     1  LIG1       -0.0391
     27 H           5.5409    3.9194    2.2829 H       1  LIG1        0.0278
     28 H           6.9355    3.9254    1.1833 H       1  LIG1        0.0278
     29 H           6.8224    2.7018    2.4523 H       1  LIG1        0.0278
     30 C           8.3591    0.6613    0.8897 C.ar    1  LIG1        0.0130
     31 C           9.7533    0.6739    0.9194 C.ar    1  LIG1       -0.0400
     32 C           7.6864    1.4660   -0.0335 C.ar    1  LIG1       -0.0042
     33 C          10.4727    1.4785    0.0392 C.ar    1  LIG1       -0.0129
     34 H          10.2983    0.0683    1.6337 H       1  LIG1        0.0635
     35 C           8.4205    2.2571   -0.9175 C.ar    1  LIG1       -0.0495
     36 C           9.8126    2.2837   -0.9001 C.ar    1  LIG1       -0.0421
     37 H           7.8779    2.8726   -1.6261 H       1  LIG1        0.0627
     38 S           7.3776   -0.3411    1.9881 S.3     1  LIG1       -0.1420
     39 H           8.4155   -0.8427    2.6655 H       1  LIG1        0.1071
     40 C          10.5977    3.1664   -1.8506 C.3     1  LIG1       -0.0391
     41 H           9.9193    3.7113   -2.5060 H       1  LIG1        0.0278
     42 H          11.2746    2.5652   -2.4596 H       1  LIG1        0.0278
     43 H          11.1970    3.8828   -1.2850 H       1  LIG1        0.0278
     44 C          12.6090    2.4304    0.9446 C.ar    1  LIG1        0.0125
     45 C          14.0027    2.4392    1.0162 C.ar    1  LIG1       -0.0477
     46 C          11.9689    1.4942    0.1272 C.ar    1  LIG1       -0.0042
     47 C          14.7441    1.5250    0.2779 C.ar    1  LIG1       -0.0578
     48 H          14.5116    3.1574    1.6465 H       1  LIG1        0.0629
     49 C          12.7317    0.5816   -0.6019 C.ar    1  LIG1       -0.0501
     50 C          14.1232    0.5797   -0.5406 C.ar    1  LIG1       -0.0498
     51 H          12.2136   -0.1353   -1.2291 H       1  LIG1        0.0627
     52 H          15.8261    1.5478    0.3413 H       1  LIG1        0.0621
     53 S          11.5787    3.5615    1.8580 S.3     1  LIG1       -0.1420
     54 H          12.5840    4.2877    2.3592 H       1  LIG1        0.1071
     55 C          14.9447   -0.4330   -1.3174 C.3     1  LIG1       -0.0397
     56 H          14.3506   -0.8799   -2.1138 H       1  LIG1        0.0278
     57 H          15.2873   -1.2292   -0.6537 H       1  LIG1        0.0278
     58 H          15.8195    0.0440   -1.7601 H       1  LIG1        0.0278
@<TRIPOS>BOND
     1    11    10    1
     2    41    40    1
     3    42    40    1
     4    25    24    1
     5    56    55    1
     6    24    16    1
     7    10     1    1
     8    40    43    1
     9    40    36    1
    10    58    55    1
    11    37    35    1
    12    20    17    1
    13     5     2    1
    14    55    57    1
    15    55    50    1
    16    51    49    1
    17    16    17   ar
    18    16    18   ar
    19    17    19   ar
    20    35    36   ar
    21    35    32   ar
    22     1     2   ar
    23     1     3   ar
    24    36    33   ar
    25     2     4   ar
    26    49    50   ar
    27    49    46   ar
    28    50    47   ar
    29     9     3    1
    30     3     6   ar
    31     4    18    1
    32     4     7   ar
    33    18    21   ar
    34    19    32    1
    35    19    22   ar
    36    32    30   ar
    37    33    46    1
    38    33    31   ar
    39    46    44   ar
    40    47    52    1
    41    47    45   ar
    42     6     7   ar
    43     6     8    1
    44     7    12    1
    45    21    22   ar
    46    21    23    1
    47    22    26    1
    48    15    12    1
    49    30    31   ar
    50    30    38    1
    51    31    34    1
    52    44    45   ar
    53    44    53    1
    54    45    48    1
    55    28    26    1
    56    12    13    1
    57    12    14    1
    58    26    27    1
    59    26    29    1
    60    53    54    1
    61    38    39    1
