@<TRIPOS>MOLECULE
mol_data/opt/m06hf/geoms/mol2/4gl.out
 17 17 0 0 0
SMALL
GASTEIGER

@<TRIPOS>ATOM
      1 C           0.0478    0.0173    0.0004 C.ar    1  LIG1        0.0050
      2 C           1.4343   -0.0560    0.0001 C.ar    1  LIG1       -0.0451
      3 C          -0.5650    1.2752    0.0003 C.ar    1  LIG1       -0.0451
      4 C           2.2137    1.1029   -0.0004 C.ar    1  LIG1       -0.0189
      5 H           1.9312   -1.0179    0.0002 H       1  LIG1        0.0630
      6 C           0.1990    2.4281   -0.0002 C.ar    1  LIG1       -0.0189
      7 C           1.5958    2.3499   -0.0006 C.ar    1  LIG1        0.1202
      8 H          -0.2586    3.4077   -0.0003 H       1  LIG1        0.0654
      9 H           3.2906    1.0094   -0.0007 H       1  LIG1        0.0654
     10 H          -1.6456    1.3491    0.0006 H       1  LIG1        0.0630
     11 S          -1.0101   -1.4190    0.0011 S.3     1  LIG1       -0.1426
     12 H          -0.0313   -2.3298    0.0010 H       1  LIG1        0.1071
     13 O           2.2578    3.5358   -0.0010 O.3     1  LIG1       -0.4951
     14 C           3.6711    3.5066   -0.0014 C.3     1  LIG1        0.0788
     15 H           3.9900    4.5452   -0.0018 H       1  LIG1        0.0660
     16 H           4.0489    3.0048    0.8937 H       1  LIG1        0.0660
     17 H           4.0484    3.0044   -0.8965 H       1  LIG1        0.0660
@<TRIPOS>BOND
     1    17    14    1
     2    15    14    1
     3    14    13    1
     4    14    16    1
     5    13     7    1
     6     9     4    1
     7     7     4   ar
     8     7     6   ar
     9     4     2   ar
    10     8     6    1
    11     6     3   ar
    12     2     5    1
    13     2     1   ar
    14     3     1   ar
    15     3    10    1
    16     1    11    1
    17    12    11    1
