@<TRIPOS>MOLECULE
mol_data/opt/m06hf/geoms/mol2/4ha12hl6hl12df.out
 51 54 0 0 0
SMALL
GASTEIGER

@<TRIPOS>ATOM
      1 C          -0.2457   -0.1570   -0.2347 C.ar    1  LIG1        0.0252
      2 C           1.1350   -0.0739   -0.0305 C.ar    1  LIG1       -0.0303
      3 C          -0.9023    0.9034   -0.8720 C.ar    1  LIG1       -0.0410
      4 C           1.8470    1.0441   -0.4700 C.ar    1  LIG1        0.0210
      5 H           1.6498   -0.8605    0.5104 H       1  LIG1        0.0643
      6 C          -0.1859    2.0178   -1.2924 C.ar    1  LIG1       -0.0594
      7 C           1.1882    2.1019   -1.1032 C.ar    1  LIG1       -0.0509
      8 H          -0.7101    2.8286   -1.7815 H       1  LIG1        0.0618
      9 H          -1.9737    0.8533   -1.0227 H       1  LIG1        0.0636
     10 N          -0.9661   -1.2479    0.2466 N.pl3   1  LIG1       -0.3579
     11 H          -1.8425   -1.4312   -0.2190 H       1  LIG1        0.1423
     12 H          -0.4299   -2.0865    0.4135 H       1  LIG1        0.1423
     13 H           1.7499    2.9596   -1.4467 H       1  LIG1        0.0625
     14 C           3.2969    1.0945   -0.2642 C.ar    1  LIG1        0.1600
     15 C           4.2477    0.1259   -0.1497 C.ar    1  LIG1        0.1139
     16 C           5.4933    0.8220    0.0187 C.ar    1  LIG1        0.1871
     17 C           5.2230    2.1569   -0.0064 C.ar    1  LIG1        0.1824
     18 O           3.8925    2.3226   -0.1899 O.2     1  LIG1       -0.4490
     19 N           4.1315   -1.2687   -0.1683 N.pl3   1  LIG1       -0.3522
     20 H           3.4088   -1.5908   -0.8027 H       1  LIG1        0.1425
     21 H           5.0231   -1.6948   -0.3983 H       1  LIG1        0.1425
     22 O           6.6999    0.2055    0.1668 O.3     1  LIG1       -0.4896
     23 C           7.0284   -0.0404    1.5409 C.3     1  LIG1        0.0791
     24 H           7.9829   -0.5606    1.5385 H       1  LIG1        0.0660
     25 H           7.1124    0.9077    2.0743 H       1  LIG1        0.0660
     26 H           6.2562   -0.6609    1.9992 H       1  LIG1        0.0660
     27 C           5.6483    4.5909    0.5502 C.ar    1  LIG1        0.1281
     28 C           6.1028    3.3213    0.1087 C.ar    1  LIG1        0.0640
     29 C           7.4524    3.1697   -0.1939 C.ar    1  LIG1       -0.0036
     30 C           8.3196    4.2506   -0.0656 C.ar    1  LIG1        0.1498
     31 C           7.7647    5.4717    0.3234 C.ar    1  LIG1        0.1509
     32 N           6.4807    5.6234    0.6310 N.ar    1  LIG1       -0.2249
     33 H           7.8063    2.1984   -0.5158 H       1  LIG1        0.0663
     34 N           4.3583    4.8167    0.9439 N.pl3   1  LIG1       -0.3426
     35 H           4.1216    5.7855    1.0870 H       1  LIG1        0.1437
     36 H           3.6337    4.1816    0.6517 H       1  LIG1        0.1437
     37 O           9.6585    4.1949   -0.2652 O.3     1  LIG1       -0.4928
     38 C          10.1554    3.2054   -1.1541 C.3     1  LIG1        0.0789
     39 H          11.1876    3.4794   -1.3513 H       1  LIG1        0.0660
     40 H          10.1090    2.2165   -0.6919 H       1  LIG1        0.0660
     41 H           9.5878    3.2178   -2.0869 H       1  LIG1        0.0660
     42 C           8.6027    6.6845    0.4164 C.ar    1  LIG1        0.1776
     43 C           9.6735    7.1473   -0.3020 C.ar    1  LIG1        0.1404
     44 C           9.9994    8.4314    0.2565 C.ar    1  LIG1        0.1729
     45 C           9.1119    8.6417    1.2588 C.ar    1  LIG1        0.1353
     46 O           8.2703    7.5824    1.3463 O.2     1  LIG1       -0.4562
     47 H           8.9637    9.4453    1.9569 H       1  LIG1        0.1068
     48 N          10.8249    6.1204   -2.3686 N.1     1  LIG1       -0.1906
     49 C          10.3090    6.5543   -1.4394 C.1     1  LIG1        0.1067
     50 O          11.0139    9.1922   -0.2117 O.3     1  LIG1       -0.5028
     51 H          11.0687   10.0234    0.2711 H       1  LIG1        0.2923
@<TRIPOS>BOND
     1    48    49    3
     2    41    38    1
     3     8     6    1
     4    13     7    1
     5    49    43    1
     6    39    38    1
     7     6     7   ar
     8     6     3   ar
     9    38    40    1
    10    38    37    1
    11     7     4   ar
    12     9     3    1
    13     3     1   ar
    14    20    19    1
    15    33    29    1
    16     4    14    1
    17     4     2   ar
    18    21    19    1
    19    43    44   ar
    20    43    42   ar
    21    37    30    1
    22    14    18   ar
    23    14    15   ar
    24     1     2   ar
    25     1    10    1
    26    11    10    1
    27    50    44    1
    28    50    51    1
    29    29    30   ar
    30    29    28   ar
    31    18    17   ar
    32    19    15    1
    33    15    16   ar
    34    30    31   ar
    35     2     5    1
    36    17    16   ar
    37    17    28    1
    38    16    22    1
    39    28    27   ar
    40    22    23    1
    41    10    12    1
    42    44    45   ar
    43    31    42    1
    44    31    32   ar
    45    42    46   ar
    46    27    32   ar
    47    27    34    1
    48    36    34    1
    49    34    35    1
    50    45    46   ar
    51    45    47    1
    52    24    23    1
    53    23    26    1
    54    23    25    1
