@<TRIPOS>MOLECULE
mol_data/opt/m06hf/geoms/mol2/4ha6ld6ia12fl-.out
 52 55 0 0 0
SMALL
GASTEIGER

@<TRIPOS>ATOM
      1 C          -0.2051    0.1297   -0.3390 C.ar    1  LIG1        0.0251
      2 C           1.1914    0.1533   -0.2625 C.ar    1  LIG1       -0.0332
      3 C          -0.9121    1.3114   -0.0935 C.ar    1  LIG1       -0.0410
      4 C           1.8685    1.3323    0.0445 C.ar    1  LIG1       -0.0110
      5 H           1.7516   -0.7535   -0.4615 H       1  LIG1        0.0642
      6 C          -0.2311    2.4852    0.2054 C.ar    1  LIG1       -0.0594
      7 C           1.1572    2.5120    0.2728 C.ar    1  LIG1       -0.0537
      8 H          -0.7936    3.3915    0.3892 H       1  LIG1        0.0618
      9 H          -1.9944    1.3045   -0.1405 H       1  LIG1        0.0636
     10 N          -0.8786   -1.0623   -0.6093 N.pl3   1  LIG1       -0.3579
     11 H          -1.8083   -0.9498   -0.9872 H       1  LIG1        0.1423
     12 H          -0.3427   -1.7516   -1.1173 H       1  LIG1        0.1423
     13 H           1.6858    3.4269    0.4980 H       1  LIG1        0.0624
     14 C           4.2029    2.2663   -0.4120 C.ar    1  LIG1        0.2230
     15 C           3.3530    1.2927    0.1731 C.ar    1  LIG1        0.0450
     16 C           3.9876    0.2917    0.8781 C.ar    1  LIG1       -0.0295
     17 C           5.3885    0.2624    0.9724 C.ar    1  LIG1        0.0785
     18 C           6.1323    1.2566    0.3358 C.ar    1  LIG1        0.0938
     19 N           5.5180    2.2380   -0.3354 N.ar    1  LIG1       -0.2110
     20 H           3.4033   -0.4667    1.3842 H       1  LIG1        0.0639
     21 O           3.6254    3.2599   -1.0897 O.3     1  LIG1       -0.4792
     22 C           4.4829    4.2260   -1.6976 C.3     1  LIG1        0.0804
     23 H           3.8172    4.8943   -2.2353 H       1  LIG1        0.0660
     24 H           5.0385    4.7652   -0.9310 H       1  LIG1        0.0660
     25 H           5.1806    3.7364   -2.3750 H       1  LIG1        0.0660
     26 N           6.4714   -1.6297    2.3743 N.1     1  LIG1       -0.1908
     27 C           6.0135   -0.7794    1.7540 C.1     1  LIG1        0.1013
     28 C           8.3355    2.4513    0.6473 C.ar    1  LIG1        0.0482
     29 C           7.6219    1.2750    0.3585 C.ar    1  LIG1        0.0228
     30 C           8.3428    0.1154    0.0715 C.ar    1  LIG1       -0.0487
     31 C           9.7272    0.1472    0.0683 C.ar    1  LIG1       -0.0319
     32 C          10.3448    1.3656    0.3620 C.ar    1  LIG1        0.1101
     33 N           9.6655    2.4760    0.6466 N.ar    1  LIG1       -0.2480
     34 H           7.8222   -0.8052   -0.1608 H       1  LIG1        0.0625
     35 C           7.6629    3.7661    0.9881 C.3     1  LIG1       -0.0217
     36 H           6.7909    3.6130    1.6237 H       1  LIG1        0.0293
     37 H           7.3361    4.2560    0.0705 H       1  LIG1        0.0293
     38 H           8.3977    4.3879    1.4936 H       1  LIG1        0.0293
     39 H          10.3200   -0.7290   -0.1530 H       1  LIG1        0.0640
     40 C          11.8085    1.4635    0.3685 C.ar    1  LIG1        0.1979
     41 C          12.7872    0.5444    0.1381 C.ar    1  LIG1        0.2069
     42 C          14.0361    1.2324    0.2869 C.ar    1  LIG1        0.2002
     43 C          13.7238    2.5167    0.5946 C.ar    1  LIG1        0.1380
     44 O          12.3898    2.6592    0.6394 O.2     1  LIG1       -0.4538
     45 H          14.3234    3.3841    0.8050 H       1  LIG1        0.1069
     46 O          12.6600   -0.7693   -0.1753 O.3     1  LIG1       -0.5008
     47 H          13.5095   -1.1979   -0.0052 H       1  LIG1        0.2924
     48 O          15.2483    0.6266    0.1335 O.3     1  LIG1       -0.4888
     49 C          15.7279    0.6801   -1.2124 C.3     1  LIG1        0.0791
     50 H          16.6642    0.1282   -1.2272 H       1  LIG1        0.0660
     51 H          15.0042    0.2193   -1.8884 H       1  LIG1        0.0660
     52 H          15.8953    1.7167   -1.5078 H       1  LIG1        0.0660
@<TRIPOS>BOND
     1    25    22    1
     2    23    22    1
     3    51    49    1
     4    22    21    1
     5    22    24    1
     6    52    49    1
     7    50    49    1
     8    49    48    1
     9    12    10    1
    10    21    14    1
    11    11    10    1
    12    10     1    1
    13     5     2    1
    14    14    19   ar
    15    14    15   ar
    16     1     2   ar
    17     1     3   ar
    18    19    18   ar
    19     2     4   ar
    20    46    47    1
    21    46    41    1
    22    34    30    1
    23    39    31    1
    24     9     3    1
    25     3     6   ar
    26     4    15    1
    27     4     7   ar
    28    31    30   ar
    29    31    32   ar
    30    37    35    1
    31    30    29   ar
    32    48    42    1
    33    41    42   ar
    34    41    40   ar
    35    15    16   ar
    36     6     7   ar
    37     6     8    1
    38     7    13    1
    39    42    43   ar
    40    18    29    1
    41    18    17   ar
    42    29    28   ar
    43    32    40    1
    44    32    33   ar
    45    40    44   ar
    46    43    44   ar
    47    43    45    1
    48    33    28   ar
    49    28    35    1
    50    16    17   ar
    51    16    20    1
    52    17    27    1
    53    35    38    1
    54    35    36    1
    55    27    26    3
