@<TRIPOS>MOLECULE
mol_data/opt/m06hf/geoms/mol2/4hd.out
 15 15 0 0 0
SMALL
GASTEIGER

@<TRIPOS>ATOM
      1 C           0.0861    0.0449   -0.0660 C.ar    1  LIG1        0.0246
      2 C           1.4900    0.0375   -0.0436 C.ar    1  LIG1       -0.0398
      3 C          -0.5880    1.2764   -0.0459 C.ar    1  LIG1       -0.0398
      4 C           2.1977    1.2265   -0.0080 C.ar    1  LIG1       -0.0426
      5 H           2.0191   -0.9068   -0.0498 H       1  LIG1        0.0636
      6 C           0.1216    2.4644   -0.0103 C.ar    1  LIG1       -0.0426
      7 C           1.5181    2.4468    0.0075 C.ar    1  LIG1        0.0519
      8 H          -0.4014    3.4109    0.0031 H       1  LIG1        0.0631
      9 H           3.2790    1.2165    0.0072 H       1  LIG1        0.0631
     10 H          -1.6703    1.2929   -0.0538 H       1  LIG1        0.0636
     11 N          -0.6209   -1.1409   -0.0630 N.pl3   1  LIG1       -0.3580
     12 H          -1.5824   -1.1015   -0.3633 H       1  LIG1        0.1423
     13 H          -0.1286   -1.9683   -0.3617 H       1  LIG1        0.1423
     14 N           2.8464    4.6743    0.0639 N.1     1  LIG1       -0.1909
     15 C           2.2585    3.6885    0.0399 C.1     1  LIG1        0.0992
@<TRIPOS>BOND
     1    12    11    1
     2    13    11    1
     3     1    11    1
     4     1     3   ar
     5     1     2   ar
     6    10     3    1
     7     5     2    1
     8     3     6   ar
     9     2     4   ar
    10     6     8    1
    11     6     7   ar
    12     4     9    1
    13     4     7   ar
    14     7    15    1
    15    15    14    3
