@<TRIPOS>MOLECULE
mol_data/opt/m06hf/geoms/mol2/4hd13ai-12li-6lf.out
 54 57 0 0 0
SMALL
GASTEIGER

@<TRIPOS>ATOM
      1 C          -0.0191    0.0326    0.0957 C.ar    1  LIG1        0.0252
      2 C           1.3773    0.0804    0.1413 C.ar    1  LIG1       -0.0307
      3 C          -0.7320    1.1799   -0.2956 C.ar    1  LIG1       -0.0398
      4 C           2.0885    1.2256   -0.2156 C.ar    1  LIG1        0.0174
      5 H           1.9231   -0.7859    0.4915 H       1  LIG1        0.0643
      6 C          -0.0438    2.3273   -0.6312 C.ar    1  LIG1       -0.0420
      7 C           1.3544    2.3636   -0.6013 C.ar    1  LIG1        0.0610
      8 H          -0.5820    3.2170   -0.9302 H       1  LIG1        0.0631
      9 H          -1.8137    1.1628   -0.3196 H       1  LIG1        0.0636
     10 N          -0.6921   -1.1057    0.4863 N.pl3   1  LIG1       -0.3579
     11 H          -1.6532   -1.1960    0.1968 H       1  LIG1        0.1423
     12 H          -0.1751   -1.9710    0.4906 H       1  LIG1        0.1423
     13 N           2.4832    4.6081   -1.2455 N.1     1  LIG1       -0.1908
     14 C           1.9946    3.6034   -0.9728 C.1     1  LIG1        0.0998
     15 C           3.5594    1.1697   -0.1763 C.ar    1  LIG1        0.0485
     16 C           4.3862    0.0564   -0.2140 C.ar    1  LIG1       -0.0328
     17 C           5.7292    0.4911   -0.1326 C.ar    1  LIG1       -0.0215
     18 C           5.6748    1.8748   -0.0472 C.ar    1  LIG1        0.0892
     19 N           4.3694    2.2608   -0.0779 N.ar    1  LIG1       -0.3514
     20 H           4.0870    3.2328   -0.0302 H       1  LIG1        0.1660
     21 H           4.0658   -0.9672   -0.3235 H       1  LIG1        0.0642
     22 C           6.9587   -0.3833   -0.1742 C.3     1  LIG1       -0.0376
     23 H           7.6930   -0.0425    0.5544 H       1  LIG1        0.0278
     24 H           7.4134   -0.3625   -1.1675 H       1  LIG1        0.0278
     25 H           6.6810   -1.4130    0.0507 H       1  LIG1        0.0278
     26 C           6.6768    2.9275    0.0546 C.ar    1  LIG1        0.1936
     27 C           7.9952    3.0269    0.3918 C.ar    1  LIG1        0.1706
     28 C           8.3341    4.4269    0.3936 C.ar    1  LIG1        0.0379
     29 C           7.1795    5.0688    0.0553 C.ar    1  LIG1        0.1475
     30 O           6.1928    4.1713   -0.1541 O.2     1  LIG1       -0.4491
     31 O           8.8402    2.0126    0.7294 O.3     1  LIG1       -0.4910
     32 C           9.7941    1.7086   -0.2871 C.3     1  LIG1        0.0790
     33 H          10.3746    0.8653    0.0805 H       1  LIG1        0.0660
     34 H           9.2820    1.4419   -1.2129 H       1  LIG1        0.0660
     35 H          10.4491    2.5639   -0.4638 H       1  LIG1        0.0660
     36 C           9.6671    4.9969    0.8041 C.3     1  LIG1       -0.0326
     37 H           9.5333    5.9738    1.2691 H       1  LIG1        0.0280
     38 H          10.3388    5.1054   -0.0506 H       1  LIG1        0.0280
     39 H          10.1293    4.3196    1.5235 H       1  LIG1        0.0280
     40 C           5.5907    7.0272    0.2213 C.ar    1  LIG1        0.2256
     41 C           6.8604    6.4903   -0.1201 C.ar    1  LIG1        0.0825
     42 C           7.8054    7.3653   -0.6243 C.ar    1  LIG1       -0.0029
     43 C           7.4935    8.7211   -0.7627 C.ar    1  LIG1        0.1358
     44 C           6.2246    9.1371   -0.4088 C.ar    1  LIG1        0.0728
     45 N           5.2985    8.2983    0.0711 N.ar    1  LIG1       -0.2171
     46 H           8.7800    7.0147   -0.9374 H       1  LIG1        0.0663
     47 H           5.9297   10.1765   -0.5107 H       1  LIG1        0.0868
     48 O           4.6690    6.1959    0.7281 O.3     1  LIG1       -0.4792
     49 C           3.3912    6.7589    1.0158 C.3     1  LIG1        0.0804
     50 H           2.8029    5.9365    1.4121 H       1  LIG1        0.0660
     51 H           3.4914    7.5609    1.7469 H       1  LIG1        0.0660
     52 H           2.9401    7.1432    0.1026 H       1  LIG1        0.0660
     53 O           8.4557    9.5528   -1.2552 O.3     1  LIG1       -0.5052
     54 H           8.1225   10.4541   -1.3185 H       1  LIG1        0.2922
@<TRIPOS>BOND
     1    54    53    1
     2    53    43    1
     3    13    14    3
     4    34    32    1
     5    24    22    1
     6    14     7    1
     7    46    42    1
     8     8     6    1
     9    43    42   ar
    10    43    44   ar
    11     6     7   ar
    12     6     3   ar
    13    42    41   ar
    14     7     4   ar
    15    47    44    1
    16    35    32    1
    17    44    45   ar
    18    21    16    1
    19     9     3    1
    20     3     1   ar
    21    32    33    1
    22    32    31    1
    23     4    15    1
    24     4     2   ar
    25    16    15   ar
    26    16    17   ar
    27    15    19   ar
    28    22    17    1
    29    22    25    1
    30    22    23    1
    31    30    26   ar
    32    30    29   ar
    33    17    18   ar
    34    41    29    1
    35    41    40   ar
    36    19    18   ar
    37    19    20    1
    38    38    36    1
    39    18    26    1
    40    26    27   ar
    41    29    28   ar
    42    45    40   ar
    43     1     2   ar
    44     1    10    1
    45    52    49    1
    46     2     5    1
    47    11    10    1
    48    40    48    1
    49    27    28   ar
    50    27    31    1
    51    28    36    1
    52    10    12    1
    53    48    49    1
    54    36    37    1
    55    36    39    1
    56    49    50    1
    57    49    51    1
