@<TRIPOS>MOLECULE
mol_data/opt/m06hf/geoms/mol2/4hd4hd-4hd.out
 41 43 0 0 0
SMALL
GASTEIGER

@<TRIPOS>ATOM
      1 C          -0.1416    0.1466   -0.4093 C.ar    1  LIG1        0.0252
      2 C           1.2633    0.1413   -0.4450 C.ar    1  LIG1       -0.0320
      3 C          -0.8028    1.2869    0.0791 C.ar    1  LIG1       -0.0398
      4 C           1.9985    1.2322   -0.0035 C.ar    1  LIG1        0.0030
      5 H           1.7887   -0.7238   -0.8305 H       1  LIG1        0.0642
      6 C          -0.0768    2.3776    0.5189 C.ar    1  LIG1       -0.0420
      7 C           1.3207    2.3615    0.4866 C.ar    1  LIG1        0.0596
      8 H          -0.5856    3.2511    0.9039 H       1  LIG1        0.0631
      9 H          -1.8845    1.3045    0.1168 H       1  LIG1        0.0636
     10 N          -0.8517   -0.9523   -0.8175 N.pl3   1  LIG1       -0.3579
     11 H          -1.8369   -0.8507   -0.9996 H       1  LIG1        0.1423
     12 H          -0.3797   -1.6640   -1.3510 H       1  LIG1        0.1423
     13 N           2.6373    4.4234    1.3500 N.1     1  LIG1       -0.1909
     14 C           2.0593    3.5030    0.9788 C.1     1  LIG1        0.0998
     15 C           4.2409    2.0626   -0.8355 C.ar    1  LIG1        0.0330
     16 C           5.6445    1.9684   -0.8151 C.ar    1  LIG1       -0.0314
     17 C           3.4914    1.1773   -0.0295 C.ar    1  LIG1        0.0053
     18 C           6.3026    1.0329   -0.0344 C.ar    1  LIG1        0.0030
     19 H           6.2291    2.6291   -1.4434 H       1  LIG1        0.0643
     20 C           4.1500    0.2315    0.7434 C.ar    1  LIG1       -0.0342
     21 C           5.5422    0.1502    0.7544 C.ar    1  LIG1        0.0602
     22 H           3.5711   -0.4353    1.3700 H       1  LIG1        0.0637
     23 N           3.6302    2.9555   -1.6717 N.pl3   1  LIG1       -0.3575
     24 H           4.1723    3.7425   -1.9919 H       1  LIG1        0.1423
     25 H           2.6466    3.1364   -1.5419 H       1  LIG1        0.1423
     26 N           6.6844   -1.6449    2.2384 N.1     1  LIG1       -0.1908
     27 C           6.1874   -0.8347    1.5937 C.1     1  LIG1        0.0998
     28 C           8.4979   -0.1369   -0.4920 C.ar    1  LIG1        0.0325
     29 C           9.9034   -0.1232   -0.4524 C.ar    1  LIG1       -0.0392
     30 C           7.7965    0.9955   -0.0256 C.ar    1  LIG1        0.0053
     31 C          10.5907    0.9782    0.0182 C.ar    1  LIG1       -0.0426
     32 H          10.4464   -0.9881   -0.8105 H       1  LIG1        0.0636
     33 C           8.4970    2.1041    0.4352 C.ar    1  LIG1       -0.0348
     34 C           9.8903    2.1044    0.4612 C.ar    1  LIG1        0.0525
     35 H           7.9496    2.9658    0.7953 H       1  LIG1        0.0637
     36 H          11.6721    0.9772    0.0437 H       1  LIG1        0.0631
     37 N           7.8377   -1.2142   -1.0322 N.pl3   1  LIG1       -0.3575
     38 H           6.8464   -1.2874   -0.8596 H       1  LIG1        0.1423
     39 H           8.3270   -2.0959   -1.0268 H       1  LIG1        0.1423
     40 N          11.1816    4.1767    1.3360 N.1     1  LIG1       -0.1909
     41 C          10.6074    3.2603    0.9501 C.1     1  LIG1        0.0992
@<TRIPOS>BOND
     1    24    23    1
     2    23    25    1
     3    23    15    1
     4    19    16    1
     5    12    10    1
     6    37    39    1
     7    37    38    1
     8    37    28    1
     9    11    10    1
    10    15    16   ar
    11    15    17   ar
    12     5     2    1
    13    10     1    1
    14    16    18   ar
    15    32    29    1
    16    28    29   ar
    17    28    30   ar
    18    29    31   ar
    19     2     1   ar
    20     2     4   ar
    21     1     3   ar
    22    18    30    1
    23    18    21   ar
    24    17     4    1
    25    17    20   ar
    26    30    33   ar
    27     4     7   ar
    28    31    36    1
    29    31    34   ar
    30     3     9    1
    31     3     6   ar
    32    33    34   ar
    33    33    35    1
    34    34    41    1
    35     7     6   ar
    36     7    14    1
    37     6     8    1
    38    20    21   ar
    39    20    22    1
    40    21    27    1
    41    41    40    3
    42    14    13    3
    43    27    26    3
