@<TRIPOS>MOLECULE
mol_data/opt/m06hf/geoms/mol2/4hd4hd-4hd4hd.out
 54 57 0 0 0
SMALL
GASTEIGER

@<TRIPOS>ATOM
      1 C          -0.2688    0.1248   -0.0092 C.ar    1  LIG1        0.0252
      2 C           1.1351    0.0812   -0.0670 C.ar    1  LIG1       -0.0320
      3 C          -0.9045    1.3758    0.0782 C.ar    1  LIG1       -0.0398
      4 C           1.8915    1.2438   -0.0322 C.ar    1  LIG1        0.0030
      5 H           1.6420   -0.8726   -0.1465 H       1  LIG1        0.0642
      6 C          -0.1567    2.5378    0.1111 C.ar    1  LIG1       -0.0420
      7 C           1.2393    2.4854    0.0592 C.ar    1  LIG1        0.0596
      8 H          -0.6470    3.4989    0.1878 H       1  LIG1        0.0631
      9 H          -1.9848    1.4252    0.1278 H       1  LIG1        0.0636
     10 N          -1.0015   -1.0323   -0.0100 N.pl3   1  LIG1       -0.3579
     11 H          -1.9923   -0.9804   -0.1818 H       1  LIG1        0.1423
     12 H          -0.5533   -1.8930   -0.2772 H       1  LIG1        0.1423
     13 N           2.6158    4.6832    0.1281 N.1     1  LIG1       -0.1909
     14 C           2.0074    3.7093    0.1141 C.1     1  LIG1        0.0998
     15 C           4.1241    1.7011   -1.1347 C.ar    1  LIG1        0.0330
     16 C           5.5274    1.6052   -1.1015 C.ar    1  LIG1       -0.0314
     17 C           3.3832    1.1574   -0.0621 C.ar    1  LIG1        0.0053
     18 C           6.1917    0.9906   -0.0531 C.ar    1  LIG1        0.0030
     19 H           6.1046    2.0060   -1.9257 H       1  LIG1        0.0643
     20 C           4.0482    0.5285    0.9809 C.ar    1  LIG1       -0.0342
     21 C           5.4399    0.4401    1.0003 C.ar    1  LIG1        0.0602
     22 H           3.4763    0.1259    1.8076 H       1  LIG1        0.0637
     23 N           3.5031    2.2593   -2.2176 N.pl3   1  LIG1       -0.3575
     24 H           4.0417    2.8884   -2.7923 H       1  LIG1        0.1423
     25 H           2.5235    2.4861   -2.1386 H       1  LIG1        0.1423
     26 N           6.6028   -0.7542    2.9879 N.1     1  LIG1       -0.1908
     27 C           6.0946   -0.2067    2.1154 C.1     1  LIG1        0.0998
     28 C           8.3809   -0.2797   -0.1068 C.ar    1  LIG1        0.0330
     29 C           9.7850   -0.2603   -0.0735 C.ar    1  LIG1       -0.0314
     30 C           7.6856    0.9473   -0.0433 C.ar    1  LIG1        0.0053
     31 C          10.4970    0.9293    0.0045 C.ar    1  LIG1        0.0030
     32 H          10.3304   -1.1958   -0.1160 H       1  LIG1        0.0643
     33 C           8.3971    2.1378    0.0193 C.ar    1  LIG1       -0.0342
     34 C           9.7916    2.1429    0.0384 C.ar    1  LIG1        0.0602
     35 H           7.8586    3.0758    0.0675 H       1  LIG1        0.0637
     36 N           7.7161   -1.4716   -0.2546 N.pl3   1  LIG1       -0.3575
     37 H           6.7242   -1.4766   -0.0687 H       1  LIG1        0.1423
     38 H           8.1999   -2.3038    0.0461 H       1  LIG1        0.1423
     39 N          11.0310    4.4206    0.0964 N.1     1  LIG1       -0.1908
     40 C          10.4930    3.4068    0.0748 C.1     1  LIG1        0.0998
     41 C          12.7183    0.3256   -1.0152 C.ar    1  LIG1        0.0325
     42 C          14.1207    0.3005   -0.9423 C.ar    1  LIG1       -0.0392
     43 C          11.9906    0.8989    0.0481 C.ar    1  LIG1        0.0053
     44 C          14.7830    0.8277    0.1498 C.ar    1  LIG1       -0.0426
     45 H          14.6830   -0.1398   -1.7559 H       1  LIG1        0.0636
     46 C          12.6654    1.4347    1.1390 C.ar    1  LIG1       -0.0348
     47 C          14.0569    1.3990    1.1985 C.ar    1  LIG1        0.0525
     48 H          12.1030    1.8775    1.9513 H       1  LIG1        0.0637
     49 H          15.8632    0.8035    0.1983 H       1  LIG1        0.0631
     50 N          12.0714   -0.2347   -2.0976 N.pl3   1  LIG1       -0.3575
     51 H          11.1188    0.0601   -2.2588 H       1  LIG1        0.1423
     52 H          12.6200   -0.3561   -2.9349 H       1  LIG1        0.1423
     53 N          15.3124    2.3728    3.2490 N.1     1  LIG1       -0.1909
     54 C          14.7510    1.9465    2.3430 C.1     1  LIG1        0.0992
@<TRIPOS>BOND
     1    52    50    1
     2    24    23    1
     3    51    50    1
     4    23    25    1
     5    23    15    1
     6    50    41    1
     7    19    16    1
     8    45    42    1
     9    15    16   ar
    10    15    17   ar
    11    16    18   ar
    12    41    42   ar
    13    41    43   ar
    14    42    44   ar
    15    12    10    1
    16    36    28    1
    17    36    37    1
    18    36    38    1
    19    11    10    1
    20     5     2    1
    21    32    29    1
    22    28    29   ar
    23    28    30   ar
    24    29    31   ar
    25     2     4   ar
    26     2     1   ar
    27    17     4    1
    28    17    20   ar
    29    18    30    1
    30    18    21   ar
    31    30    33   ar
    32     4     7   ar
    33    10     1    1
    34     1     3   ar
    35    31    34   ar
    36    31    43    1
    37    33    34   ar
    38    33    35    1
    39    34    40    1
    40    43    46   ar
    41     7     6   ar
    42     7    14    1
    43    40    39    3
    44     3     6   ar
    45     3     9    1
    46     6     8    1
    47    14    13    3
    48    44    49    1
    49    44    47   ar
    50    20    21   ar
    51    20    22    1
    52    21    27    1
    53    46    47   ar
    54    46    48    1
    55    47    54    1
    56    27    26    3
    57    54    53    3
