@<TRIPOS>MOLECULE
mol_data/opt/m06hf/geoms/mol2/4hd4hd4hd.out
 41 43 0 0 0
SMALL
GASTEIGER

@<TRIPOS>ATOM
      1 C          -0.1315    0.6448    0.9418 C.ar    1  LIG1        0.0252
      2 C           1.2735    0.6423    0.9545 C.ar    1  LIG1       -0.0320
      3 C          -0.7969    1.1405   -0.1938 C.ar    1  LIG1       -0.0398
      4 C           2.0000    1.1243   -0.1270 C.ar    1  LIG1        0.0030
      5 H           1.8069    0.2743    1.8230 H       1  LIG1        0.0642
      6 C          -0.0775    1.6093   -1.2770 C.ar    1  LIG1       -0.0420
      7 C           1.3203    1.6018   -1.2570 C.ar    1  LIG1        0.0596
      8 H          -0.5915    1.9836   -2.1521 H       1  LIG1        0.0631
      9 H          -1.8793    1.1581   -0.2140 H       1  LIG1        0.0636
     10 N          -0.8383    0.2109    2.0323 N.pl3   1  LIG1       -0.3579
     11 H          -1.8225    0.0239    1.9333 H       1  LIG1        0.1423
     12 H          -0.3592   -0.3100    2.7483 H       1  LIG1        0.1423
     13 N           2.6398    2.4164   -3.3364 N.1     1  LIG1       -0.1909
     14 C           2.0608    2.0608   -2.4109 C.1     1  LIG1        0.0998
     15 C           4.2018   -0.0924   -0.0934 C.ar    1  LIG1        0.0330
     16 C           5.6042   -0.0599   -0.0557 C.ar    1  LIG1       -0.0314
     17 C           3.4940    1.1267   -0.0772 C.ar    1  LIG1        0.0053
     18 C           6.2995    1.1409    0.0033 C.ar    1  LIG1        0.0030
     19 H           6.1639   -0.9875   -0.0717 H       1  LIG1        0.0643
     20 C           4.1879    2.3272   -0.0321 C.ar    1  LIG1       -0.0342
     21 C           5.5820    2.3460    0.0134 C.ar    1  LIG1        0.0602
     22 H           3.6395    3.2606   -0.0345 H       1  LIG1        0.0637
     23 N           3.5302   -1.2932   -0.1133 N.pl3   1  LIG1       -0.3575
     24 H           2.5693   -1.2743   -0.4232 H       1  LIG1        0.1423
     25 H           4.0546   -2.1075   -0.3927 H       1  LIG1        0.1423
     26 N           6.8069    4.6307    0.1087 N.1     1  LIG1       -0.1908
     27 C           6.2749    3.6147    0.0615 C.1     1  LIG1        0.0998
     28 C           8.5122    0.6510   -1.0772 C.ar    1  LIG1        0.0325
     29 C           9.9153    0.6198   -1.0161 C.ar    1  LIG1       -0.0392
     30 C           7.7934    1.1258    0.0389 C.ar    1  LIG1        0.0053
     31 C          10.5835    1.0539    0.1133 C.ar    1  LIG1       -0.0426
     32 H          10.4733    0.2533   -1.8680 H       1  LIG1        0.0636
     33 C           8.4724    1.5748    1.1642 C.ar    1  LIG1       -0.0348
     34 C           9.8648    1.5363    1.2108 C.ar    1  LIG1        0.0525
     35 H           7.9135    1.9502    2.0116 H       1  LIG1        0.0637
     36 H          11.6642    1.0258    0.1525 H       1  LIG1        0.0631
     37 N           7.8497    0.1919   -2.1964 N.pl3   1  LIG1       -0.3575
     38 H           6.9012    0.5173   -2.3241 H       1  LIG1        0.1423
     39 H           8.3891    0.1440   -3.0475 H       1  LIG1        0.1423
     40 N          11.1244    2.3197    3.3386 N.1     1  LIG1       -0.1909
     41 C          10.5643    1.9799    2.3959 C.1     1  LIG1        0.0992
@<TRIPOS>BOND
     1    13    14    3
     2    39    37    1
     3    14     7    1
     4    38    37    1
     5    37    28    1
     6     8     6    1
     7    32    29    1
     8     6     7   ar
     9     6     3   ar
    10     7     4   ar
    11    28    29   ar
    12    28    30   ar
    13    29    31   ar
    14    24    23    1
    15    25    23    1
    16     9     3    1
    17     3     1   ar
    18     4    17    1
    19     4     2   ar
    20    23    15    1
    21    15    17   ar
    22    15    16   ar
    23    17    20   ar
    24    19    16    1
    25    16    18   ar
    26    22    20    1
    27    20    21   ar
    28    18    21   ar
    29    18    30    1
    30    21    27    1
    31    30    33   ar
    32    27    26    3
    33    31    36    1
    34    31    34   ar
    35     1     2   ar
    36     1    10    1
    37     2     5    1
    38    33    34   ar
    39    33    35    1
    40    34    41    1
    41    11    10    1
    42    10    12    1
    43    41    40    3
