@<TRIPOS>MOLECULE
mol_data/opt/m06hf/geoms/mol2/4hd4hd4hd4hd.out
 54 57 0 0 0
SMALL
GASTEIGER

@<TRIPOS>ATOM
      1 C          -0.2651    1.5774    0.7536 C.ar    1  LIG1        0.0252
      2 C           1.1380    1.5586    0.8265 C.ar    1  LIG1       -0.0320
      3 C          -0.8924    1.0205   -0.3754 C.ar    1  LIG1       -0.0398
      4 C           1.9017    1.0058   -0.1947 C.ar    1  LIG1        0.0030
      5 H           1.6404    1.9957    1.6816 H       1  LIG1        0.0642
      6 C          -0.1369    0.4641   -1.3900 C.ar    1  LIG1       -0.0420
      7 C           1.2584    0.4462   -1.3086 C.ar    1  LIG1        0.0596
      8 H          -0.6210    0.0312   -2.2551 H       1  LIG1        0.0631
      9 H          -1.9722    1.0349   -0.4491 H       1  LIG1        0.0636
     10 N          -1.0051    2.1646    1.7448 N.pl3   1  LIG1       -0.3579
     11 H          -1.9971    1.9973    1.7797 H       1  LIG1        0.1423
     12 H          -0.5626    2.3921    2.6197 H       1  LIG1        0.1423
     13 N           2.6360   -0.6772   -3.1986 N.1     1  LIG1       -0.1909
     14 C           2.0300   -0.1756   -2.3618 C.1     1  LIG1        0.0998
     15 C           4.0468    0.3243    0.9413 C.ar    1  LIG1        0.0330
     16 C           5.4522    0.3201    0.9765 C.ar    1  LIG1       -0.0314
     17 C           3.3929    1.0118   -0.1028 C.ar    1  LIG1        0.0053
     18 C           6.1995    0.9780    0.0138 C.ar    1  LIG1        0.0030
     19 H           5.9670   -0.2258    1.7576 H       1  LIG1        0.0643
     20 C           4.1428    1.6745   -1.0660 C.ar    1  LIG1       -0.0342
     21 C           5.5346    1.6718   -1.0132 C.ar    1  LIG1        0.0602
     22 H           3.6382    2.2030   -1.8650 H       1  LIG1        0.0637
     23 N           3.3288   -0.3219    1.9182 N.pl3   1  LIG1       -0.3575
     24 H           2.3670   -0.5481    1.7089 H       1  LIG1        0.1423
     25 H           3.8200   -1.0026    2.4768 H       1  LIG1        0.1423
     26 N           6.9124    2.9383   -2.8111 N.1     1  LIG1       -0.1908
     27 C           6.2987    2.3861   -2.0127 C.1     1  LIG1        0.0998
     28 C           8.4149    0.3083   -0.9767 C.ar    1  LIG1        0.0330
     29 C           9.8188    0.3619   -0.9403 C.ar    1  LIG1       -0.0314
     30 C           7.6908    0.9493    0.0557 C.ar    1  LIG1        0.0053
     31 C          10.4995    1.0052    0.0846 C.ar    1  LIG1        0.0030
     32 H          10.3891   -0.1155   -1.7283 H       1  LIG1        0.0643
     33 C           8.3705    1.5681    1.0927 C.ar    1  LIG1       -0.0342
     34 C           9.7653    1.6049    1.1206 C.ar    1  LIG1        0.0602
     35 H           7.8086    2.0582    1.8776 H       1  LIG1        0.0637
     36 N           7.7762   -0.3836   -1.9633 N.pl3   1  LIG1       -0.3575
     37 H           6.7770   -0.2895   -2.0659 H       1  LIG1        0.1423
     38 H           8.2873   -0.6168   -2.7987 H       1  LIG1        0.1423
     39 N          10.9185    2.8462    3.0842 N.1     1  LIG1       -0.1908
     40 C          10.4252    2.2959    2.2051 C.1     1  LIG1        0.0998
     41 C          12.6534    1.6629   -1.0304 C.ar    1  LIG1        0.0325
     42 C          14.0589    1.6810   -1.0435 C.ar    1  LIG1       -0.0392
     43 C          11.9920    1.0544    0.0581 C.ar    1  LIG1        0.0053
     44 C          14.7851    1.1219   -0.0096 C.ar    1  LIG1       -0.0426
     45 H          14.5718    2.1404   -1.8785 H       1  LIG1        0.0636
     46 C          12.7306    0.5068    1.0999 C.ar    1  LIG1       -0.0348
     47 C          14.1236    0.5325    1.0716 C.ar    1  LIG1        0.0525
     48 H          12.2182    0.0517    1.9376 H       1  LIG1        0.0637
     49 H          15.8664    1.1402   -0.0301 H       1  LIG1        0.0631
     50 N          11.9445    2.2027   -2.0802 N.pl3   1  LIG1       -0.3575
     51 H          10.9731    2.4282   -1.9150 H       1  LIG1        0.1423
     52 H          12.4348    2.8579   -2.6693 H       1  LIG1        0.1423
     53 N          15.4914   -0.5318    3.0013 N.1     1  LIG1       -0.1909
     54 C          14.8827   -0.0576    2.1513 C.1     1  LIG1        0.0992
@<TRIPOS>BOND
     1    13    14    3
     2    26    27    3
     3    38    36    1
     4    52    50    1
     5    14     7    1
     6     8     6    1
     7    50    51    1
     8    50    41    1
     9    37    36    1
    10    27    21    1
    11    36    28    1
    12    45    42    1
    13    22    20    1
    14    32    29    1
    15     6     7   ar
    16     6     3   ar
    17     7     4   ar
    18    20    21   ar
    19    20    17   ar
    20    42    41   ar
    21    42    44   ar
    22    41    43   ar
    23    21    18   ar
    24    28    29   ar
    25    28    30   ar
    26    29    31   ar
    27     9     3    1
    28     3     1   ar
    29     4    17    1
    30     4     2   ar
    31    17    15   ar
    32    49    44    1
    33    44    47   ar
    34    18    30    1
    35    18    16   ar
    36    30    33   ar
    37    43    31    1
    38    43    46   ar
    39    31    34   ar
    40     1     2   ar
    41     1    10    1
    42     2     5    1
    43    15    16   ar
    44    15    23    1
    45    16    19    1
    46    47    46   ar
    47    47    54    1
    48    33    34   ar
    49    33    35    1
    50    46    48    1
    51    34    40    1
    52    24    23    1
    53    10    11    1
    54    10    12    1
    55    23    25    1
    56    54    53    3
    57    40    39    3
