@<TRIPOS>MOLECULE
mol_data/opt/m06hf/geoms/mol2/4hd4hd4hd-4hd.out
 54 57 0 0 0
SMALL
GASTEIGER

@<TRIPOS>ATOM
      1 C          -0.2617    0.2285    0.5278 C.ar    1  LIG1        0.0252
      2 C           1.1427    0.1796    0.5172 C.ar    1  LIG1       -0.0320
      3 C          -0.9046    1.3458   -0.0351 C.ar    1  LIG1       -0.0398
      4 C           1.8930    1.2120   -0.0336 C.ar    1  LIG1        0.0030
      5 H           1.6563   -0.6659    0.9598 H       1  LIG1        0.0642
      6 C          -0.1625    2.3714   -0.5888 C.ar    1  LIG1       -0.0420
      7 C           1.2342    2.3141   -0.5988 C.ar    1  LIG1        0.0596
      8 H          -0.6583    3.2280   -1.0251 H       1  LIG1        0.0631
      9 H          -1.9857    1.4022   -0.0264 H       1  LIG1        0.0636
     10 N          -0.9875   -0.7746    1.1110 N.pl3   1  LIG1       -0.3579
     11 H          -1.9799   -0.8218    0.9506 H       1  LIG1        0.1423
     12 H          -0.5320   -1.6384    1.3532 H       1  LIG1        0.1423
     13 N           2.5753    4.2365   -1.7110 N.1     1  LIG1       -0.1909
     14 C           1.9878    3.3830   -1.2155 C.1     1  LIG1        0.0998
     15 C           4.0625    0.1000   -0.6800 C.ar    1  LIG1        0.0330
     16 C           5.4676    0.0887   -0.6703 C.ar    1  LIG1       -0.0314
     17 C           3.3853    1.1453   -0.0171 C.ar    1  LIG1        0.0053
     18 C           6.1965    1.0751   -0.0253 C.ar    1  LIG1        0.0030
     19 H           5.9985   -0.6952   -1.1968 H       1  LIG1        0.0643
     20 C           4.1154    2.1323    0.6317 C.ar    1  LIG1       -0.0342
     21 C           5.5084    2.1043    0.6422 C.ar    1  LIG1        0.0602
     22 H           3.5949    2.9330    1.1420 H       1  LIG1        0.0637
     23 N           3.3667   -0.9011   -1.3166 N.pl3   1  LIG1       -0.3575
     24 H           2.4056   -0.7050   -1.5587 H       1  LIG1        0.1423
     25 H           3.8735   -1.4521   -1.9922 H       1  LIG1        0.1423
     26 N           6.8071    3.9627    1.9037 N.1     1  LIG1       -0.1908
     27 C           6.2370    3.1334    1.3510 C.1     1  LIG1        0.0998
     28 C           8.4173    2.0627   -0.7005 C.ar    1  LIG1        0.0330
     29 C           9.8236    2.0026   -0.6793 C.ar    1  LIG1       -0.0314
     30 C           7.6888    1.0420   -0.0459 C.ar    1  LIG1        0.0053
     31 C          10.5010    0.9753   -0.0439 C.ar    1  LIG1        0.0030
     32 H          10.3946    2.7695   -1.1880 H       1  LIG1        0.0643
     33 C           8.3665    0.0042    0.5753 C.ar    1  LIG1       -0.0342
     34 C           9.7606   -0.0411    0.5892 C.ar    1  LIG1        0.0602
     35 H           7.8021   -0.7670    1.0843 H       1  LIG1        0.0637
     36 N           7.7841    3.0558   -1.3848 N.pl3   1  LIG1       -0.3575
     37 H           8.3040    3.8815   -1.6334 H       1  LIG1        0.1423
     38 H           6.7878    3.1737   -1.2815 H       1  LIG1        0.1423
     39 N          10.9408   -2.0043    1.8066 N.1     1  LIG1       -0.1908
     40 C          10.4258   -1.1229    1.2797 C.1     1  LIG1        0.0998
     41 C          12.7443   -0.0465   -0.6223 C.ar    1  LIG1        0.0325
     42 C          14.1474    0.0024   -0.5434 C.ar    1  LIG1       -0.0392
     43 C          11.9953    0.9829   -0.0125 C.ar    1  LIG1        0.0053
     44 C          14.7880    1.0424    0.1008 C.ar    1  LIG1       -0.0426
     45 H          14.7262   -0.7843   -1.0102 H       1  LIG1        0.0636
     46 C          12.6492    2.0324    0.6218 C.ar    1  LIG1       -0.0348
     47 C          14.0407    2.0706    0.6833 C.ar    1  LIG1        0.0525
     48 H          12.0659    2.8151    1.0904 H       1  LIG1        0.0637
     49 H          15.8679    1.0692    0.1554 H       1  LIG1        0.0631
     50 N          12.1333   -1.0505   -1.3341 N.pl3   1  LIG1       -0.3575
     51 H          11.1384   -1.1678   -1.2167 H       1  LIG1        0.1423
     52 H          12.6454   -1.9125   -1.4384 H       1  LIG1        0.1423
     53 N          15.2356    4.0277    1.8958 N.1     1  LIG1       -0.1909
     54 C          14.7058    3.1620    1.3588 C.1     1  LIG1        0.0992
@<TRIPOS>BOND
     1    25    23    1
     2    13    14    3
     3    37    36    1
     4    24    23    1
     5    52    50    1
     6    36    38    1
     7    36    28    1
     8    50    51    1
     9    50    41    1
    10    23    15    1
    11    14     7    1
    12    19    16    1
    13    32    29    1
    14     8     6    1
    15    45    42    1
    16    28    29   ar
    17    28    30   ar
    18    15    16   ar
    19    15    17   ar
    20    29    31   ar
    21    16    18   ar
    22    41    42   ar
    23    41    43   ar
    24     7     6   ar
    25     7     4   ar
    26     6     3   ar
    27    42    44   ar
    28    30    18    1
    29    30    33   ar
    30    31    43    1
    31    31    34   ar
    32     3     9    1
    33     3     1   ar
    34     4    17    1
    35     4     2   ar
    36    18    21   ar
    37    17    20   ar
    38    43    46   ar
    39    44    49    1
    40    44    47   ar
    41     2     1   ar
    42     2     5    1
    43     1    10    1
    44    33    34   ar
    45    33    35    1
    46    34    40    1
    47    46    47   ar
    48    46    48    1
    49    20    21   ar
    50    20    22    1
    51    21    27    1
    52    47    54    1
    53    11    10    1
    54    10    12    1
    55    40    39    3
    56    27    26    3
    57    54    53    3
