@<TRIPOS>MOLECULE
mol_data/opt/m06hf/geoms/mol2/4hd4hd-4hd-4hd.out
 54 57 0 0 0
SMALL
GASTEIGER

@<TRIPOS>ATOM
      1 C          -0.2351    0.6333   -1.0022 C.ar    1  LIG1        0.0252
      2 C           1.1703    0.6550   -1.0204 C.ar    1  LIG1       -0.0320
      3 C          -0.9070    1.1920    0.0991 C.ar    1  LIG1       -0.0398
      4 C           1.8941    1.2089    0.0255 C.ar    1  LIG1        0.0030
      5 H           1.7040    0.2384   -1.8658 H       1  LIG1        0.0642
      6 C          -0.1915    1.7467    1.1433 C.ar    1  LIG1       -0.0420
      7 C           1.2061    1.7596    1.1199 C.ar    1  LIG1        0.0596
      8 H          -0.7086    2.1682    1.9947 H       1  LIG1        0.0631
      9 H          -1.9890    1.1785    0.1299 H       1  LIG1        0.0636
     10 N          -0.9344    0.0503   -2.0254 N.pl3   1  LIG1       -0.3579
     11 H          -1.9214    0.2328   -2.1052 H       1  LIG1        0.1423
     12 H          -0.4557   -0.1615   -2.8851 H       1  LIG1        0.1423
     13 N           2.4980    2.8304    3.0985 N.1     1  LIG1       -0.1909
     14 C           1.9325    2.3379    2.2284 C.1     1  LIG1        0.0998
     15 C           4.1319    2.3874   -0.0677 C.ar    1  LIG1        0.0330
     16 C           5.5357    2.3109   -0.0708 C.ar    1  LIG1       -0.0314
     17 C           3.3884    1.1875   -0.0114 C.ar    1  LIG1        0.0053
     18 C           6.1973    1.0915   -0.0352 C.ar    1  LIG1        0.0030
     19 H           6.1176    3.2248   -0.1004 H       1  LIG1        0.0643
     20 C           4.0512   -0.0317    0.0052 C.ar    1  LIG1       -0.0342
     21 C           5.4443   -0.0937   -0.0120 C.ar    1  LIG1        0.0602
     22 H           3.4758   -0.9478    0.0467 H       1  LIG1        0.0637
     23 N           3.5127    3.6050   -0.1695 N.pl3   1  LIG1       -0.3575
     24 H           4.0388    4.4172    0.1141 H       1  LIG1        0.1423
     25 H           2.5256    3.6494    0.0351 H       1  LIG1        0.1423
     26 N           6.6169   -2.4074   -0.0331 N.1     1  LIG1       -0.1908
     27 C           6.1016   -1.3814   -0.0206 C.1     1  LIG1        0.0998
     28 C           8.4326    1.5825   -1.0938 C.ar    1  LIG1        0.0330
     29 C           9.8345    1.4895   -1.0614 C.ar    1  LIG1       -0.0314
     30 C           7.6903    1.0456   -0.0217 C.ar    1  LIG1        0.0053
     31 C          10.4981    0.8944   -0.0004 C.ar    1  LIG1        0.0030
     32 H          10.4142    1.8737   -1.8920 H       1  LIG1        0.0643
     33 C           8.3541    0.4513    1.0437 C.ar    1  LIG1       -0.0342
     34 C           9.7454    0.3788    1.0696 C.ar    1  LIG1        0.0602
     35 H           7.7836    0.0461    1.8702 H       1  LIG1        0.0637
     36 N           7.8063    2.2017   -2.1482 N.pl3   1  LIG1       -0.3575
     37 H           8.3422    2.3334   -2.9915 H       1  LIG1        0.1423
     38 H           6.8249    2.0072   -2.2843 H       1  LIG1        0.1423
     39 N          10.9200   -0.7357    3.0970 N.1     1  LIG1       -0.1908
     40 C          10.4052   -0.2296    2.2042 C.1     1  LIG1        0.0998
     41 C          12.6386   -0.4405   -0.0438 C.ar    1  LIG1        0.0325
     42 C          14.0455   -0.4693   -0.0219 C.ar    1  LIG1       -0.0392
     43 C          11.9894    0.8137   -0.0041 C.ar    1  LIG1        0.0053
     44 C          14.7795    0.6994    0.0158 C.ar    1  LIG1       -0.0426
     45 H          14.5510   -1.4258   -0.0497 H       1  LIG1        0.0636
     46 C          12.7369    1.9839    0.0200 C.ar    1  LIG1       -0.0348
     47 C          14.1298    1.9379    0.0285 C.ar    1  LIG1        0.0525
     48 H          12.2275    2.9386    0.0521 H       1  LIG1        0.0637
     49 H          15.8605    0.6638    0.0307 H       1  LIG1        0.0631
     50 N          11.9290   -1.6052   -0.1583 N.pl3   1  LIG1       -0.3575
     51 H          10.9304   -1.5803   -0.0158 H       1  LIG1        0.1423
     52 H          12.3798   -2.4606    0.1244 H       1  LIG1        0.1423
     53 N          15.5106    4.1326    0.0668 N.1     1  LIG1       -0.1909
     54 C          14.8973    3.1621    0.0536 C.1     1  LIG1        0.0992
@<TRIPOS>BOND
     1    37    36    1
     2    12    10    1
     3    38    36    1
     4    36    28    1
     5    11    10    1
     6    10     1    1
     7    32    29    1
     8     5     2    1
     9    28    29   ar
    10    28    30   ar
    11    29    31   ar
    12     2     1   ar
    13     2     4   ar
    14     1     3   ar
    15    23    15    1
    16    23    25    1
    17    23    24    1
    18    50    41    1
    19    50    51    1
    20    50    52    1
    21    19    16    1
    22    16    15   ar
    23    16    18   ar
    24    15    17   ar
    25    45    42    1
    26    41    42   ar
    27    41    43   ar
    28    18    30    1
    29    18    21   ar
    30    26    27    3
    31    42    44   ar
    32    30    33   ar
    33    27    21    1
    34    21    20   ar
    35    17    20   ar
    36    17     4    1
    37    43    31    1
    38    43    46   ar
    39    31    34   ar
    40    20    22    1
    41    44    47   ar
    42    44    49    1
    43    46    47   ar
    44    46    48    1
    45     4     7   ar
    46    47    54    1
    47    54    53    3
    48     3     9    1
    49     3     6   ar
    50    33    34   ar
    51    33    35    1
    52    34    40    1
    53     7     6   ar
    54     7    14    1
    55     6     8    1
    56    40    39    3
    57    14    13    3
