@<TRIPOS>MOLECULE
mol_data/opt/m06hf/geoms/mol2/4hd4hd-.out
 28 29 0 0 0
SMALL
GASTEIGER

@<TRIPOS>ATOM
      1 C          -0.0222    0.1929   -0.5309 C.ar    1  LIG1        0.0252
      2 C           1.3821    0.2096   -0.5734 C.ar    1  LIG1       -0.0320
      3 C          -0.6931    1.2412    0.1220 C.ar    1  LIG1       -0.0398
      4 C           2.1094    1.2318    0.0198 C.ar    1  LIG1        0.0030
      5 H           1.9154   -0.5844   -1.0817 H       1  LIG1        0.0642
      6 C           0.0244    2.2647    0.7123 C.ar    1  LIG1       -0.0420
      7 C           1.4217    2.2705    0.6703 C.ar    1  LIG1        0.0596
      8 H          -0.4914    3.0674    1.2219 H       1  LIG1        0.0631
      9 H          -1.7744    1.2396    0.1678 H       1  LIG1        0.0636
     10 N          -0.7216   -0.8452   -1.0910 N.pl3   1  LIG1       -0.3579
     11 H          -1.7085   -0.7291   -1.2551 H       1  LIG1        0.1423
     12 H          -0.2431   -1.4578   -1.7312 H       1  LIG1        0.1423
     13 N           2.7053    4.2219    1.7996 N.1     1  LIG1       -0.1909
     14 C           2.1462    3.3452    1.3118 C.1     1  LIG1        0.0998
     15 C           4.3425    2.1787   -0.7015 C.ar    1  LIG1        0.0325
     16 C           5.7464    2.0904   -0.7020 C.ar    1  LIG1       -0.0392
     17 C           3.6029    1.1894   -0.0191 C.ar    1  LIG1        0.0053
     18 C           6.3941    1.0523   -0.0622 C.ar    1  LIG1       -0.0426
     19 H           6.3192    2.8449   -1.2255 H       1  LIG1        0.0636
     20 C           4.2637    0.1427    0.6126 C.ar    1  LIG1       -0.0348
     21 C           5.6546    0.0649    0.5958 C.ar    1  LIG1        0.0525
     22 H           3.6865   -0.6098    1.1346 H       1  LIG1        0.0637
     23 H           7.4744    0.9954   -0.0717 H       1  LIG1        0.0631
     24 N           3.7178    3.1778   -1.4059 N.pl3   1  LIG1       -0.3575
     25 H           4.2495    4.0159   -1.5808 H       1  LIG1        0.1423
     26 H           2.7367    3.3327   -1.2297 H       1  LIG1        0.1423
     27 N           6.8695   -1.9068    1.7639 N.1     1  LIG1       -0.1909
     28 C           6.3288   -1.0326    1.2519 C.1     1  LIG1        0.0992
@<TRIPOS>BOND
     1    12    10    1
     2    25    24    1
     3    24    26    1
     4    24    15    1
     5    11    10    1
     6    19    16    1
     7    10     1    1
     8     5     2    1
     9    16    15   ar
    10    16    18   ar
    11    15    17   ar
    12     2     1   ar
    13     2     4   ar
    14     1     3   ar
    15    23    18    1
    16    18    21   ar
    17    17     4    1
    18    17    20   ar
    19     4     7   ar
    20     3     9    1
    21     3     6   ar
    22    21    20   ar
    23    21    28    1
    24    20    22    1
    25     7     6   ar
    26     7    14    1
    27     6     8    1
    28    28    27    3
    29    14    13    3
