@<TRIPOS>MOLECULE
mol_data/opt/m06hf/geoms/mol2/4hd4hd-4hd-4hd-.out
 54 57 0 0 0
SMALL
GASTEIGER

@<TRIPOS>ATOM
      1 C          -0.2128    1.2247   -1.1896 C.ar    1  LIG1        0.0252
      2 C           1.1926    1.2540   -1.1663 C.ar    1  LIG1       -0.0320
      3 C          -0.9087    1.1292    0.0284 C.ar    1  LIG1       -0.0398
      4 C           1.8935    1.1812    0.0287 C.ar    1  LIG1        0.0030
      5 H           1.7442    1.3389   -2.0943 H       1  LIG1        0.0642
      6 C          -0.2162    1.0585    1.2224 C.ar    1  LIG1       -0.0420
      7 C           1.1816    1.0798    1.2361 C.ar    1  LIG1        0.0596
      8 H          -0.7517    0.9746    2.1583 H       1  LIG1        0.0631
      9 H          -1.9909    1.1016    0.0267 H       1  LIG1        0.0636
     10 N          -0.8884    1.2587   -2.3795 N.pl3   1  LIG1       -0.3579
     11 H          -1.8772    1.4474   -2.3750 H       1  LIG1        0.1423
     12 H          -0.3926    1.5160   -3.2166 H       1  LIG1        0.1423
     13 N           2.4351    0.9375    3.5026 N.1     1  LIG1       -0.1909
     14 C           1.8848    0.9829    2.4958 C.1     1  LIG1        0.0998
     15 C           4.1305    2.2111    0.6237 C.ar    1  LIG1        0.0330
     16 C           5.5341    2.1368    0.6002 C.ar    1  LIG1       -0.0314
     17 C           3.3880    1.1765    0.0114 C.ar    1  LIG1        0.0053
     18 C           6.1977    1.0884   -0.0212 C.ar    1  LIG1        0.0030
     19 H           6.1159    2.9166    1.0777 H       1  LIG1        0.0643
     20 C           4.0538    0.1395   -0.6271 C.ar    1  LIG1       -0.0342
     21 C           5.4470    0.0872   -0.6571 C.ar    1  LIG1        0.0602
     22 H           3.4794   -0.6490   -1.0967 H       1  LIG1        0.0637
     23 N           3.5133    3.2977    1.1854 N.pl3   1  LIG1       -0.3575
     24 H           4.0374    3.8230    1.8683 H       1  LIG1        0.1423
     25 H           2.5239    3.2339    1.3723 H       1  LIG1        0.1423
     26 N           6.6111   -1.8480   -1.9328 N.1     1  LIG1       -0.1908
     27 C           6.1042   -0.9918   -1.3600 C.1     1  LIG1        0.0998
     28 C           8.4446    2.0548   -0.6257 C.ar    1  LIG1        0.0330
     29 C           9.8455    1.9715   -0.5964 C.ar    1  LIG1       -0.0314
     30 C           7.6909    1.0361   -0.0058 C.ar    1  LIG1        0.0053
     31 C          10.4964    0.9203    0.0350 C.ar    1  LIG1        0.0030
     32 H          10.4382    2.7443   -1.0714 H       1  LIG1        0.0643
     33 C           8.3416   -0.0218    0.6144 C.ar    1  LIG1       -0.0342
     34 C           9.7343   -0.0879    0.6437 C.ar    1  LIG1        0.0602
     35 H           7.7602   -0.8074    1.0804 H       1  LIG1        0.0637
     36 N           7.8258    3.1283   -1.2212 N.pl3   1  LIG1       -0.3575
     37 H           8.3766    3.6881   -1.8529 H       1  LIG1        0.1423
     38 H           6.8521    3.0261   -1.4668 H       1  LIG1        0.1423
     39 N          10.8783   -2.1009    1.8135 N.1     1  LIG1       -0.1908
     40 C          10.3809   -1.2077    1.2916 C.1     1  LIG1        0.0998
     41 C          12.6887    0.7012   -1.1711 C.ar    1  LIG1        0.0325
     42 C          14.0928    0.6750   -1.1467 C.ar    1  LIG1       -0.0392
     43 C          11.9906    0.8723    0.0412 C.ar    1  LIG1        0.0053
     44 C          14.7812    0.8068    0.0445 C.ar    1  LIG1       -0.0426
     45 H          14.6354    0.5482   -2.0746 H       1  LIG1        0.0636
     46 C          12.6890    0.9897    1.2365 C.ar    1  LIG1       -0.0348
     47 C          14.0824    0.9628    1.2446 C.ar    1  LIG1        0.0525
     48 H          12.1447    1.1050    2.1650 H       1  LIG1        0.0637
     49 H          15.8627    0.7853    0.0554 H       1  LIG1        0.0631
     50 N          12.0078    0.5959   -2.3673 N.pl3   1  LIG1       -0.3575
     51 H          12.5151    0.1748   -3.1312 H       1  LIG1        0.1423
     52 H          11.0411    0.3063   -2.3080 H       1  LIG1        0.1423
     53 N          15.3922    1.2212    3.4687 N.1     1  LIG1       -0.1909
     54 C          14.8071    1.1032    2.4880 C.1     1  LIG1        0.0992
@<TRIPOS>BOND
     1    12    10    1
     2    51    50    1
     3    10    11    1
     4    10     1    1
     5    50    52    1
     6    50    41    1
     7     5     2    1
     8    45    42    1
     9    26    27    3
    10    37    36    1
    11    38    36    1
    12    27    21    1
    13    36    28    1
    14     1     2   ar
    15     1     3   ar
    16    41    42   ar
    17    41    43   ar
    18     2     4   ar
    19    42    44   ar
    20    22    20    1
    21    32    29    1
    22    21    20   ar
    23    21    18   ar
    24    20    17   ar
    25    28    29   ar
    26    28    30   ar
    27    29    31   ar
    28    18    30    1
    29    18    16   ar
    30    30    33   ar
    31    17     4    1
    32    17    15   ar
    33     9     3    1
    34     3     6   ar
    35     4     7   ar
    36    31    43    1
    37    31    34   ar
    38    43    46   ar
    39    44    49    1
    40    44    47   ar
    41    16    15   ar
    42    16    19    1
    43    33    34   ar
    44    33    35    1
    45    15    23    1
    46    34    40    1
    47    23    25    1
    48    23    24    1
    49     6     7   ar
    50     6     8    1
    51     7    14    1
    52    46    47   ar
    53    46    48    1
    54    47    54    1
    55    40    39    3
    56    54    53    3
    57    14    13    3
