@<TRIPOS>MOLECULE
mol_data/opt/m06hf/geoms/mol2/4hd4hd.out
 28 29 0 0 0
SMALL
GASTEIGER

@<TRIPOS>ATOM
      1 C          -0.0181    0.1522    0.4720 C.ar    1  LIG1        0.0252
      2 C           1.3854    0.1593    0.4779 C.ar    1  LIG1       -0.0320
      3 C          -0.6980    1.2300   -0.1219 C.ar    1  LIG1       -0.0398
      4 C           2.1047    1.2057   -0.0896 C.ar    1  LIG1        0.0030
      5 H           1.9275   -0.6557    0.9430 H       1  LIG1        0.0642
      6 C           0.0108    2.2700   -0.6925 C.ar    1  LIG1       -0.0420
      7 C           1.4088    2.2676   -0.6869 C.ar    1  LIG1        0.0596
      8 H          -0.5128    3.0960   -1.1544 H       1  LIG1        0.0631
      9 H          -1.7802    1.2448   -0.1252 H       1  LIG1        0.0636
     10 N          -0.7125   -0.8673    1.0740 N.pl3   1  LIG1       -0.3579
     11 H          -1.6918   -0.9721    0.8649 H       1  LIG1        0.1423
     12 H          -0.2200   -1.7147    1.3043 H       1  LIG1        0.1423
     13 N           2.6572    4.2413   -1.8160 N.1     1  LIG1       -0.1909
     14 C           2.1184    3.3606   -1.3136 C.1     1  LIG1        0.0998
     15 C           4.3153    0.1231   -0.6259 C.ar    1  LIG1        0.0325
     16 C           5.7168    0.1171   -0.5372 C.ar    1  LIG1       -0.0392
     17 C           3.5984    1.1858   -0.0384 C.ar    1  LIG1        0.0053
     18 C           6.3898    1.1367    0.1089 C.ar    1  LIG1       -0.0426
     19 H           6.2706   -0.6998   -0.9818 H       1  LIG1        0.0636
     20 C           4.2845    2.2132    0.5993 C.ar    1  LIG1       -0.0348
     21 C           5.6753    2.1938    0.6792 C.ar    1  LIG1        0.0525
     22 H           3.7310    3.0313    1.0418 H       1  LIG1        0.0637
     23 H           7.4695    1.1241    0.1734 H       1  LIG1        0.0631
     24 N           3.6556   -0.9169   -1.2519 N.pl3   1  LIG1       -0.3575
     25 H           2.7145   -0.7249   -1.5655 H       1  LIG1        0.1423
     26 H           4.2038   -1.4643   -1.8983 H       1  LIG1        0.1423
     27 N           6.9514    4.0824    1.9177 N.1     1  LIG1       -0.1909
     28 C           6.3806    3.2535    1.3654 C.1     1  LIG1        0.0992
@<TRIPOS>BOND
     1    26    24    1
     2    13    14    3
     3    25    24    1
     4    14     7    1
     5    24    15    1
     6     8     6    1
     7    19    16    1
     8     6     7   ar
     9     6     3   ar
    10     7     4   ar
    11    15    16   ar
    12    15    17   ar
    13    16    18   ar
    14     9     3    1
    15     3     1   ar
    16     4    17    1
    17     4     2   ar
    18    17    20   ar
    19    18    23    1
    20    18    21   ar
    21     1     2   ar
    22     1    10    1
    23     2     5    1
    24    20    21   ar
    25    20    22    1
    26    21    28    1
    27    11    10    1
    28    10    12    1
    29    28    27    3
