@<TRIPOS>MOLECULE
mol_data/opt/m06hf/geoms/mol2/4hd4hd4hd-4hd-.out
 54 57 0 0 0
SMALL
GASTEIGER

@<TRIPOS>ATOM
      1 C          -0.2616    0.0598    0.0636 C.ar    1  LIG1        0.0252
      2 C           1.1436    0.0180    0.0619 C.ar    1  LIG1       -0.0320
      3 C          -0.9016    1.3120    0.0166 C.ar    1  LIG1       -0.0398
      4 C           1.8942    1.1866    0.0213 C.ar    1  LIG1        0.0030
      5 H           1.6561   -0.9356    0.1096 H       1  LIG1        0.0642
      6 C          -0.1580    2.4759   -0.0303 C.ar    1  LIG1       -0.0420
      7 C           1.2390    2.4261   -0.0328 C.ar    1  LIG1        0.0596
      8 H          -0.6526    3.4369   -0.0702 H       1  LIG1        0.0631
      9 H          -1.9830    1.3600    0.0238 H       1  LIG1        0.0636
     10 N          -0.9908   -1.0937    0.1440 N.pl3   1  LIG1       -0.3579
     11 H          -1.9826   -1.0687   -0.0226 H       1  LIG1        0.1423
     12 H          -0.5342   -1.9819    0.0230 H       1  LIG1        0.1423
     13 N           2.6081    4.6245   -0.1813 N.1     1  LIG1       -0.1909
     14 C           2.0038    3.6504   -0.1138 C.1     1  LIG1        0.0998
     15 C           4.0787    0.5223   -1.0431 C.ar    1  LIG1        0.0330
     16 C           5.4839    0.5220   -1.0278 C.ar    1  LIG1       -0.0314
     17 C           3.3871    1.1215    0.0295 C.ar    1  LIG1        0.0053
     18 C           6.1971    1.0869    0.0175 C.ar    1  LIG1        0.0030
     19 H           6.0265    0.0900   -1.8599 H       1  LIG1        0.0643
     20 C           4.1005    1.6833    1.0794 C.ar    1  LIG1       -0.0342
     21 C           5.4940    1.6632    1.0899 C.ar    1  LIG1        0.0602
     22 H           3.5671    2.1395    1.9038 H       1  LIG1        0.0637
     23 N           3.3963   -0.0654   -2.0809 N.pl3   1  LIG1       -0.3575
     24 H           2.4301    0.2010   -2.2050 H       1  LIG1        0.1423
     25 H           3.9088   -0.2369   -2.9318 H       1  LIG1        0.1423
     26 N           6.7630    2.7162    3.0929 N.1     1  LIG1       -0.1908
     27 C           6.2060    2.2379    2.2103 C.1     1  LIG1        0.0998
     28 C           8.4155    2.2892   -0.0676 C.ar    1  LIG1        0.0330
     29 C           9.8204    2.2300   -0.0576 C.ar    1  LIG1       -0.0314
     30 C           7.6900    1.0775   -0.0051 C.ar    1  LIG1        0.0053
     31 C          10.5006    1.0206   -0.0132 C.ar    1  LIG1        0.0030
     32 H          10.3907    3.1508   -0.0908 H       1  LIG1        0.0643
     33 C           8.3701   -0.1309    0.0227 C.ar    1  LIG1       -0.0342
     34 C           9.7643   -0.1750    0.0125 C.ar    1  LIG1        0.0602
     35 H           7.8076   -1.0549    0.0660 H       1  LIG1        0.0637
     36 N           7.7802    3.4933   -0.1859 N.pl3   1  LIG1       -0.3575
     37 H           8.2911    4.3248    0.0642 H       1  LIG1        0.1423
     38 H           6.7841    3.5358   -0.0299 H       1  LIG1        0.1423
     39 N          10.9260   -2.4937    0.0032 N.1     1  LIG1       -0.1908
     40 C          10.4267   -1.4597    0.0111 C.1     1  LIG1        0.0998
     41 C          12.7248    1.6074   -1.0417 C.ar    1  LIG1        0.0325
     42 C          14.1282    1.5971   -0.9841 C.ar    1  LIG1       -0.0392
     43 C          11.9947    1.0111    0.0083 C.ar    1  LIG1        0.0053
     44 C          14.7906    1.0123    0.0781 C.ar    1  LIG1       -0.0426
     45 H          14.6918    2.0567   -1.7863 H       1  LIG1        0.0636
     46 C          12.6700    0.4169    1.0683 C.ar    1  LIG1       -0.0348
     47 C          14.0626    0.4158    1.1117 C.ar    1  LIG1        0.0525
     48 H          12.1067   -0.0423    1.8708 H       1  LIG1        0.0637
     49 H          15.8716    1.0108    0.1144 H       1  LIG1        0.0631
     50 N          12.0814    2.2230   -2.0955 N.pl3   1  LIG1       -0.3575
     51 H          12.6240    2.3635   -2.9339 H       1  LIG1        0.1423
     52 H          11.1191    1.9617   -2.2559 H       1  LIG1        0.1423
     53 N          15.3104   -0.6726    3.1085 N.1     1  LIG1       -0.1909
     54 C          14.7540   -0.1946    2.2254 C.1     1  LIG1        0.0992
@<TRIPOS>BOND
     1    51    50    1
     2    25    23    1
     3    52    50    1
     4    24    23    1
     5    50    41    1
     6    23    15    1
     7    19    16    1
     8    45    42    1
     9    15    16   ar
    10    15    17   ar
    11    41    42   ar
    12    41    43   ar
    13    16    18   ar
    14    42    44   ar
    15    36    28    1
    16    36    38    1
    17    36    37    1
    18    13    14    3
    19    14     7    1
    20    32    29    1
    21     8     6    1
    22    28    29   ar
    23    28    30   ar
    24    29    31   ar
    25     7     6   ar
    26     7     4   ar
    27     6     3   ar
    28    11    10    1
    29    31    43    1
    30    31    34   ar
    31    30    18    1
    32    30    33   ar
    33    39    40    3
    34    43    46   ar
    35    40    34    1
    36    34    33   ar
    37     3     9    1
    38     3     1   ar
    39    18    21   ar
    40     4    17    1
    41     4     2   ar
    42    33    35    1
    43    12    10    1
    44    17    20   ar
    45     2     1   ar
    46     2     5    1
    47     1    10    1
    48    44    49    1
    49    44    47   ar
    50    46    47   ar
    51    46    48    1
    52    20    21   ar
    53    20    22    1
    54    21    27    1
    55    47    54    1
    56    27    26    3
    57    54    53    3
