@<TRIPOS>MOLECULE
mol_data/opt/m06hf/geoms/mol2/4hd4hd-4hd4hd-.out
 54 57 0 0 0
SMALL
GASTEIGER

@<TRIPOS>ATOM
      1 C          -0.2707    0.2289    0.3742 C.ar    1  LIG1        0.0252
      2 C           1.1327    0.2213    0.4534 C.ar    1  LIG1       -0.0320
      3 C          -0.9055    1.2854   -0.3025 C.ar    1  LIG1       -0.0398
      4 C           1.8915    1.2252   -0.1308 C.ar    1  LIG1        0.0030
      5 H           1.6371   -0.5739    0.9888 H       1  LIG1        0.0642
      6 C          -0.1555    2.2901   -0.8841 C.ar    1  LIG1       -0.0420
      7 C           1.2401    2.2696   -0.8098 C.ar    1  LIG1        0.0596
      8 H          -0.6439    3.0974   -1.4134 H       1  LIG1        0.0631
      9 H          -1.9859    1.3097   -0.3649 H       1  LIG1        0.0636
     10 N          -1.0069   -0.7533    0.9845 N.pl3   1  LIG1       -0.3579
     11 H          -1.9749   -0.8586    0.7278 H       1  LIG1        0.1423
     12 H          -0.5403   -1.5976    1.2735 H       1  LIG1        0.1423
     13 N           2.6002    4.1620   -1.9501 N.1     1  LIG1       -0.1909
     14 C           2.0038    3.3150   -1.4542 C.1     1  LIG1        0.0998
     15 C           4.1204    2.1691    0.6092 C.ar    1  LIG1        0.0330
     16 C           5.5249    2.0816    0.6155 C.ar    1  LIG1       -0.0314
     17 C           3.3830    1.1677   -0.0632 C.ar    1  LIG1        0.0053
     18 C           6.1937    1.0414   -0.0079 C.ar    1  LIG1        0.0030
     19 H           6.1001    2.8363    1.1376 H       1  LIG1        0.0643
     20 C           4.0531    0.1168   -0.6722 C.ar    1  LIG1       -0.0342
     21 C           5.4455    0.0408   -0.6558 C.ar    1  LIG1        0.0602
     22 H           3.4841   -0.6405   -1.1967 H       1  LIG1        0.0637
     23 N           3.4948    3.1733    1.2900 N.pl3   1  LIG1       -0.3575
     24 H           4.0243    4.0007    1.5128 H       1  LIG1        0.1423
     25 H           2.5071    3.3137    1.1427 H       1  LIG1        0.1423
     26 N           6.6121   -1.9442   -1.8507 N.1     1  LIG1       -0.1908
     27 C           6.1036   -1.0541   -1.3327 C.1     1  LIG1        0.0998
     28 C           8.3954   -0.0302    0.6325 C.ar    1  LIG1        0.0330
     29 C           9.8009   -0.0179    0.5862 C.ar    1  LIG1       -0.0314
     30 C           7.6875    1.0100   -0.0094 C.ar    1  LIG1        0.0053
     31 C          10.5007    0.9837   -0.0665 C.ar    1  LIG1        0.0030
     32 H          10.3549   -0.8001    1.0905 H       1  LIG1        0.0643
     33 C           8.3877    2.0224   -0.6508 C.ar    1  LIG1       -0.0342
     34 C           9.7817    2.0195   -0.6913 C.ar    1  LIG1        0.0602
     35 H           7.8394    2.8087   -1.1543 H       1  LIG1        0.0637
     36 N           7.7435   -1.0027    1.3398 N.pl3   1  LIG1       -0.3575
     37 H           6.7471   -1.0964    1.2166 H       1  LIG1        0.1423
     38 H           8.2374   -1.8623    1.5203 H       1  LIG1        0.1423
     39 N          11.0215    3.9276   -1.9375 N.1     1  LIG1       -0.1908
     40 C          10.4748    3.0726   -1.3996 C.1     1  LIG1        0.0998
     41 C          12.7866    1.9345    0.4655 C.ar    1  LIG1        0.0325
     42 C          14.1858    1.8374    0.3630 C.ar    1  LIG1       -0.0392
     43 C          11.9931    0.9265   -0.1237 C.ar    1  LIG1        0.0053
     44 C          14.7799    0.7718   -0.2837 C.ar    1  LIG1       -0.0426
     45 H          14.7987    2.6079    0.8131 H       1  LIG1        0.0636
     46 C          12.6005   -0.1489   -0.7611 C.ar    1  LIG1       -0.0348
     47 C          13.9886   -0.2352   -0.8449 C.ar    1  LIG1        0.0525
     48 H          11.9833   -0.9146   -1.2141 H       1  LIG1        0.0637
     49 H          15.8572    0.7086   -0.3570 H       1  LIG1        0.0631
     50 N          12.2225    2.9637    1.1792 N.pl3   1  LIG1       -0.3575
     51 H          12.7659    3.8081    1.2690 H       1  LIG1        0.1423
     52 H          11.2305    3.1157    1.0767 H       1  LIG1        0.1423
     53 N          15.0941   -2.2459   -2.0547 N.1     1  LIG1       -0.1909
     54 C          14.6043   -1.3554   -1.5199 C.1     1  LIG1        0.0992
@<TRIPOS>BOND
     1    53    54    3
     2    13    14    3
     3    39    40    3
     4    26    27    3
     5    54    47    1
     6    14     7    1
     7     8     6    1
     8    40    34    1
     9    27    21    1
    10    48    46    1
    11    22    20    1
    12    35    33    1
    13     6     7   ar
    14     6     3   ar
    15    47    46   ar
    16    47    44   ar
    17     7     4   ar
    18    46    43   ar
    19    34    33   ar
    20    34    31   ar
    21    20    21   ar
    22    20    17   ar
    23    21    18   ar
    24    33    30   ar
    25     9     3    1
    26    49    44    1
    27     3     1   ar
    28    44    42   ar
    29     4    17    1
    30     4     2   ar
    31    43    31    1
    32    43    41   ar
    33    31    29   ar
    34    17    15   ar
    35    30    18    1
    36    30    28   ar
    37    18    16   ar
    38    42    41   ar
    39    42    45    1
    40     1     2   ar
    41     1    10    1
    42     2     5    1
    43    41    50    1
    44    29    28   ar
    45    29    32    1
    46    15    16   ar
    47    15    23    1
    48    16    19    1
    49    28    36    1
    50    11    10    1
    51    10    12    1
    52    52    50    1
    53    25    23    1
    54    50    51    1
    55    37    36    1
    56    23    24    1
    57    36    38    1
