@<TRIPOS>MOLECULE
mol_data/opt/m06hf/geoms/mol2/4hd4hd4hd4hd-.out
 54 57 0 0 0
SMALL
GASTEIGER

@<TRIPOS>ATOM
      1 C          -0.2662    1.3322    1.0019 C.ar    1  LIG1        0.0252
      2 C           1.1375    1.2729    1.0674 C.ar    1  LIG1       -0.0320
      3 C          -0.8952    1.1486   -0.2424 C.ar    1  LIG1       -0.0398
      4 C           1.8979    1.0448   -0.0690 C.ar    1  LIG1        0.0030
      5 H           1.6397    1.4014    2.0184 H       1  LIG1        0.0642
      6 C          -0.1414    0.9195   -1.3785 C.ar    1  LIG1       -0.0420
      7 C           1.2529    0.8679   -1.3057 C.ar    1  LIG1        0.0596
      8 H          -0.6270    0.7867   -2.3360 H       1  LIG1        0.0631
      9 H          -1.9746    1.1948   -0.3087 H       1  LIG1        0.0636
     10 N          -1.0024    1.5928    2.1262 N.pl3   1  LIG1       -0.3579
     11 H          -1.9941    1.4195    2.1097 H       1  LIG1        0.1423
     12 H          -0.5580    1.5214    3.0268 H       1  LIG1        0.1423
     13 N           2.6591    0.4442   -3.4446 N.1     1  LIG1       -0.1909
     14 C           2.0343    0.6453   -2.5021 C.1     1  LIG1        0.0998
     15 C           4.0980   -0.1775   -0.2718 C.ar    1  LIG1        0.0330
     16 C           5.5025   -0.1441   -0.2522 C.ar    1  LIG1       -0.0314
     17 C           3.3892    1.0121    0.0124 C.ar    1  LIG1        0.0053
     18 C           6.1981    1.0178    0.0533 C.ar    1  LIG1        0.0030
     19 H           6.0596   -1.0474   -0.4720 H       1  LIG1        0.0643
     20 C           4.0845    2.1652    0.3428 C.ar    1  LIG1       -0.0342
     21 C           5.4793    2.1830    0.3644 C.ar    1  LIG1        0.0602
     22 H           3.5349    3.0740    0.5535 H       1  LIG1        0.0637
     23 N           3.4407   -1.3503   -0.5169 N.pl3   1  LIG1       -0.3575
     24 H           2.4505   -1.3166   -0.7054 H       1  LIG1        0.1423
     25 H           3.9470   -2.0939   -0.9701 H       1  LIG1        0.1423
     26 N           6.7108    4.4008    0.9070 N.1     1  LIG1       -0.1908
     27 C           6.1702    3.4169    0.6647 C.1     1  LIG1        0.0998
     28 C           8.3793    0.7047   -1.1620 C.ar    1  LIG1        0.0330
     29 C           9.7849    0.7415   -1.1597 C.ar    1  LIG1       -0.0314
     30 C           7.6907    1.0202    0.0301 C.ar    1  LIG1        0.0053
     31 C          10.5013    1.0781   -0.0229 C.ar    1  LIG1        0.0030
     32 H          10.3256    0.5224   -2.0725 H       1  LIG1        0.0643
     33 C           8.4082    1.3591    1.1692 C.ar    1  LIG1       -0.0342
     34 C           9.8013    1.3832    1.1589 C.ar    1  LIG1        0.0602
     35 H           7.8787    1.6008    2.0821 H       1  LIG1        0.0637
     36 N           7.7013    0.3554   -2.3026 N.pl3   1  LIG1       -0.3575
     37 H           6.7236    0.6032   -2.3634 H       1  LIG1        0.1423
     38 H           8.2094    0.3914   -3.1724 H       1  LIG1        0.1423
     39 N          11.0738    1.9817    3.3394 N.1     1  LIG1       -0.1908
     40 C          10.5169    1.7096    2.3728 C.1     1  LIG1        0.0998
     41 C          12.6827    2.3355    0.1081 C.ar    1  LIG1        0.0325
     42 C          14.0896    2.3226    0.0805 C.ar    1  LIG1       -0.0392
     43 C          11.9939    1.1137   -0.0622 C.ar    1  LIG1        0.0053
     44 C          14.7868    1.1480   -0.1223 C.ar    1  LIG1       -0.0426
     45 H          14.6254    3.2541    0.2096 H       1  LIG1        0.0636
     46 C          12.7035   -0.0596   -0.2781 C.ar    1  LIG1       -0.0348
     47 C          14.0971   -0.0541   -0.3095 C.ar    1  LIG1        0.0525
     48 H          12.1642   -0.9895   -0.4057 H       1  LIG1        0.0637
     49 H          15.8684    1.1526   -0.1421 H       1  LIG1        0.0631
     50 N          12.0073    3.5176    0.2429 N.pl3   1  LIG1       -0.3575
     51 H          12.4976    4.2993    0.6467 H       1  LIG1        0.1423
     52 H          11.0147    3.4923    0.4215 H       1  LIG1        0.1423
     53 N          15.3824   -2.2691   -0.7197 N.1     1  LIG1       -0.1909
     54 C          14.8169   -1.2868   -0.5343 C.1     1  LIG1        0.0992
@<TRIPOS>BOND
     1    13    14    3
     2    38    36    1
     3    14     7    1
     4    37    36    1
     5     8     6    1
     6    36    28    1
     7    32    29    1
     8     6     7   ar
     9     6     3   ar
    10     7     4   ar
    11    28    29   ar
    12    28    30   ar
    13    29    31   ar
    14    25    23    1
    15    53    54    3
    16    24    23    1
    17    54    47    1
    18    23    15    1
    19    19    16    1
    20    48    46    1
    21    47    46   ar
    22    47    44   ar
    23     9     3    1
    24    46    43   ar
    25    15    16   ar
    26    15    17   ar
    27    16    18   ar
    28     3     1   ar
    29    49    44    1
    30    44    42   ar
    31     4    17    1
    32     4     2   ar
    33    43    31    1
    34    43    41   ar
    35    31    34   ar
    36    17    20   ar
    37    30    18    1
    38    30    33   ar
    39    18    21   ar
    40    42    41   ar
    41    42    45    1
    42    41    50    1
    43    50    52    1
    44    50    51    1
    45    20    21   ar
    46    20    22    1
    47    21    27    1
    48    27    26    3
    49     1     2   ar
    50     1    10    1
    51     2     5    1
    52    34    33   ar
    53    34    40    1
    54    33    35    1
    55    11    10    1
    56    10    12    1
    57    40    39    3
