@<TRIPOS>MOLECULE
mol_data/opt/m06hf/geoms/mol2/4he12al12de-4ah-.out
 49 52 0 0 0
SMALL
GASTEIGER

@<TRIPOS>ATOM
      1 C          -0.0303   -0.0852   -0.5811 C.ar    1  LIG1        0.0253
      2 C           1.3615    0.0232   -0.5061 C.ar    1  LIG1       -0.0292
      3 C          -0.8086    1.0175   -0.2015 C.ar    1  LIG1       -0.0399
      4 C           1.9717    1.1907   -0.0556 C.ar    1  LIG1        0.0345
      5 H           1.9811   -0.8067   -0.8235 H       1  LIG1        0.0643
      6 C          -0.2015    2.1819    0.2350 C.ar    1  LIG1       -0.0439
      7 C           1.1909    2.2979    0.3213 C.ar    1  LIG1        0.0354
      8 H          -0.8069    3.0284    0.5299 H       1  LIG1        0.0630
      9 H          -1.8886    0.9531   -0.2486 H       1  LIG1        0.0636
     10 N          -0.6282   -1.2685   -0.9867 N.pl3   1  LIG1       -0.3579
     11 H          -1.5694   -1.1904   -1.3416 H       1  LIG1        0.1423
     12 H          -0.0513   -1.8999   -1.5219 H       1  LIG1        0.1423
     13 C           1.7465    3.5310    0.8273 C.1     1  LIG1       -0.0690
     14 C           2.1475    4.5751    1.2704 C.1     1  LIG1       -0.1139
     15 H           2.5185    5.4947    1.6647 H       1  LIG1        0.1232
     16 C           3.4422    1.2097    0.0327 C.ar    1  LIG1        0.1407
     17 C           4.3414    0.2228    0.3316 C.ar    1  LIG1        0.0268
     18 C           5.6287    0.8515    0.2790 C.ar    1  LIG1        0.1693
     19 C           5.4030    2.1590   -0.0532 C.ar    1  LIG1        0.2132
     20 O           4.0750    2.3637   -0.2050 O.2     1  LIG1       -0.4478
     21 H           4.1071   -0.7925    0.6007 H       1  LIG1        0.0692
     22 O           6.8476    0.3521    0.5264 O.3     1  LIG1       -0.4912
     23 C           6.9228   -1.0265    0.8486 C.3     1  LIG1        0.0790
     24 H           7.9801   -1.2431    0.9669 H       1  LIG1        0.0660
     25 H           6.3898   -1.2281    1.7804 H       1  LIG1        0.0660
     26 H           6.5074   -1.6287    0.0376 H       1  LIG1        0.0660
     27 C           6.2627    3.3114   -0.1809 C.ar    1  LIG1        0.1928
     28 C           7.6063    3.5082   -0.3365 C.ar    1  LIG1        0.1166
     29 C           7.8025    4.9434   -0.3457 C.ar    1  LIG1        0.0885
     30 C           6.5594    5.4936   -0.2035 C.ar    1  LIG1        0.1525
     31 O           5.6482    4.5010   -0.1042 O.2     1  LIG1       -0.4490
     32 N           9.4791    1.7651   -0.6572 N.1     1  LIG1       -0.1907
     33 C           8.6327    2.5250   -0.5062 C.1     1  LIG1        0.1043
     34 C           9.0588    5.6062   -0.5034 C.1     1  LIG1       -0.0645
     35 C          10.1280    6.1377   -0.6386 C.1     1  LIG1       -0.1138
     36 H          11.0812    6.5978   -0.7640 H       1  LIG1        0.1232
     37 C           6.8559    7.9628    0.0445 C.ar    1  LIG1       -0.0509
     38 C           6.2755    9.2243    0.1229 C.ar    1  LIG1       -0.0594
     39 C           6.0210    6.8589   -0.1363 C.ar    1  LIG1        0.0203
     40 C           4.8987    9.3917    0.0326 C.ar    1  LIG1       -0.0410
     41 H           6.9043   10.0934    0.2663 H       1  LIG1        0.0618
     42 C           4.6382    7.0141   -0.2385 C.ar    1  LIG1       -0.0303
     43 C           4.0632    8.2824   -0.1482 C.ar    1  LIG1        0.0252
     44 H           4.0117    6.1419   -0.3828 H       1  LIG1        0.0643
     45 H           4.4634   10.3804    0.1109 H       1  LIG1        0.0636
     46 H           7.9252    7.8319    0.1295 H       1  LIG1        0.0625
     47 N           2.6747    8.4235   -0.1791 N.pl3   1  LIG1       -0.3579
     48 H           2.3409    9.3324   -0.4661 H       1  LIG1        0.1423
     49 H           2.1821    7.6716   -0.6409 H       1  LIG1        0.1423
@<TRIPOS>BOND
     1    12    10    1
     2    11    10    1
     3    10     1    1
     4     5     2    1
     5    36    35    1
     6    32    33    3
     7    49    47    1
     8    35    34    3
     9     1     2   ar
    10     1     3   ar
    11    33    28    1
    12     2     4   ar
    13    34    29    1
    14    48    47    1
    15    44    42    1
    16    29    28   ar
    17    29    30   ar
    18    28    27   ar
    19     9     3    1
    20    42    43   ar
    21    42    39   ar
    22    20    19   ar
    23    20    16   ar
    24    30    39    1
    25    30    31   ar
    26     3     6   ar
    27    27    31   ar
    28    27    19    1
    29    47    43    1
    30    43    40   ar
    31    39    37   ar
    32     4    16    1
    33     4     7   ar
    34    19    18   ar
    35    40    45    1
    36    40    38   ar
    37    16    17   ar
    38    26    23    1
    39    37    38   ar
    40    37    46    1
    41    38    41    1
    42     6     7   ar
    43     6     8    1
    44    18    17   ar
    45    18    22    1
    46     7    13    1
    47    17    21    1
    48    22    23    1
    49    13    14    3
    50    23    24    1
    51    23    25    1
    52    14    15    1
