@<TRIPOS>MOLECULE
mol_data/opt/m06hf/geoms/mol2/4he12ff6he4fi-.out
 52 55 0 0 0
SMALL
GASTEIGER

@<TRIPOS>ATOM
      1 C          -0.0171   -0.4306   -0.0040 C.ar    1  LIG1        0.0253
      2 C           1.3264   -0.1516   -0.2602 C.ar    1  LIG1       -0.0291
      3 C          -0.7794    0.5010    0.7164 C.ar    1  LIG1       -0.0399
      4 C           1.9207    1.0295    0.1886 C.ar    1  LIG1        0.0381
      5 H           1.9239   -0.8638   -0.8148 H       1  LIG1        0.0643
      6 C          -0.1939    1.6717    1.1582 C.ar    1  LIG1       -0.0439
      7 C           1.1543    1.9638    0.9117 C.ar    1  LIG1        0.0356
      8 H          -0.7773    2.3911    1.7170 H       1  LIG1        0.0630
      9 H          -1.8201    0.2948    0.9318 H       1  LIG1        0.0636
     10 N          -0.5766   -1.6309   -0.4167 N.pl3   1  LIG1       -0.3579
     11 H          -1.5787   -1.6368   -0.5336 H       1  LIG1        0.1423
     12 H          -0.0843   -2.1183   -1.1504 H       1  LIG1        0.1423
     13 C           1.6647    3.2046    1.4447 C.1     1  LIG1       -0.0689
     14 C           2.0057    4.2478    1.9401 C.1     1  LIG1       -0.1139
     15 H           2.3344    5.1515    2.3988 H       1  LIG1        0.1232
     16 C           3.3337    1.2361   -0.1385 C.ar    1  LIG1        0.1819
     17 C           4.2518    0.4453   -0.7681 C.ar    1  LIG1        0.2059
     18 C           5.4645    1.1960   -0.8381 C.ar    1  LIG1        0.2059
     19 C           5.2232    2.3938   -0.2394 C.ar    1  LIG1        0.1840
     20 O           3.9360    2.4150    0.1753 O.2     1  LIG1       -0.4471
     21 O           4.0952   -0.8031   -1.2699 O.3     1  LIG1       -0.5008
     22 H           4.9347   -1.0767   -1.6624 H       1  LIG1        0.2924
     23 O           6.5890    0.6971   -1.4298 O.3     1  LIG1       -0.5008
     24 H           7.0437    1.3989   -1.9132 H       1  LIG1        0.2924
     25 C           5.5730    4.8913   -0.0825 C.ar    1  LIG1        0.1278
     26 C           6.0799    3.5631   -0.0508 C.ar    1  LIG1        0.0617
     27 C           7.4497    3.4039    0.0844 C.ar    1  LIG1       -0.0302
     28 C           8.2970    4.5123    0.1605 C.ar    1  LIG1        0.0515
     29 C           7.6985    5.7826    0.1198 C.ar    1  LIG1        0.0919
     30 N           6.3863    5.9478   -0.0036 N.ar    1  LIG1       -0.2304
     31 H           7.8730    2.4074    0.1309 H       1  LIG1        0.0639
     32 N           4.2525    5.1543   -0.2232 N.pl3   1  LIG1       -0.3426
     33 H           3.9936    6.1264   -0.1667 H       1  LIG1        0.1437
     34 H           3.5562    4.4496   -0.0217 H       1  LIG1        0.1437
     35 C           9.7229    4.3210    0.2071 C.1     1  LIG1       -0.0675
     36 C          10.9070    4.1136    0.2118 C.1     1  LIG1       -0.1138
     37 H          11.9573    3.9376    0.2166 H       1  LIG1        0.1232
     38 C           9.4250    7.2906    1.1742 C.ar    1  LIG1        0.1261
     39 C          10.1743    8.4639    1.1521 C.ar    1  LIG1       -0.0193
     40 C           8.5110    7.0346    0.1483 C.ar    1  LIG1        0.0433
     41 C          10.0007    9.3828    0.1227 C.ar    1  LIG1       -0.0554
     42 H          10.8765    8.6659    1.9530 H       1  LIG1        0.0654
     43 C           8.3287    7.9854   -0.8525 C.ar    1  LIG1       -0.0461
     44 C           9.0713    9.1639   -0.8933 C.ar    1  LIG1       -0.0496
     45 H           7.5854    7.7819   -1.6150 H       1  LIG1        0.0628
     46 H          10.5909   10.2918    0.1212 H       1  LIG1        0.0621
     47 O           9.5082    6.3929    2.1913 O.3     1  LIG1       -0.5061
     48 H          10.2840    6.5650    2.7342 H       1  LIG1        0.2922
     49 C           8.8887   10.1615   -2.0232 C.3     1  LIG1       -0.0397
     50 H           7.8435   10.2017   -2.3306 H       1  LIG1        0.0278
     51 H           9.4903    9.8738   -2.8878 H       1  LIG1        0.0278
     52 H           9.1964   11.1585   -1.7073 H       1  LIG1        0.0278
@<TRIPOS>BOND
     1    51    49    1
     2    50    49    1
     3    49    52    1
     4    49    44    1
     5    24    23    1
     6    22    21    1
     7    45    43    1
     8    23    18    1
     9    21    17    1
    10    12    10    1
    11    44    43   ar
    12    44    41   ar
    13    43    40   ar
    14    18    17   ar
    15    18    19   ar
    16     5     2    1
    17    17    16   ar
    18    11    10    1
    19    10     1    1
    20     2     1   ar
    21     2     4   ar
    22    19    26    1
    23    19    20   ar
    24    32    33    1
    25    32    25    1
    26    32    34    1
    27    16    20   ar
    28    16     4    1
    29    25    26   ar
    30    25    30   ar
    31    26    27   ar
    32     1     3   ar
    33    30    29   ar
    34    27    31    1
    35    27    28   ar
    36    29    40    1
    37    29    28   ar
    38    46    41    1
    39    41    39   ar
    40    40    38   ar
    41    28    35    1
    42     4     7   ar
    43    35    36    3
    44    36    37    1
    45     3     9    1
    46     3     6   ar
    47     7     6   ar
    48     7    13    1
    49    39    38   ar
    50    39    42    1
    51     6     8    1
    52    38    47    1
    53    13    14    3
    54    14    15    1
    55    47    48    1
