@<TRIPOS>MOLECULE
mol_data/opt/m06hf/geoms/mol2/4he13li-13ii-12li-.out
 59 62 0 0 0
SMALL
GASTEIGER

@<TRIPOS>ATOM
      1 C          -0.3958    0.4541    0.2240 C.ar    1  LIG1        0.0252
      2 C           0.9633    0.4527   -0.0999 C.ar    1  LIG1       -0.0306
      3 C          -0.8834    1.4175    1.1195 C.ar    1  LIG1       -0.0399
      4 C           1.8495    1.3778    0.4561 C.ar    1  LIG1        0.0190
      5 H           1.3533   -0.2779   -0.7985 H       1  LIG1        0.0643
      6 C          -0.0158    2.3448    1.6643 C.ar    1  LIG1       -0.0440
      7 C           1.3498    2.3441    1.3526 C.ar    1  LIG1        0.0340
      8 H          -0.3855    3.0929    2.3531 H       1  LIG1        0.0630
      9 H          -1.9333    1.4298    1.3833 H       1  LIG1        0.0636
     10 N          -1.2425   -0.5080   -0.3062 N.pl3   1  LIG1       -0.3579
     11 H          -2.2234   -0.2727   -0.3273 H       1  LIG1        0.1423
     12 H          -0.9207   -0.9614   -1.1487 H       1  LIG1        0.1423
     13 C           2.1761    3.3415    1.9909 C.1     1  LIG1       -0.0690
     14 C           2.8229    4.1955    2.5431 C.1     1  LIG1       -0.1139
     15 H           3.3933    4.9404    3.0488 H       1  LIG1        0.1232
     16 C           3.2660    1.2860    0.0629 C.ar    1  LIG1        0.0907
     17 C           3.9616    0.2200   -0.4909 C.ar    1  LIG1        0.1488
     18 C           5.3037    0.6081   -0.7224 C.ar    1  LIG1        0.0185
     19 C           5.3912    1.9224   -0.2988 C.ar    1  LIG1        0.0701
     20 N           4.1668    2.3101    0.1623 N.ar    1  LIG1       -0.3498
     21 H           3.9727    3.1876    0.6235 H       1  LIG1        0.1661
     22 O           3.4544   -1.0176   -0.7922 O.3     1  LIG1       -0.4927
     23 C           3.4644   -1.9045    0.3255 C.3     1  LIG1        0.0789
     24 H           3.0902   -2.8610   -0.0331 H       1  LIG1        0.0660
     25 H           4.4831   -2.0166    0.7028 H       1  LIG1        0.0660
     26 H           2.8184   -1.5187    1.1169 H       1  LIG1        0.0660
     27 C           6.3725   -0.2307   -1.3730 C.3     1  LIG1       -0.0342
     28 H           6.8081   -0.9416   -0.6671 H       1  LIG1        0.0279
     29 H           7.1674    0.4145   -1.7490 H       1  LIG1        0.0279
     30 H           5.9403   -0.7935   -2.2007 H       1  LIG1        0.0279
     31 C           6.5272    2.8469   -0.3163 C.ar    1  LIG1        0.0670
     32 C           7.8232    2.6864    0.1326 C.ar    1  LIG1       -0.0202
     33 C           8.5198    3.9029   -0.1360 C.ar    1  LIG1       -0.0185
     34 C           7.6086    4.7632   -0.7207 C.ar    1  LIG1        0.0895
     35 N           6.4099    4.1128   -0.8210 N.ar    1  LIG1       -0.3501
     36 H           5.6006    4.4802   -1.2981 H       1  LIG1        0.1661
     37 C           8.3883    1.4671    0.8148 C.3     1  LIG1       -0.0374
     38 H           8.9214    1.7539    1.7233 H       1  LIG1        0.0278
     39 H           9.0879    0.9371    0.1641 H       1  LIG1        0.0278
     40 H           7.5787    0.7877    1.0841 H       1  LIG1        0.0278
     41 C           9.9813    4.1560    0.1402 C.3     1  LIG1       -0.0373
     42 H          10.2745    5.1484   -0.2004 H       1  LIG1        0.0278
     43 H          10.5901    3.4082   -0.3719 H       1  LIG1        0.0278
     44 H          10.1897    4.0808    1.2112 H       1  LIG1        0.0278
     45 C           7.7291    6.1323   -1.2082 C.ar    1  LIG1        0.1927
     46 C           8.4975    7.2053   -0.8682 C.ar    1  LIG1        0.1699
     47 C           8.1151    8.3000   -1.7245 C.ar    1  LIG1        0.0297
     48 C           7.1322    7.7995   -2.5069 C.ar    1  LIG1        0.0992
     49 O           6.8864    6.5018   -2.2079 O.2     1  LIG1       -0.4574
     50 H           6.5371    8.2290   -3.2941 H       1  LIG1        0.1033
     51 O           9.4542    7.2982    0.0984 O.3     1  LIG1       -0.4910
     52 C           8.9445    7.1529    1.4240 C.3     1  LIG1        0.0790
     53 H           9.7960    7.2643    2.0913 H       1  LIG1        0.0660
     54 H           8.2027    7.9297    1.6230 H       1  LIG1        0.0660
     55 H           8.4931    6.1667    1.5487 H       1  LIG1        0.0660
     56 C           8.7145    9.6799   -1.6954 C.3     1  LIG1       -0.0332
     57 H           8.2462   10.3134   -2.4476 H       1  LIG1        0.0280
     58 H           9.7856    9.6251   -1.8904 H       1  LIG1        0.0280
     59 H           8.5709   10.1306   -0.7126 H       1  LIG1        0.0280
@<TRIPOS>BOND
     1    50    48    1
     2    48    49   ar
     3    48    47   ar
     4    57    56    1
     5    49    45   ar
     6    30    27    1
     7    58    56    1
     8    29    27    1
     9    47    56    1
    10    47    46   ar
    11    56    59    1
    12    27    18    1
    13    27    28    1
    14    36    35    1
    15    45    46   ar
    16    45    34    1
    17    12    10    1
    18    46    51    1
    19    35    34   ar
    20    35    31   ar
    21     5     2    1
    22    22    17    1
    23    22    23    1
    24    18    17   ar
    25    18    19   ar
    26    34    33   ar
    27    17    16   ar
    28    43    41    1
    29    11    10    1
    30    31    19    1
    31    31    32   ar
    32    10     1    1
    33    19    20   ar
    34    42    41    1
    35    33    32   ar
    36    33    41    1
    37     2     1   ar
    38     2     4   ar
    39    24    23    1
    40    16    20   ar
    41    16     4    1
    42    51    52    1
    43    32    37    1
    44    41    44    1
    45    20    21    1
    46    39    37    1
    47     1     3   ar
    48    23    25    1
    49    23    26    1
    50     4     7   ar
    51    37    40    1
    52    37    38    1
    53     3     9    1
    54     3     6   ar
    55     7     6   ar
    56     7    13    1
    57    52    55    1
    58    52    54    1
    59    52    53    1
    60     6     8    1
    61    13    14    3
    62    14    15    1
