@<TRIPOS>MOLECULE
mol_data/opt/m06hf/geoms/mol2/4he4hf6ih12fe-13hl6fl-4di12lf.out
 107 114 0 0 0
SMALL
GASTEIGER

@<TRIPOS>ATOM
      1 C          -0.0789    2.3226    0.6349 C.ar    1  LIG1        0.0252
      2 C           1.3081    2.1523    0.5510 C.ar    1  LIG1       -0.0321
      3 C          -0.9090    1.4588   -0.0942 C.ar    1  LIG1       -0.0399
      4 C           1.8706    1.1487   -0.2340 C.ar    1  LIG1        0.0011
      5 H           1.9680    2.8131    1.1011 H       1  LIG1        0.0642
      6 C          -0.3559    0.4564   -0.8714 C.ar    1  LIG1       -0.0440
      7 C           1.0304    0.2806   -0.9532 C.ar    1  LIG1        0.0325
      8 H          -0.9982   -0.2146   -1.4256 H       1  LIG1        0.0630
      9 H          -1.9838    1.5823   -0.0498 H       1  LIG1        0.0636
     10 N          -0.6154    3.3602    1.3807 N.pl3   1  LIG1       -0.3579
     11 H          -1.5754    3.2550    1.6716 H       1  LIG1        0.1423
     12 H          -0.0173    3.7542    2.0913 H       1  LIG1        0.1423
     13 C           1.5557   -0.7999   -1.7542 C.1     1  LIG1       -0.0691
     14 C           1.9617   -1.7109   -2.4269 C.1     1  LIG1       -0.1139
     15 H           2.3328   -2.5188   -3.0140 H       1  LIG1        0.1232
     16 C           4.1256    0.9043    0.8624 C.ar    1  LIG1        0.0332
     17 C           5.5173    0.8456    0.7404 C.ar    1  LIG1       -0.0292
     18 C           3.3597    1.0377   -0.3043 C.ar    1  LIG1        0.0075
     19 C           6.1541    0.9139   -0.4945 C.ar    1  LIG1        0.0271
     20 H           6.1283    0.7613    1.6320 H       1  LIG1        0.0643
     21 C           3.9947    1.0937   -1.5453 C.ar    1  LIG1       -0.0101
     22 C           5.3765    1.0301   -1.6510 C.ar    1  LIG1        0.1253
     23 H           3.3849    1.1812   -2.4381 H       1  LIG1        0.0661
     24 N           3.5251    0.8763    2.1325 N.pl3   1  LIG1       -0.3575
     25 H           2.5839    0.5013    2.1246 H       1  LIG1        0.1423
     26 H           4.0971    0.4258    2.8345 H       1  LIG1        0.1423
     27 O           6.0212    1.0732   -2.8558 O.3     1  LIG1       -0.5061
     28 H           5.3801    1.1197   -3.5723 H       1  LIG1        0.2922
     29 C           8.4114    1.9422   -1.0020 C.ar    1  LIG1        0.0469
     30 C           7.6438    0.8437   -0.5682 C.ar    1  LIG1        0.0085
     31 C           8.2985   -0.3046   -0.1573 C.ar    1  LIG1       -0.0293
     32 C           9.6982   -0.3808   -0.1758 C.ar    1  LIG1        0.0547
     33 C          10.3678    0.7637   -0.6367 C.ar    1  LIG1        0.1305
     34 N           9.7329    1.8726   -1.0262 N.ar    1  LIG1       -0.2462
     35 H           7.7194   -1.1550    0.1854 H       1  LIG1        0.0643
     36 C           7.7755    3.2430   -1.4427 C.3     1  LIG1       -0.0217
     37 H           7.0450    3.5813   -0.7058 H       1  LIG1        0.0293
     38 H           7.2640    3.0977   -2.3953 H       1  LIG1        0.0293
     39 H           8.5629    3.9849   -1.5543 H       1  LIG1        0.0293
     40 N          10.3609   -1.4957    0.3134 N.pl3   1  LIG1       -0.3562
     41 H           9.7681   -2.2997    0.4600 H       1  LIG1        0.1424
     42 H          11.2419   -1.7309   -0.1273 H       1  LIG1        0.1424
     43 C          11.8378    0.8546   -0.6766 C.ar    1  LIG1        0.1981
     44 C          12.8633    0.0027   -0.9324 C.ar    1  LIG1        0.1807
     45 C          14.0898    0.7571   -0.8630 C.ar    1  LIG1        0.1140
     46 C          13.7061    2.0396   -0.5632 C.ar    1  LIG1        0.1728
     47 O          12.3734    2.0918   -0.4514 O.2     1  LIG1       -0.4466
     48 O          12.7809   -1.3169   -1.2464 O.3     1  LIG1       -0.5023
     49 H          13.6715   -1.6661   -1.3802 H       1  LIG1        0.2923
     50 C          15.3660    0.2035   -1.1791 C.1     1  LIG1       -0.0621
     51 C          16.3968   -0.3457   -1.4764 C.1     1  LIG1       -0.1137
     52 H          17.3126   -0.8199   -1.7456 H       1  LIG1        0.1232
     53 C          14.3912    3.2932   -0.3564 C.ar    1  LIG1        0.1085
     54 C          15.7108    3.6092   -0.0709 C.ar    1  LIG1        0.0962
     55 C          15.7481    5.0207    0.0785 C.ar    1  LIG1        0.1667
     56 C          14.4735    5.5245   -0.1080 C.ar    1  LIG1        0.0964
     57 N          13.6649    4.4642   -0.3942 N.ar    1  LIG1       -0.3472
     58 H          12.6526    4.4874   -0.4198 H       1  LIG1        0.1662
     59 N          16.7987    2.7762    0.1415 N.pl3   1  LIG1       -0.3534
     60 H          16.8576    1.9572   -0.4471 H       1  LIG1        0.1425
     61 H          17.6666    3.2870    0.2289 H       1  LIG1        0.1425
     62 O          16.8863    5.7267    0.3594 O.3     1  LIG1       -0.4911
     63 C          17.4507    6.3656   -0.7881 C.3     1  LIG1        0.0790
     64 H          18.3731    6.8367   -0.4561 H       1  LIG1        0.0660
     65 H          17.6608    5.6232   -1.5611 H       1  LIG1        0.0660
     66 H          16.7636    7.1197   -1.1760 H       1  LIG1        0.0660
     67 C          12.9272    7.4036   -0.7502 C.ar    1  LIG1        0.2225
     68 C          14.0206    6.9168   -0.0149 C.ar    1  LIG1        0.0668
     69 C          14.6935    7.8111    0.8169 C.ar    1  LIG1       -0.0035
     70 C          14.2595    9.1300    0.8932 C.ar    1  LIG1        0.1468
     71 C          13.1738    9.5165    0.0942 C.ar    1  LIG1        0.1175
     72 N          12.5230    8.6531   -0.6830 N.ar    1  LIG1       -0.2087
     73 H          15.5324    7.4496    1.3981 H       1  LIG1        0.0663
     74 O          12.2115    6.5904   -1.5763 O.3     1  LIG1       -0.4919
     75 H          12.7995    5.9434   -1.9878 H       1  LIG1        0.2937
     76 O          14.7910   10.0580    1.7212 O.3     1  LIG1       -0.4929
     77 C          16.1371    9.8722    2.1346 C.3     1  LIG1        0.0789
     78 H          16.4419   10.8157    2.5780 H       1  LIG1        0.0660
     79 H          16.2036    9.0731    2.8760 H       1  LIG1        0.0660
     80 H          16.7673    9.6513    1.2703 H       1  LIG1        0.0660
     81 C          13.5080   12.0324   -0.0651 C.ar    1  LIG1        0.0617
     82 C          12.9793   13.3186   -0.1052 C.ar    1  LIG1       -0.0327
     83 C          12.6700   10.9208    0.0881 C.ar    1  LIG1        0.0217
     84 C          11.6024   13.5205    0.0176 C.ar    1  LIG1        0.0252
     85 H          13.6367   14.1673   -0.2384 H       1  LIG1        0.0638
     86 C          11.2997   11.1415    0.1819 C.ar    1  LIG1       -0.0476
     87 C          10.7402   12.4181    0.1627 C.ar    1  LIG1       -0.0390
     88 H          10.6549   10.2762    0.2743 H       1  LIG1        0.0627
     89 N          16.0641   11.7824   -0.4615 N.1     1  LIG1       -0.1908
     90 C          14.9359   11.8762   -0.2692 C.1     1  LIG1        0.0998
     91 C           9.2358   12.5615    0.3101 C.3     1  LIG1       -0.0390
     92 H           8.8070   11.6000    0.5873 H       1  LIG1        0.0278
     93 H           8.7914   12.8960   -0.6271 H       1  LIG1        0.0278
     94 H           8.9951   13.2979    1.0771 H       1  LIG1        0.0278
     95 C          11.1229   14.9119   -0.0074 C.ar    1  LIG1        0.1803
     96 C          11.7666   16.0837    0.2626 C.ar    1  LIG1        0.2076
     97 C          10.8060   17.1356    0.0510 C.ar    1  LIG1        0.1978
     98 C           9.6605   16.5246   -0.3352 C.ar    1  LIG1        0.1377
     99 O           9.8508   15.1840   -0.3812 O.2     1  LIG1       -0.4554
    100 H           8.6869   16.8905   -0.6074 H       1  LIG1        0.1069
    101 O          13.0618   16.2443    0.6296 O.3     1  LIG1       -0.4884
    102 C          13.2198   16.7945    1.9411 C.3     1  LIG1        0.0791
    103 H          14.2900   16.8975    2.0979 H       1  LIG1        0.0660
    104 H          12.7315   17.7678    1.9960 H       1  LIG1        0.0660
    105 H          12.7921   16.1116    2.6778 H       1  LIG1        0.0660
    106 O          11.1009   18.4485    0.2421 O.3     1  LIG1       -0.5012
    107 H          10.3693   19.0053   -0.0441 H       1  LIG1        0.2924
@<TRIPOS>BOND
     1    28    27    1
     2    15    14    1
     3    27    22    1
     4    23    21    1
     5    14    13    3
     6    38    36    1
     7    75    74    1
     8    13     7    1
     9    52    51    1
    10    22    21   ar
    11    22    19   ar
    12    74    67    1
    13    65    63    1
    14    39    36    1
    15    21    18   ar
    16    51    50    3
    17    36    29    1
    18    36    37    1
    19     8     6    1
    20    49    48    1
    21    48    44    1
    22    50    45    1
    23    66    63    1
    24    34    29   ar
    25    34    33   ar
    26    29    30   ar
    27     7     6   ar
    28     7     4   ar
    29    44    45   ar
    30    44    43   ar
    31     6     3   ar
    32    45    46   ar
    33    63    64    1
    34    63    62    1
    35    67    72   ar
    36    67    68   ar
    37    72    71   ar
    38    43    33    1
    39    43    47   ar
    40    33    32   ar
    41    93    91    1
    42   100    98    1
    43    30    19    1
    44    30    31   ar
    45    46    47   ar
    46    46    53    1
    47    19    17   ar
    48    89    90    3
    49    60    59    1
    50    58    57    1
    51    57    53   ar
    52    57    56   ar
    53    99    98   ar
    54    99    95   ar
    55    53    54   ar
    56    98    97   ar
    57    18     4    1
    58    18    16   ar
    59    90    81    1
    60    85    82    1
    61     4     2   ar
    62    32    31   ar
    63    32    40    1
    64    31    35    1
    65    42    40    1
    66    56    68    1
    67    56    55   ar
    68    82    81   ar
    69    82    84   ar
    70     3     9    1
    71     3     1   ar
    72    54    55   ar
    73    54    59    1
    74    81    83   ar
    75   107   106    1
    76    68    69   ar
    77    95    84    1
    78    95    96   ar
    79    84    87   ar
    80    97   106    1
    81    97    96   ar
    82    55    62    1
    83    83    71    1
    84    83    86   ar
    85    71    70   ar
    86    59    61    1
    87    87    86   ar
    88    87    91    1
    89    86    88    1
    90    96   101    1
    91    91    92    1
    92    91    94    1
    93    40    41    1
    94     2     1   ar
    95     2     5    1
    96   101   102    1
    97     1    10    1
    98    17    16   ar
    99    17    20    1
   100    69    70   ar
   101    69    73    1
   102    16    24    1
   103    70    76    1
   104    80    77    1
   105    10    11    1
   106    10    12    1
   107    76    77    1
   108   102   104    1
   109   102   103    1
   110   102   105    1
   111    25    24    1
   112    24    26    1
   113    77    78    1
   114    77    79    1
