@<TRIPOS>MOLECULE
mol_data/opt/m06hf/geoms/mol2/4he4da13li12el-.out
 55 58 0 0 0
SMALL
GASTEIGER

@<TRIPOS>ATOM
      1 C          -0.3211    0.2459    0.2625 C.ar    1  LIG1        0.0252
      2 C           1.0788    0.2382    0.2713 C.ar    1  LIG1       -0.0321
      3 C          -0.9841    1.4314   -0.0816 C.ar    1  LIG1       -0.0399
      4 C           1.8101    1.3656   -0.0836 C.ar    1  LIG1        0.0005
      5 H           1.6003   -0.6652    0.5637 H       1  LIG1        0.0642
      6 C          -0.2596    2.5598   -0.4246 C.ar    1  LIG1       -0.0440
      7 C           1.1391    2.5496   -0.4387 C.ar    1  LIG1        0.0325
      8 H          -0.7740    3.4696   -0.7028 H       1  LIG1        0.0630
      9 H          -2.0665    1.4611   -0.0810 H       1  LIG1        0.0636
     10 N          -1.0288   -0.8845    0.6414 N.pl3   1  LIG1       -0.3579
     11 H          -1.9888   -0.9240    0.3326 H       1  LIG1        0.1423
     12 H          -0.5422   -1.7619    0.5272 H       1  LIG1        0.1423
     13 C           1.8425    3.7412   -0.8499 C.1     1  LIG1       -0.0691
     14 C           2.3913    4.7519   -1.2009 C.1     1  LIG1       -0.1139
     15 H           2.8801    5.6422   -1.5214 H       1  LIG1        0.1232
     16 C           4.0030    0.2814   -0.7347 C.ar    1  LIG1        0.0601
     17 C           5.3951    0.2173   -0.7157 C.ar    1  LIG1       -0.0345
     18 C           3.3010    1.3006   -0.0728 C.ar    1  LIG1        0.0007
     19 C           6.1239    1.1791   -0.0133 C.ar    1  LIG1        0.0031
     20 H           5.9144   -0.5718   -1.2443 H       1  LIG1        0.0637
     21 C           4.0466    2.2513    0.6259 C.ar    1  LIG1       -0.0521
     22 C           5.4332    2.1889    0.6652 C.ar    1  LIG1       -0.0519
     23 H           3.5243    3.0381    1.1534 H       1  LIG1        0.0624
     24 N           2.7649   -1.5719   -2.0736 N.1     1  LIG1       -0.1908
     25 C           3.2947   -0.7397   -1.4875 C.1     1  LIG1        0.0998
     26 H           5.9799    2.9172    1.2518 H       1  LIG1        0.0624
     27 C           7.5905    1.1028   -0.0013 C.ar    1  LIG1        0.0895
     28 C           8.4239    0.0060   -0.1381 C.ar    1  LIG1        0.1488
     29 C           9.7734    0.4315   -0.0556 C.ar    1  LIG1        0.0202
     30 C           9.7152    1.8042    0.1125 C.ar    1  LIG1        0.0904
     31 N           8.4029    2.1864    0.1614 N.ar    1  LIG1       -0.3486
     32 H           8.0998    3.1478    0.1930 H       1  LIG1        0.1661
     33 O           8.0190   -1.2910   -0.2932 O.3     1  LIG1       -0.4927
     34 C           7.6611   -1.9227    0.9364 C.3     1  LIG1        0.0789
     35 H           7.4077   -2.9512    0.6910 H       1  LIG1        0.0660
     36 H           8.5030   -1.8953    1.6310 H       1  LIG1        0.0660
     37 H           6.8009   -1.4192    1.3822 H       1  LIG1        0.0660
     38 C          10.9760   -0.4735   -0.1044 C.3     1  LIG1       -0.0341
     39 H          11.7874   -0.0614    0.4952 H       1  LIG1        0.0279
     40 H          11.3314   -0.5880   -1.1283 H       1  LIG1        0.0279
     41 H          10.7010   -1.4556    0.2793 H       1  LIG1        0.0279
     42 C          10.7584    2.8074    0.2499 C.ar    1  LIG1        0.1702
     43 C          12.0225    2.9334   -0.2554 C.ar    1  LIG1        0.1134
     44 C          12.5167    4.1964    0.2596 C.ar    1  LIG1        0.1736
     45 C          11.5244    4.7223    1.0109 C.ar    1  LIG1        0.1354
     46 O          10.4550    3.8860    1.0038 O.2     1  LIG1       -0.4564
     47 H          11.4378    5.6393    1.5638 H       1  LIG1        0.1068
     48 C          12.6933    2.0923   -1.1963 C.1     1  LIG1       -0.0621
     49 C          13.2830    1.4123   -1.9940 C.1     1  LIG1       -0.1137
     50 H          13.7931    0.8142   -2.7140 H       1  LIG1        0.1232
     51 O          13.7207    4.7577    0.0002 O.3     1  LIG1       -0.4907
     52 C          14.8231    4.0347    0.5511 C.3     1  LIG1        0.0790
     53 H          15.7157    4.5856    0.2676 H       1  LIG1        0.0660
     54 H          14.7313    3.9947    1.6384 H       1  LIG1        0.0660
     55 H          14.8573    3.0253    0.1392 H       1  LIG1        0.0660
@<TRIPOS>BOND
     1    50    49    1
     2    24    25    3
     3    49    48    3
     4    15    14    1
     5    25    16    1
     6    20    17    1
     7    14    13    3
     8    48    43    1
     9    40    38    1
    10    13     7    1
    11    16    17   ar
    12    16    18   ar
    13    17    19   ar
    14     8     6    1
    15     7     6   ar
    16     7     4   ar
    17     6     3   ar
    18    33    28    1
    19    33    34    1
    20    43    42   ar
    21    43    44   ar
    22    28    29   ar
    23    28    27   ar
    24    38    29    1
    25    38    41    1
    26    38    39    1
    27     4    18    1
    28     4     2   ar
    29     3     9    1
    30     3     1   ar
    31    18    21   ar
    32    29    30   ar
    33    19    27    1
    34    19    22   ar
    35    27    31   ar
    36    51    44    1
    37    51    52    1
    38    30    31   ar
    39    30    42    1
    40    55    52    1
    41    31    32    1
    42    42    46   ar
    43    44    45   ar
    44     1     2   ar
    45     1    10    1
    46    53    52    1
    47     2     5    1
    48    11    10    1
    49    12    10    1
    50    52    54    1
    51    21    22   ar
    52    21    23    1
    53    22    26    1
    54    35    34    1
    55    34    37    1
    56    34    36    1
    57    46    45   ar
    58    45    47    1
