@<TRIPOS>MOLECULE
mol_data/opt/m06hf/geoms/mol2/4he4ih-4ad-6hl-.out
 57 60 0 0 0
SMALL
GASTEIGER

@<TRIPOS>ATOM
      1 C          -0.2598    1.5923   -1.1977 C.ar    1  LIG1        0.0252
      2 C           1.1386    1.5064   -1.2207 C.ar    1  LIG1       -0.0322
      3 C          -0.9209    1.4797    0.0331 C.ar    1  LIG1       -0.0399
      4 C           1.8680    1.3156   -0.0528 C.ar    1  LIG1       -0.0005
      5 H           1.6677    1.5764   -2.1637 H       1  LIG1        0.0642
      6 C          -0.1968    1.2957    1.1989 C.ar    1  LIG1       -0.0440
      7 C           1.1994    1.2117    1.1772 C.ar    1  LIG1        0.0325
      8 H          -0.7090    1.2171    2.1483 H       1  LIG1        0.0630
      9 H          -2.0020    1.5339    0.0676 H       1  LIG1        0.0636
     10 N          -0.9775    1.7347   -2.3759 N.pl3   1  LIG1       -0.3579
     11 H          -1.9103    2.1084   -2.2875 H       1  LIG1        0.1423
     12 H          -0.4705    2.1019   -3.1670 H       1  LIG1        0.1423
     13 C           1.9285    1.0360    2.4097 C.1     1  LIG1       -0.0691
     14 C           2.5214    0.8876    3.4454 C.1     1  LIG1       -0.1139
     15 H           3.0521    0.7651    4.3606 H       1  LIG1        0.1232
     16 C           4.0120   -0.0039    0.0398 C.ar    1  LIG1       -0.0420
     17 C           5.3983   -0.0121   -0.0665 C.ar    1  LIG1       -0.0488
     18 C           3.3611    1.2263   -0.1322 C.ar    1  LIG1       -0.0120
     19 C           6.1442    1.1390   -0.3301 C.ar    1  LIG1        0.0031
     20 H           5.9319   -0.9450    0.0806 H       1  LIG1        0.0627
     21 C           4.0835    2.3803   -0.4127 C.ar    1  LIG1       -0.0324
     22 C           5.4782    2.3610   -0.5163 C.ar    1  LIG1        0.0329
     23 H           3.5517    3.3157   -0.5458 H       1  LIG1        0.0642
     24 C           3.2415   -1.2773    0.3335 C.3     1  LIG1       -0.0391
     25 H           3.8832   -2.1450    0.1804 H       1  LIG1        0.0278
     26 H           2.3737   -1.3587   -0.3228 H       1  LIG1        0.0278
     27 H           2.8906   -1.2756    1.3669 H       1  LIG1        0.0278
     28 N           6.1830    3.5424   -0.7651 N.pl3   1  LIG1       -0.3575
     29 H           7.0543    3.4190   -1.2648 H       1  LIG1        0.1423
     30 H           5.6227    4.2899   -1.1496 H       1  LIG1        0.1423
     31 C           8.2391    0.0503   -1.1899 C.ar    1  LIG1       -0.0533
     32 C           9.6217   -0.0797   -1.2405 C.ar    1  LIG1       -0.0521
     33 C           7.6312    1.0452   -0.4162 C.ar    1  LIG1       -0.0149
     34 C          10.4539    0.7882   -0.5264 C.ar    1  LIG1        0.0029
     35 H          10.0769   -0.8558   -1.8429 H       1  LIG1        0.0624
     36 C           8.4493    1.9211    0.3000 C.ar    1  LIG1       -0.0360
     37 C           9.8379    1.7926    0.2373 C.ar    1  LIG1        0.0601
     38 H           8.0083    2.7030    0.9059 H       1  LIG1        0.0637
     39 H           7.6145   -0.6268   -1.7595 H       1  LIG1        0.0624
     40 N          11.2612    3.4778    1.6141 N.1     1  LIG1       -0.1908
     41 C          10.6416    2.7349    0.9960 C.1     1  LIG1        0.0998
     42 C          12.6257    0.4732   -1.7749 C.ar    1  LIG1        0.1242
     43 C          11.9334    0.6174   -0.5607 C.ar    1  LIG1        0.0263
     44 C          12.6677    0.5820    0.6255 C.ar    1  LIG1       -0.0074
     45 C          14.0438    0.4038    0.5744 C.ar    1  LIG1        0.1388
     46 C          14.6307    0.2491   -0.6823 C.ar    1  LIG1        0.0713
     47 N          13.9447    0.2877   -1.8137 N.ar    1  LIG1       -0.2365
     48 H          12.1498    0.6875    1.5695 H       1  LIG1        0.0662
     49 H          15.7018    0.0975   -0.7463 H       1  LIG1        0.0868
     50 N          11.9736    0.4811   -3.0054 N.pl3   1  LIG1       -0.3427
     51 H          12.6298    0.5842   -3.7685 H       1  LIG1        0.1437
     52 H          11.1753    1.0993   -3.0704 H       1  LIG1        0.1437
     53 O          14.8689    0.3623    1.6521 O.3     1  LIG1       -0.4936
     54 C          14.3195    0.7597    2.8963 C.3     1  LIG1        0.0789
     55 H          15.1521    0.7937    3.5936 H       1  LIG1        0.0660
     56 H          13.8577    1.7474    2.8136 H       1  LIG1        0.0660
     57 H          13.5816    0.0319    3.2444 H       1  LIG1        0.0660
@<TRIPOS>BOND
     1    51    50    1
     2    12    10    1
     3    52    50    1
     4    50    42    1
     5    10    11    1
     6    10     1    1
     7     5     2    1
     8    35    32    1
     9    47    42   ar
    10    47    46   ar
    11    42    43   ar
    12    39    31    1
    13    29    28    1
    14    32    31   ar
    15    32    34   ar
    16     2     1   ar
    17     2     4   ar
    18     1     3   ar
    19    31    33   ar
    20    30    28    1
    21    28    22    1
    22    49    46    1
    23    46    45   ar
    24    43    34    1
    25    43    44   ar
    26    23    21    1
    27    34    37   ar
    28    22    21   ar
    29    22    19   ar
    30    33    19    1
    31    33    36   ar
    32    21    18   ar
    33    19    17   ar
    34    26    24    1
    35    18     4    1
    36    18    16   ar
    37    17    16   ar
    38    17    20    1
    39     4     7   ar
    40     3     9    1
    41     3     6   ar
    42    16    24    1
    43    25    24    1
    44    37    36   ar
    45    37    41    1
    46    36    38    1
    47    24    27    1
    48    45    44   ar
    49    45    53    1
    50    44    48    1
    51    41    40    3
    52     7     6   ar
    53     7    13    1
    54     6     8    1
    55    53    54    1
    56    13    14    3
    57    56    54    1
    58    54    57    1
    59    54    55    1
    60    14    15    1
