@<TRIPOS>MOLECULE
mol_data/opt/m06hf/geoms/mol2/4hf4ei4ha-6ie.out
 56 59 0 0 0
SMALL
GASTEIGER

@<TRIPOS>ATOM
      1 C          -0.2592    0.1265    0.2250 C.ar    1  LIG1        0.0253
      2 C           1.1346    0.1403    0.3092 C.ar    1  LIG1       -0.0298
      3 C          -0.9011    1.2388   -0.3214 C.ar    1  LIG1       -0.0376
      4 C           1.8859    1.2265   -0.1349 C.ar    1  LIG1        0.0265
      5 H           1.6526   -0.7092    0.7383 H       1  LIG1        0.0643
      6 C          -0.1632    2.3238   -0.7786 C.ar    1  LIG1       -0.0178
      7 C           1.2246    2.3281   -0.6899 C.ar    1  LIG1        0.1247
      8 H          -0.6748    3.1784   -1.2071 H       1  LIG1        0.0655
      9 H          -1.9821    1.2581   -0.3883 H       1  LIG1        0.0637
     10 N          -0.9982   -0.9567    0.7283 N.pl3   1  LIG1       -0.3579
     11 H          -1.8895   -1.0948    0.2719 H       1  LIG1        0.1423
     12 H          -0.4772   -1.8217    0.7776 H       1  LIG1        0.1423
     13 O           1.9763    3.3827   -1.1338 O.3     1  LIG1       -0.5062
     14 H           1.4085    4.1356   -1.3268 H       1  LIG1        0.2922
     15 C           4.0317    0.8918    1.1641 C.ar    1  LIG1        0.0331
     16 C           5.4307    0.8582    1.2015 C.ar    1  LIG1       -0.0377
     17 C           3.3756    1.2060   -0.0353 C.ar    1  LIG1        0.0013
     18 C           6.1861    1.1440    0.0703 C.ar    1  LIG1       -0.0120
     19 H           5.9292    0.6104    2.1295 H       1  LIG1        0.0636
     20 C           4.1491    1.4939   -1.1630 C.ar    1  LIG1       -0.0492
     21 C           5.5402    1.4718   -1.1350 C.ar    1  LIG1       -0.0420
     22 H           3.6382    1.7595   -2.0799 H       1  LIG1        0.0627
     23 C           3.3089    0.6209    2.3870 C.1     1  LIG1       -0.0690
     24 C           2.7463    0.3939    3.4246 C.1     1  LIG1       -0.1139
     25 H           2.2379    0.2001    4.3404 H       1  LIG1        0.1232
     26 C           6.3488    1.8155   -2.3728 C.3     1  LIG1       -0.0391
     27 H           5.6874    2.1221   -3.1820 H       1  LIG1        0.0278
     28 H           6.9346    0.9531   -2.6998 H       1  LIG1        0.0278
     29 H           7.0449    2.6254   -2.1501 H       1  LIG1        0.0278
     30 C           8.3826    0.0212   -0.4071 C.ar    1  LIG1        0.0329
     31 C           9.7829    0.0251   -0.3596 C.ar    1  LIG1       -0.0327
     32 C           7.6810    1.1107    0.1418 C.ar    1  LIG1        0.0031
     33 C          10.4756    1.0808    0.2268 C.ar    1  LIG1       -0.0144
     34 H          10.3334   -0.8176   -0.7621 H       1  LIG1        0.0642
     35 C           8.3873    2.1542    0.7359 C.ar    1  LIG1       -0.0517
     36 C           9.7769    2.1544    0.7835 C.ar    1  LIG1       -0.0533
     37 H           7.8266    2.9843    1.1483 H       1  LIG1        0.0624
     38 N           7.6980   -1.0550   -0.9399 N.pl3   1  LIG1       -0.3575
     39 H           6.7089   -0.9368   -1.1033 H       1  LIG1        0.1423
     40 H           8.1850   -1.6434   -1.5964 H       1  LIG1        0.1423
     41 H          10.3150    2.9828    1.2239 H       1  LIG1        0.0624
     42 C          12.7153    1.0640    1.4233 C.ar    1  LIG1        0.0460
     43 C          11.9709    1.0604    0.2298 C.ar    1  LIG1        0.0044
     44 C          12.6607    1.0224   -0.9773 C.ar    1  LIG1       -0.0354
     45 C          14.0555    1.0084   -0.9731 C.ar    1  LIG1        0.0433
     46 C          14.7019    1.0323    0.2648 C.ar    1  LIG1        0.0433
     47 N          14.0503    1.0525    1.4200 N.ar    1  LIG1       -0.2583
     48 H          12.1192    1.0159   -1.9146 H       1  LIG1        0.0637
     49 H          15.7842    1.0268    0.3102 H       1  LIG1        0.0842
     50 C          12.0573    1.0613    2.7883 C.3     1  LIG1       -0.0218
     51 H          11.1129    0.5196    2.7657 H       1  LIG1        0.0293
     52 H          11.8614    2.0852    3.1136 H       1  LIG1        0.0293
     53 H          12.7478    0.6007    3.4915 H       1  LIG1        0.0293
     54 C          14.8133    0.9721   -2.1994 C.1     1  LIG1       -0.0681
     55 C          15.4444    0.9424   -3.2218 C.1     1  LIG1       -0.1139
     56 H          16.0034    0.9180   -4.1286 H       1  LIG1        0.1232
@<TRIPOS>BOND
     1    56    55    1
     2    55    54    3
     3    27    26    1
     4    28    26    1
     5    26    29    1
     6    26    21    1
     7    54    45    1
     8    22    20    1
     9    48    44    1
    10    40    38    1
    11    14    13    1
    12     8     6    1
    13    20    21   ar
    14    20    17   ar
    15    21    18   ar
    16    13     7    1
    17    39    38    1
    18    44    45   ar
    19    44    43   ar
    20    45    46   ar
    21    38    30    1
    22     6     7   ar
    23     6     3   ar
    24    34    31    1
    25     7     4   ar
    26    30    31   ar
    27    30    32   ar
    28     9     3    1
    29    31    33   ar
    30     3     1   ar
    31     4    17    1
    32     4     2   ar
    33    17    15   ar
    34    18    32    1
    35    18    16   ar
    36    32    35   ar
    37     1     2   ar
    38     1    10    1
    39    33    43    1
    40    33    36   ar
    41    43    42   ar
    42    46    49    1
    43    46    47   ar
    44    11    10    1
    45     2     5    1
    46    10    12    1
    47    35    36   ar
    48    35    37    1
    49    36    41    1
    50    15    16   ar
    51    15    23    1
    52    16    19    1
    53    47    42   ar
    54    42    50    1
    55    23    24    3
    56    51    50    1
    57    50    52    1
    58    50    53    1
    59    24    25    1
