@<TRIPOS>MOLECULE
mol_data/opt/m06hf/geoms/mol2/4hg.out
 15 15 0 0 0
SMALL
GASTEIGER

@<TRIPOS>ATOM
      1 C           0.0553    0.0255   -0.0477 C.ar    1  LIG1        0.0246
      2 C           1.4536    0.0914   -0.0020 C.ar    1  LIG1       -0.0400
      3 C          -0.6725    1.2171   -0.1626 C.ar    1  LIG1       -0.0400
      4 C           2.1025    1.3169   -0.0704 C.ar    1  LIG1       -0.0468
      5 H           2.0290   -0.8216    0.0893 H       1  LIG1        0.0636
      6 C          -0.0159    2.4379   -0.2337 C.ar    1  LIG1       -0.0468
      7 C           1.3757    2.5012   -0.1794 C.ar    1  LIG1        0.0049
      8 H          -0.5858    3.3523   -0.3358 H       1  LIG1        0.0629
      9 H           3.1836    1.3579   -0.0420 H       1  LIG1        0.0629
     10 H          -1.7544    1.1813   -0.1965 H       1  LIG1        0.0636
     11 N          -0.6005   -1.1963    0.0642 N.pl3   1  LIG1       -0.3580
     12 H          -1.5400   -1.2226   -0.3035 H       1  LIG1        0.1423
     13 H          -0.0579   -2.0078   -0.1917 H       1  LIG1        0.1423
     14 S           2.2218    4.0744   -0.3175 S.3     1  LIG1       -0.1426
     15 H           2.2066    4.3849    0.9858 H       1  LIG1        0.1071
@<TRIPOS>BOND
     1     8     6    1
     2    14     7    1
     3    14    15    1
     4    12    11    1
     5     6     7   ar
     6     6     3   ar
     7    10     3    1
     8    13    11    1
     9     7     4   ar
    10     3     1   ar
    11     4     9    1
    12     4     2   ar
    13     1     2   ar
    14     1    11    1
    15     2     5    1
