@<TRIPOS>MOLECULE
mol_data/opt/m06hf/geoms/mol2/4hg4hg-4hg-.out
 41 43 0 0 0
SMALL
GASTEIGER

@<TRIPOS>ATOM
      1 C          -0.1730    1.1517    1.0417 C.ar    1  LIG1        0.0252
      2 C           1.2246    1.1464    1.0621 C.ar    1  LIG1       -0.0322
      3 C          -0.8179    1.0672   -0.1979 C.ar    1  LIG1       -0.0400
      4 C           1.9611    1.0607   -0.1160 C.ar    1  LIG1       -0.0012
      5 H           1.7570    1.2093    2.0039 H       1  LIG1        0.0642
      6 C          -0.0874    0.9757   -1.3745 C.ar    1  LIG1       -0.0462
      7 C           1.3071    0.9709   -1.3499 C.ar    1  LIG1        0.0126
      8 H          -0.6156    0.9138   -2.3180 H       1  LIG1        0.0629
      9 H          -1.9004    1.0798   -0.2390 H       1  LIG1        0.0636
     10 N          -0.9048    1.2910    2.2200 N.pl3   1  LIG1       -0.3579
     11 H          -1.8477    0.9312    2.1885 H       1  LIG1        0.1423
     12 H          -0.4189    1.0206    3.0629 H       1  LIG1        0.1423
     13 S           2.3164    0.8614   -2.8178 S.3     1  LIG1       -0.1420
     14 H           1.2913    0.7405   -3.6679 H       1  LIG1        0.1071
     15 C           4.1403   -0.1783   -0.0145 C.ar    1  LIG1        0.0330
     16 C           5.5386   -0.1566    0.0224 C.ar    1  LIG1       -0.0316
     17 C           3.4570    1.0485   -0.0590 C.ar    1  LIG1        0.0049
     18 C           6.2453    1.0416    0.0119 C.ar    1  LIG1       -0.0012
     19 H           6.0930   -1.0867    0.0539 H       1  LIG1        0.0642
     20 C           4.1645    2.2475   -0.0624 C.ar    1  LIG1       -0.0385
     21 C           5.5564    2.2613   -0.0298 C.ar    1  LIG1        0.0132
     22 H           3.6014    3.1726   -0.0939 H       1  LIG1        0.0635
     23 N           3.4387   -1.3760    0.0354 N.pl3   1  LIG1       -0.3575
     24 H           2.4885   -1.3239   -0.3091 H       1  LIG1        0.1423
     25 H           3.9404   -2.1801   -0.3124 H       1  LIG1        0.1423
     26 S           6.5139    3.7684   -0.0141 S.3     1  LIG1       -0.1420
     27 H           5.4835    4.5719   -0.2977 H       1  LIG1        0.1071
     28 C           8.4596    1.2345   -1.1581 C.ar    1  LIG1        0.0325
     29 C           9.8605    1.2076   -1.1115 C.ar    1  LIG1       -0.0394
     30 C           7.7417    1.0186    0.0338 C.ar    1  LIG1        0.0049
     31 C          10.5253    0.9727    0.0825 C.ar    1  LIG1       -0.0468
     32 H          10.4227    1.3596   -2.0244 H       1  LIG1        0.0636
     33 C           8.4232    0.7734    1.2226 C.ar    1  LIG1       -0.0390
     34 C           9.8146    0.7584    1.2629 C.ar    1  LIG1        0.0054
     35 H           7.8537    0.6011    2.1276 H       1  LIG1        0.0635
     36 H          11.6075    0.9506    0.1029 H       1  LIG1        0.0629
     37 N           7.7937    1.4124   -2.3567 N.pl3   1  LIG1       -0.3575
     38 H           6.8221    1.6825   -2.2812 H       1  LIG1        0.1423
     39 H           8.2995    1.9147   -3.0703 H       1  LIG1        0.1423
     40 S          10.6795    0.4077    2.7907 S.3     1  LIG1       -0.1426
     41 H          10.6920    1.6583    3.2712 H       1  LIG1        0.1071
@<TRIPOS>BOND
     1    14    13    1
     2    39    37    1
     3    13     7    1
     4    37    38    1
     5    37    28    1
     6     8     6    1
     7    32    29    1
     8     6     7   ar
     9     6     3   ar
    10     7     4   ar
    11    28    29   ar
    12    28    30   ar
    13    29    31   ar
    14    25    23    1
    15    24    23    1
    16    27    26    1
    17     9     3    1
    18     3     1   ar
    19     4    17    1
    20     4     2   ar
    21    22    20    1
    22    20    17   ar
    23    20    21   ar
    24    17    15   ar
    25    21    26    1
    26    21    18   ar
    27    15    16   ar
    28    15    23    1
    29    18    16   ar
    30    18    30    1
    31    16    19    1
    32    30    33   ar
    33    31    36    1
    34    31    34   ar
    35     1     2   ar
    36     1    10    1
    37     2     5    1
    38    33    34   ar
    39    33    35    1
    40    34    40    1
    41    11    10    1
    42    10    12    1
    43    40    41    1
