@<TRIPOS>MOLECULE
mol_data/opt/m06hf/geoms/mol2/4hg4hg4hg.out
 41 43 0 0 0
SMALL
GASTEIGER

@<TRIPOS>ATOM
      1 C          -0.1784    1.0949    1.0198 C.ar    1  LIG1        0.0252
      2 C           1.2192    1.1019    1.0464 C.ar    1  LIG1       -0.0322
      3 C          -0.8170    1.0199   -0.2235 C.ar    1  LIG1       -0.0400
      4 C           1.9615    1.0373   -0.1294 C.ar    1  LIG1       -0.0012
      5 H           1.7469    1.1581    1.9913 H       1  LIG1        0.0642
      6 C          -0.0807    0.9494   -1.3979 C.ar    1  LIG1       -0.0462
      7 C           1.3137    0.9567   -1.3671 C.ar    1  LIG1        0.0126
      8 H          -0.6042    0.8943   -2.3444 H       1  LIG1        0.0629
      9 H          -1.8994    1.0232   -0.2693 H       1  LIG1        0.0636
     10 N          -0.9165    1.2132    2.1966 N.pl3   1  LIG1       -0.3579
     11 H          -1.8560    0.8456    2.1564 H       1  LIG1        0.1423
     12 H          -0.4318    0.9367    3.0382 H       1  LIG1        0.1423
     13 S           2.3304    0.8744   -2.8318 S.3     1  LIG1       -0.1420
     14 H           1.3100    0.7549   -3.6877 H       1  LIG1        0.1071
     15 C           4.1513   -0.1832   -0.0329 C.ar    1  LIG1        0.0330
     16 C           5.5492   -0.1494    0.0104 C.ar    1  LIG1       -0.0316
     17 C           3.4572    1.0379   -0.0659 C.ar    1  LIG1        0.0049
     18 C           6.2452    1.0551    0.0173 C.ar    1  LIG1       -0.0012
     19 H           6.1119   -1.0748    0.0333 H       1  LIG1        0.0642
     20 C           4.1538    2.2431   -0.0518 C.ar    1  LIG1       -0.0385
     21 C           5.5454    2.2690   -0.0130 C.ar    1  LIG1        0.0132
     22 H           3.5826    3.1635   -0.0747 H       1  LIG1        0.0635
     23 N           3.4604   -1.3876   -0.0005 N.pl3   1  LIG1       -0.3575
     24 H           2.5112   -1.3399   -0.3483 H       1  LIG1        0.1423
     25 H           3.9707   -2.1830   -0.3557 H       1  LIG1        0.1423
     26 S           6.4891    3.7844    0.0250 S.3     1  LIG1       -0.1420
     27 H           5.4528    4.5819   -0.2533 H       1  LIG1        0.1071
     28 C           8.4626    1.2819   -1.1406 C.ar    1  LIG1        0.0325
     29 C           9.8634    1.2670   -1.0881 C.ar    1  LIG1       -0.0394
     30 C           7.7416    1.0453    0.0455 C.ar    1  LIG1        0.0049
     31 C          10.5252    1.0237    0.1058 C.ar    1  LIG1       -0.0468
     32 H          10.4281    1.4350   -1.9967 H       1  LIG1        0.0636
     33 C           8.4202    0.7919    1.2342 C.ar    1  LIG1       -0.0390
     34 C           9.8115    0.7888    1.2804 C.ar    1  LIG1        0.0054
     35 H           7.8484    0.6035    2.1346 H       1  LIG1        0.0635
     36 H          11.6075    1.0110    0.1308 H       1  LIG1        0.0629
     37 N           7.8003    1.4684   -2.3398 N.pl3   1  LIG1       -0.3575
     38 H           6.8259    1.7288   -2.2653 H       1  LIG1        0.1423
     39 H           8.3045    1.9841   -3.0450 H       1  LIG1        0.1423
     40 S          10.6729    0.4274    2.8077 S.3     1  LIG1       -0.1426
     41 H          10.6719    1.6720    3.3033 H       1  LIG1        0.1071
@<TRIPOS>BOND
     1    14    13    1
     2    39    37    1
     3    13     7    1
     4     8     6    1
     5    37    38    1
     6    37    28    1
     7    32    29    1
     8     6     7   ar
     9     6     3   ar
    10     7     4   ar
    11    28    29   ar
    12    28    30   ar
    13    29    31   ar
    14    25    23    1
    15    24    23    1
    16     9     3    1
    17    27    26    1
    18     3     1   ar
    19     4    17    1
    20     4     2   ar
    21    22    20    1
    22    17    20   ar
    23    17    15   ar
    24    20    21   ar
    25    15    23    1
    26    15    16   ar
    27    21    18   ar
    28    21    26    1
    29    16    18   ar
    30    16    19    1
    31    18    30    1
    32    30    33   ar
    33    31    36    1
    34    31    34   ar
    35     1     2   ar
    36     1    10    1
    37     2     5    1
    38    33    34   ar
    39    33    35    1
    40    34    40    1
    41    11    10    1
    42    10    12    1
    43    40    41    1
