@<TRIPOS>MOLECULE
mol_data/opt/m06hf/geoms/mol2/4hg4hg-4hg-4hg.out
 54 57 0 0 0
SMALL
GASTEIGER

@<TRIPOS>ATOM
      1 C          -0.2256    1.6151    0.9801 C.ar    1  LIG1        0.0252
      2 C           1.1712    1.5935    0.9587 C.ar    1  LIG1       -0.0322
      3 C          -0.9128    1.1415   -0.1439 C.ar    1  LIG1       -0.0400
      4 C           1.8678    1.1098   -0.1471 C.ar    1  LIG1       -0.0012
      5 H           1.7359    1.9562    1.8096 H       1  LIG1        0.0642
      6 C          -0.2230    0.6506   -1.2432 C.ar    1  LIG1       -0.0462
      7 C           1.1718    0.6176   -1.2556 C.ar    1  LIG1        0.0126
      8 H          -0.7830    0.2896   -2.0968 H       1  LIG1        0.0629
      9 H          -1.9959    1.1622   -0.1561 H       1  LIG1        0.0636
     10 N          -0.9161    2.1451    2.0699 N.pl3   1  LIG1       -0.3579
     11 H          -1.8607    1.8071    2.1848 H       1  LIG1        0.1423
     12 H          -0.4035    2.1487    2.9402 H       1  LIG1        0.1423
     13 S           2.1184   -0.0365   -2.6218 S.3     1  LIG1       -0.1420
     14 H           1.0614   -0.5372   -3.2714 H       1  LIG1        0.1071
     15 C           4.0356    0.1075    0.6179 C.ar    1  LIG1        0.0330
     16 C           5.4326    0.1178    0.6210 C.ar    1  LIG1       -0.0316
     17 C           3.3644    1.0933   -0.1251 C.ar    1  LIG1        0.0049
     18 C           6.1536    1.0660   -0.1020 C.ar    1  LIG1       -0.0012
     19 H           5.9787   -0.6265    1.1891 H       1  LIG1        0.0642
     20 C           4.0860    2.0364   -0.8508 C.ar    1  LIG1       -0.0385
     21 C           5.4794    2.0298   -0.8600 C.ar    1  LIG1        0.0132
     22 H           3.5330    2.7749   -1.4195 H       1  LIG1        0.0635
     23 N           3.3211   -0.8228    1.3652 N.pl3   1  LIG1       -0.3575
     24 H           2.3751   -0.9833    1.0446 H       1  LIG1        0.1423
     25 H           3.8199   -1.6763    1.5720 H       1  LIG1        0.1423
     26 S           6.4403    3.1927   -1.8169 S.3     1  LIG1       -0.1420
     27 H           5.3960    3.6989   -2.4783 H       1  LIG1        0.1071
     28 C           8.3308   -0.0459   -0.6763 C.ar    1  LIG1        0.0330
     29 C           9.7278   -0.0602   -0.6174 C.ar    1  LIG1       -0.0316
     30 C           7.6487    1.0242   -0.0712 C.ar    1  LIG1        0.0049
     31 C          10.4373    0.9599    0.0088 C.ar    1  LIG1       -0.0012
     32 H          10.2806   -0.8730   -1.0732 H       1  LIG1        0.0642
     33 C           8.3607    2.0430    0.5568 C.ar    1  LIG1       -0.0385
     34 C           9.7529    2.0317    0.5946 C.ar    1  LIG1        0.0132
     35 H           7.8028    2.8459    1.0246 H       1  LIG1        0.0635
     36 N           7.6287   -1.0840   -1.2790 N.pl3   1  LIG1       -0.3575
     37 H           6.6938   -0.8447   -1.5831 H       1  LIG1        0.1423
     38 H           8.1490   -1.6091   -1.9667 H       1  LIG1        0.1423
     39 S          10.7133    3.3079    1.3901 S.3     1  LIG1       -0.1420
     40 H           9.7184    4.2002    1.4381 H       1  LIG1        0.1071
     41 C          12.6642    1.6078   -0.9484 C.ar    1  LIG1        0.0325
     42 C          14.0643    1.5495   -0.9103 C.ar    1  LIG1       -0.0394
     43 C          11.9335    0.9152    0.0357 C.ar    1  LIG1        0.0049
     44 C          14.7157    0.8347    0.0839 C.ar    1  LIG1       -0.0468
     45 H          14.6366    2.0648   -1.6717 H       1  LIG1        0.0636
     46 C          12.6006    0.2006    1.0257 C.ar    1  LIG1       -0.0390
     47 C          13.9920    0.1619    1.0679 C.ar    1  LIG1        0.0054
     48 H          12.0222   -0.3239    1.7761 H       1  LIG1        0.0635
     49 H          15.7975    0.7954    0.1007 H       1  LIG1        0.0629
     50 N          12.0055    2.2870   -1.9565 N.pl3   1  LIG1       -0.3575
     51 H          11.0396    2.5192   -1.7670 H       1  LIG1        0.1423
     52 H          12.5240    3.0288   -2.4021 H       1  LIG1        0.1423
     53 S          14.8359   -0.7747    2.3408 S.3     1  LIG1       -0.1426
     54 H          14.9139    0.2125    3.2417 H       1  LIG1        0.1071
@<TRIPOS>BOND
     1    14    13    1
     2    13     7    1
     3    27    26    1
     4    52    50    1
     5     8     6    1
     6    38    36    1
     7    50    51    1
     8    50    41    1
     9    26    21    1
    10    45    42    1
    11    37    36    1
    12    22    20    1
    13    36    28    1
    14     7     6   ar
    15     7     4   ar
    16     6     3   ar
    17    32    29    1
    18    41    42   ar
    19    41    43   ar
    20    42    44   ar
    21    21    20   ar
    22    21    18   ar
    23    20    17   ar
    24    28    29   ar
    25    28    30   ar
    26    29    31   ar
    27     9     3    1
    28     4    17    1
    29     4     2   ar
    30     3     1   ar
    31    17    15   ar
    32    18    30    1
    33    18    16   ar
    34    30    33   ar
    35    31    43    1
    36    31    34   ar
    37    43    46   ar
    38    44    49    1
    39    44    47   ar
    40    33    34   ar
    41    33    35    1
    42    34    39    1
    43    15    16   ar
    44    15    23    1
    45    16    19    1
    46     2     1   ar
    47     2     5    1
    48     1    10    1
    49    46    47   ar
    50    46    48    1
    51    24    23    1
    52    47    53    1
    53    23    25    1
    54    39    40    1
    55    10    11    1
    56    10    12    1
    57    53    54    1
