@<TRIPOS>MOLECULE
mol_data/opt/m06hf/geoms/mol2/4hg4hg-4hg.out
 41 43 0 0 0
SMALL
GASTEIGER

@<TRIPOS>ATOM
      1 C          -0.1568    1.2187    1.0214 C.ar    1  LIG1        0.0252
      2 C           1.2409    1.2100    1.0237 C.ar    1  LIG1       -0.0322
      3 C          -0.8186    1.0246   -0.1966 C.ar    1  LIG1       -0.0400
      4 C           1.9629    1.0129   -0.1501 C.ar    1  LIG1       -0.0012
      5 H           1.7852    1.3548    1.9496 H       1  LIG1        0.0642
      6 C          -0.1032    0.8283   -1.3692 C.ar    1  LIG1       -0.0462
      7 C           1.2916    0.8200   -1.3630 C.ar    1  LIG1        0.0126
      8 H          -0.6437    0.6907   -2.2977 H       1  LIG1        0.0629
      9 H          -1.9015    1.0367   -0.2245 H       1  LIG1        0.0636
     10 N          -0.8717    1.4663    2.1921 N.pl3   1  LIG1       -0.3579
     11 H          -1.8170    1.1117    2.2046 H       1  LIG1        0.1423
     12 H          -0.3760    1.2679    3.0492 H       1  LIG1        0.1423
     13 S           2.2735    0.6014   -2.8386 S.3     1  LIG1       -0.1420
     14 H           1.2352    0.3285   -3.6372 H       1  LIG1        0.1071
     15 C           4.1601   -0.2075   -0.1017 C.ar    1  LIG1        0.0330
     16 C           5.5580   -0.1660   -0.0549 C.ar    1  LIG1       -0.0316
     17 C           3.4592    1.0106   -0.1027 C.ar    1  LIG1        0.0049
     18 C           6.2480    1.0406   -0.0068 C.ar    1  LIG1       -0.0012
     19 H           6.1253   -1.0889   -0.0567 H       1  LIG1        0.0642
     20 C           4.1506    2.2177   -0.0471 C.ar    1  LIG1       -0.0385
     21 C           5.5418    2.2509    0.0006 C.ar    1  LIG1        0.0132
     22 H           3.5744    3.1353   -0.0394 H       1  LIG1        0.0635
     23 N           3.4801   -1.4179   -0.0959 N.pl3   1  LIG1       -0.3575
     24 H           2.5318   -1.3730   -0.4458 H       1  LIG1        0.1423
     25 H           3.9989   -2.2006   -0.4666 H       1  LIG1        0.1423
     26 S           6.4726    3.7716    0.1030 S.3     1  LIG1       -0.1420
     27 H           5.4234    4.5692   -0.1229 H       1  LIG1        0.1071
     28 C           8.4752    1.3314   -1.1339 C.ar    1  LIG1        0.0325
     29 C           9.8752    1.3306   -1.0666 C.ar    1  LIG1       -0.0394
     30 C           7.7441    1.0393    0.0347 C.ar    1  LIG1        0.0049
     31 C          10.5273    1.0492    0.1246 C.ar    1  LIG1       -0.0468
     32 H          10.4477    1.5436   -1.9609 H       1  LIG1        0.0636
     33 C           8.4131    0.7429    1.2184 C.ar    1  LIG1       -0.0390
     34 C           9.8040    0.7545    1.2799 C.ar    1  LIG1        0.0054
     35 H           7.8341    0.5073    2.1030 H       1  LIG1        0.0635
     36 H          11.6092    1.0523    0.1624 H       1  LIG1        0.0629
     37 N           7.8221    1.5583   -2.3315 N.pl3   1  LIG1       -0.3575
     38 H           6.8451    1.8081   -2.2546 H       1  LIG1        0.1423
     39 H           8.3273    2.1061   -3.0116 H       1  LIG1        0.1423
     40 S          10.6563    0.3313    2.7963 S.3     1  LIG1       -0.1426
     41 H          10.5497    1.5255    3.3920 H       1  LIG1        0.1071
@<TRIPOS>BOND
     1    14    13    1
     2    39    37    1
     3    13     7    1
     4    37    38    1
     5    37    28    1
     6     8     6    1
     7    32    29    1
     8     6     7   ar
     9     6     3   ar
    10     7     4   ar
    11    28    29   ar
    12    28    30   ar
    13    29    31   ar
    14    25    23    1
    15    24    23    1
    16     9     3    1
    17     3     1   ar
    18     4    17    1
    19     4     2   ar
    20    27    26    1
    21    17    15   ar
    22    17    20   ar
    23    15    23    1
    24    15    16   ar
    25    19    16    1
    26    16    18   ar
    27    20    22    1
    28    20    21   ar
    29    18    21   ar
    30    18    30    1
    31    21    26    1
    32    30    33   ar
    33    31    36    1
    34    31    34   ar
    35     1     2   ar
    36     1    10    1
    37     2     5    1
    38    33    34   ar
    39    33    35    1
    40    34    40    1
    41    10    11    1
    42    10    12    1
    43    40    41    1
