@<TRIPOS>MOLECULE
mol_data/opt/m06hf/geoms/mol2/4hg4hg-.out
 28 29 0 0 0
SMALL
GASTEIGER

@<TRIPOS>ATOM
      1 C          -0.0842    0.2895    0.7830 C.ar    1  LIG1        0.0252
      2 C           1.3120    0.3346    0.8271 C.ar    1  LIG1       -0.0322
      3 C          -0.7423    1.0663   -0.1771 C.ar    1  LIG1       -0.0400
      4 C           2.0379    1.1290   -0.0568 C.ar    1  LIG1       -0.0012
      5 H           1.8533   -0.2553    1.5572 H       1  LIG1        0.0642
      6 C          -0.0243    1.8601   -1.0605 C.ar    1  LIG1       -0.0462
      7 C           1.3691    1.9028   -1.0130 C.ar    1  LIG1        0.0126
      8 H          -0.5624    2.4579   -1.7857 H       1  LIG1        0.0629
      9 H          -1.8243    1.0552   -0.2244 H       1  LIG1        0.0636
     10 N          -0.8042   -0.4705    1.7047 N.pl3   1  LIG1       -0.3579
     11 H          -1.7285   -0.7464    1.4049 H       1  LIG1        0.1423
     12 H          -0.2929   -1.2367    2.1192 H       1  LIG1        0.1423
     13 S           2.3507    2.9233   -2.1020 S.3     1  LIG1       -0.1420
     14 H           1.3200    3.3360   -2.8463 H       1  LIG1        0.1071
     15 C           4.2980    0.4146   -0.8977 C.ar    1  LIG1        0.0325
     16 C           5.6953    0.4372   -0.7817 C.ar    1  LIG1       -0.0394
     17 C           3.5324    1.1460    0.0295 C.ar    1  LIG1        0.0049
     18 C           6.3106    1.1614    0.2274 C.ar    1  LIG1       -0.0468
     19 H           6.2931   -0.1344   -1.4807 H       1  LIG1        0.0636
     20 C           4.1652    1.8679    1.0387 C.ar    1  LIG1       -0.0390
     21 C           5.5527    1.8902    1.1444 C.ar    1  LIG1        0.0054
     22 H           3.5601    2.4224    1.7453 H       1  LIG1        0.0635
     23 H           7.3896    1.1609    0.3118 H       1  LIG1        0.0629
     24 N           3.6813   -0.3581   -1.8666 N.pl3   1  LIG1       -0.3575
     25 H           2.7182   -0.1199   -2.0622 H       1  LIG1        0.1423
     26 H           4.2277   -0.5367   -2.6959 H       1  LIG1        0.1423
     27 S           6.3448    2.7756    2.4841 S.3     1  LIG1       -0.1426
     28 H           6.5326    3.9349    1.8382 H       1  LIG1        0.1071
@<TRIPOS>BOND
     1    14    13    1
     2    26    24    1
     3    13     7    1
     4    25    24    1
     5    24    15    1
     6     8     6    1
     7    19    16    1
     8     6     7   ar
     9     6     3   ar
    10     7     4   ar
    11    15    16   ar
    12    15    17   ar
    13    16    18   ar
    14     9     3    1
    15     3     1   ar
    16     4    17    1
    17     4     2   ar
    18    17    20   ar
    19    18    23    1
    20    18    21   ar
    21     1     2   ar
    22     1    10    1
    23     2     5    1
    24    20    21   ar
    25    20    22    1
    26    21    27    1
    27    11    10    1
    28    10    12    1
    29    28    27    1
