@<TRIPOS>MOLECULE
mol_data/opt/m06hf/geoms/mol2/4hg4hg-4hg4hg.out
 54 57 0 0 0
SMALL
GASTEIGER

@<TRIPOS>ATOM
      1 C          -0.2788    1.8725    0.6105 C.ar    1  LIG1        0.0252
      2 C           1.1178    1.8769    0.6738 C.ar    1  LIG1       -0.0322
      3 C          -0.8991    0.9946   -0.2856 C.ar    1  LIG1       -0.0400
      4 C           1.8760    1.0313   -0.1306 C.ar    1  LIG1       -0.0012
      5 H           1.6312    2.5432    1.3567 H       1  LIG1        0.0642
      6 C          -0.1467    0.1483   -1.0886 C.ar    1  LIG1       -0.0462
      7 C           1.2460    0.1535   -1.0205 C.ar    1  LIG1        0.0126
      8 H          -0.6562   -0.5144   -1.7768 H       1  LIG1        0.0629
      9 H          -1.9798    0.9807   -0.3585 H       1  LIG1        0.0636
     10 N          -1.0317    2.7561    1.3830 N.pl3   1  LIG1       -0.3579
     11 H          -1.9831    2.4682    1.5606 H       1  LIG1        0.1423
     12 H          -0.5728    3.0938    2.2167 H       1  LIG1        0.1423
     13 S           2.2868   -0.8908   -2.0262 S.3     1  LIG1       -0.1420
     14 H           1.2878   -1.6045   -2.5579 H       1  LIG1        0.1071
     15 C           4.0324    0.0913    0.7446 C.ar    1  LIG1        0.0330
     16 C           5.4304    0.1112    0.7730 C.ar    1  LIG1       -0.0316
     17 C           3.3704    1.0508   -0.0409 C.ar    1  LIG1        0.0049
     18 C           6.1552    1.0518    0.0474 C.ar    1  LIG1       -0.0012
     19 H           5.9711   -0.6197    1.3626 H       1  LIG1        0.0642
     20 C           4.0973    1.9930   -0.7630 C.ar    1  LIG1       -0.0385
     21 C           5.4896    2.0033   -0.7340 C.ar    1  LIG1        0.0132
     22 H           3.5487    2.7082   -1.3646 H       1  LIG1        0.0635
     23 N           3.3118   -0.8240    1.5012 N.pl3   1  LIG1       -0.3575
     24 H           2.3632   -0.9784    1.1840 H       1  LIG1        0.1423
     25 H           3.7999   -1.6837    1.7080 H       1  LIG1        0.1423
     26 S           6.4764    3.1590   -1.6715 S.3     1  LIG1       -0.1420
     27 H           5.4411    3.7185   -2.3070 H       1  LIG1        0.1071
     28 C           8.3128    0.1023   -0.7879 C.ar    1  LIG1        0.0330
     29 C           9.7115    0.0961   -0.7860 C.ar    1  LIG1       -0.0316
     30 C           7.6510    1.0087    0.0577 C.ar    1  LIG1        0.0049
     31 C          10.4382    0.9634    0.0230 C.ar    1  LIG1       -0.0012
     32 H          10.2510   -0.5877   -1.4303 H       1  LIG1        0.0642
     33 C           8.3786    1.8738    0.8697 C.ar    1  LIG1       -0.0385
     34 C           9.7712    1.8650    0.8621 C.ar    1  LIG1        0.0132
     35 H           7.8315    2.5584    1.5071 H       1  LIG1        0.0635
     36 N           7.5910   -0.7862   -1.5739 N.pl3   1  LIG1       -0.3575
     37 H           6.6335   -0.5146   -1.7567 H       1  LIG1        0.1423
     38 H           8.0733   -1.1243   -2.3936 H       1  LIG1        0.1423
     39 S          10.7605    2.9385    1.8900 S.3     1  LIG1       -0.1420
     40 H           9.7352    3.6842    2.3181 H       1  LIG1        0.1071
     41 C          12.6096    1.8842   -0.8301 C.ar    1  LIG1        0.0325
     42 C          14.0106    1.8455   -0.8740 C.ar    1  LIG1       -0.0394
     43 C          11.9341    0.9450   -0.0276 C.ar    1  LIG1        0.0049
     44 C          14.7156    0.9070   -0.1356 C.ar    1  LIG1       -0.0468
     45 H          14.5400    2.5513   -1.5022 H       1  LIG1        0.0636
     46 C          12.6552    0.0078    0.7063 C.ar    1  LIG1       -0.0390
     47 C          14.0468   -0.0144    0.6698 C.ar    1  LIG1        0.0054
     48 H          12.1184   -0.7060    1.3193 H       1  LIG1        0.0635
     49 H          15.7969    0.8843   -0.1825 H       1  LIG1        0.0629
     50 N          11.8987    2.7870   -1.5988 N.pl3   1  LIG1       -0.3575
     51 H          10.9372    2.9356   -1.3224 H       1  LIG1        0.1423
     52 H          12.3857    3.6345   -1.8475 H       1  LIG1        0.1423
     53 S          14.9602   -1.2407    1.6021 S.3     1  LIG1       -0.1426
     54 H          15.0851   -0.5315    2.7301 H       1  LIG1        0.1071
@<TRIPOS>BOND
     1    14    13    1
     2    38    36    1
     3    27    26    1
     4    13     7    1
     5    52    50    1
     6     8     6    1
     7    37    36    1
     8    26    21    1
     9    50    51    1
    10    50    41    1
    11    36    28    1
    12    45    42    1
    13    32    29    1
    14    22    20    1
    15     6     7   ar
    16     6     3   ar
    17     7     4   ar
    18    42    41   ar
    19    42    44   ar
    20    41    43   ar
    21    28    29   ar
    22    28    30   ar
    23    29    31   ar
    24    20    21   ar
    25    20    17   ar
    26    21    18   ar
    27     9     3    1
    28     3     1   ar
    29    49    44    1
    30    44    47   ar
    31     4    17    1
    32     4     2   ar
    33    17    15   ar
    34    43    31    1
    35    43    46   ar
    36    31    34   ar
    37    18    30    1
    38    18    16   ar
    39    30    33   ar
    40     1     2   ar
    41     1    10    1
    42    47    46   ar
    43    47    53    1
    44     2     5    1
    45    46    48    1
    46    15    16   ar
    47    15    23    1
    48    16    19    1
    49    34    33   ar
    50    34    39    1
    51    33    35    1
    52    24    23    1
    53    10    11    1
    54    10    12    1
    55    23    25    1
    56    53    54    1
    57    39    40    1
