@<TRIPOS>MOLECULE
mol_data/opt/m06hf/geoms/mol2/4hg4hg.out
 28 29 0 0 0
SMALL
GASTEIGER

@<TRIPOS>ATOM
      1 C          -0.0810    0.2766    0.7788 C.ar    1  LIG1        0.0252
      2 C           1.3150    0.3264    0.8228 C.ar    1  LIG1       -0.0322
      3 C          -0.7421    1.0552   -0.1777 C.ar    1  LIG1       -0.0400
      4 C           2.0379    1.1271   -0.0579 C.ar    1  LIG1       -0.0012
      5 H           1.8586   -0.2647    1.5503 H       1  LIG1        0.0642
      6 C          -0.0272    1.8553   -1.0579 C.ar    1  LIG1       -0.0462
      7 C           1.3661    1.9027   -1.0106 C.ar    1  LIG1        0.0126
      8 H          -0.5675    2.4544   -1.7803 H       1  LIG1        0.0629
      9 H          -1.8241    1.0405   -0.2248 H       1  LIG1        0.0636
     10 N          -0.7980   -0.4900    1.6974 N.pl3   1  LIG1       -0.3579
     11 H          -1.7216   -0.7675    1.3969 H       1  LIG1        0.1423
     12 H          -0.2840   -1.2563    2.1083 H       1  LIG1        0.1423
     13 S           2.3437    2.9314   -2.0954 S.3     1  LIG1       -0.1420
     14 H           1.3114    3.3444   -2.8371 H       1  LIG1        0.1071
     15 C           4.3003    0.4245   -0.9026 C.ar    1  LIG1        0.0325
     16 C           5.6975    0.4517   -0.7869 C.ar    1  LIG1       -0.0394
     17 C           3.5323    1.1490    0.0281 C.ar    1  LIG1        0.0049
     18 C           6.3105    1.1734    0.2254 C.ar    1  LIG1       -0.0468
     19 H           6.2972   -0.1147   -1.4886 H       1  LIG1        0.0636
     20 C           4.1629    1.8687    1.0403 C.ar    1  LIG1       -0.0390
     21 C           5.5503    1.8954    1.1458 C.ar    1  LIG1        0.0054
     22 H           3.5560    2.4181    1.7495 H       1  LIG1        0.0635
     23 H           7.3895    1.1764    0.3094 H       1  LIG1        0.0629
     24 N           3.6861   -0.3461   -1.8747 N.pl3   1  LIG1       -0.3575
     25 H           2.7221   -0.1103   -2.0690 H       1  LIG1        0.1423
     26 H           4.2328   -0.5190   -2.7049 H       1  LIG1        0.1423
     27 S           6.3396    2.7773    2.4895 S.3     1  LIG1       -0.1426
     28 H           6.5242    3.9401    1.8489 H       1  LIG1        0.1071
@<TRIPOS>BOND
     1    14    13    1
     2    26    24    1
     3    13     7    1
     4    25    24    1
     5    24    15    1
     6     8     6    1
     7    19    16    1
     8     6     7   ar
     9     6     3   ar
    10     7     4   ar
    11    15    16   ar
    12    15    17   ar
    13    16    18   ar
    14     9     3    1
    15     3     1   ar
    16     4    17    1
    17     4     2   ar
    18    17    20   ar
    19    18    23    1
    20    18    21   ar
    21     1     2   ar
    22     1    10    1
    23     2     5    1
    24    20    21   ar
    25    20    22    1
    26    21    27    1
    27    11    10    1
    28    10    12    1
    29    28    27    1
