@<TRIPOS>MOLECULE
mol_data/opt/m06hf/geoms/mol2/4hg4hg-4hg4hg-.out
 54 57 0 0 0
SMALL
GASTEIGER

@<TRIPOS>ATOM
      1 C          -0.2638    1.9184    0.5991 C.ar    1  LIG1        0.0252
      2 C           1.1331    1.9078    0.6501 C.ar    1  LIG1       -0.0322
      3 C          -0.9026    1.0223   -0.2655 C.ar    1  LIG1       -0.0400
      4 C           1.8747    1.0287   -0.1340 C.ar    1  LIG1       -0.0012
      5 H           1.6603    2.5884    1.3080 H       1  LIG1        0.0642
      6 C          -0.1670    0.1442   -1.0493 C.ar    1  LIG1       -0.0462
      7 C           1.2263    0.1324   -0.9912 C.ar    1  LIG1        0.0126
      8 H          -0.6898   -0.5303   -1.7160 H       1  LIG1        0.0629
      9 H          -1.9839    1.0201   -0.3298 H       1  LIG1        0.0636
     10 N          -0.9989    2.8339    1.3511 N.pl3   1  LIG1       -0.3579
     11 H          -1.9525    2.5637    1.5446 H       1  LIG1        0.1423
     12 H          -0.5289    3.1898    2.1711 H       1  LIG1        0.1423
     13 S           2.2397   -0.9580   -1.9774 S.3     1  LIG1       -0.1420
     14 H           1.2276   -1.7156   -2.4145 H       1  LIG1        0.1071
     15 C           4.0319    0.0884    0.7420 C.ar    1  LIG1        0.0330
     16 C           5.4298    0.1068    0.7681 C.ar    1  LIG1       -0.0316
     17 C           3.3700    1.0378   -0.0561 C.ar    1  LIG1        0.0049
     18 C           6.1551    1.0358    0.0283 C.ar    1  LIG1       -0.0012
     19 H           5.9702   -0.6151    1.3691 H       1  LIG1        0.0642
     20 C           4.0974    1.9671   -0.7941 C.ar    1  LIG1       -0.0385
     21 C           5.4899    1.9755   -0.7674 C.ar    1  LIG1        0.0132
     22 H           3.5492    2.6753   -1.4042 H       1  LIG1        0.0635
     23 N           3.3110   -0.8133    1.5145 N.pl3   1  LIG1       -0.3575
     24 H           2.3624   -0.9721    1.1999 H       1  LIG1        0.1423
     25 H           3.7985   -1.6702    1.7340 H       1  LIG1        0.1423
     26 S           6.4773    3.1161   -1.7226 S.3     1  LIG1       -0.1420
     27 H           5.4423    3.6688   -2.3644 H       1  LIG1        0.1071
     28 C           8.3188    0.0863   -0.7939 C.ar    1  LIG1        0.0330
     29 C           9.7176    0.0840   -0.7861 C.ar    1  LIG1       -0.0316
     30 C           7.6510    0.9960    0.0432 C.ar    1  LIG1        0.0049
     31 C          10.4384    0.9583    0.0206 C.ar    1  LIG1       -0.0012
     32 H          10.2617   -0.6023   -1.4239 H       1  LIG1        0.0642
     33 C           8.3729    1.8680    0.8531 C.ar    1  LIG1       -0.0385
     34 C           9.7654    1.8631    0.8516 C.ar    1  LIG1        0.0132
     35 H           7.8210    2.5550    1.4839 H       1  LIG1        0.0635
     36 N           7.6028   -0.8093   -1.5770 N.pl3   1  LIG1       -0.3575
     37 H           6.6451   -0.5417   -1.7649 H       1  LIG1        0.1423
     38 H           8.0890   -1.1508   -2.3929 H       1  LIG1        0.1423
     39 S          10.7478    2.9449    1.8771 S.3     1  LIG1       -0.1420
     40 H           9.7196    3.6913    2.2969 H       1  LIG1        0.1071
     41 C          12.6107    1.8825   -0.8263 C.ar    1  LIG1        0.0325
     42 C          14.0120    1.8488   -0.8627 C.ar    1  LIG1       -0.0394
     43 C          11.9345    0.9443   -0.0232 C.ar    1  LIG1        0.0049
     44 C          14.7167    0.9162   -0.1166 C.ar    1  LIG1       -0.0468
     45 H          14.5421    2.5540   -1.4911 H       1  LIG1        0.0636
     46 C          12.6554    0.0131    0.7187 C.ar    1  LIG1       -0.0390
     47 C          14.0472   -0.0042    0.6894 C.ar    1  LIG1        0.0054
     48 H          12.1181   -0.6998    1.3323 H       1  LIG1        0.0635
     49 H          15.7983    0.8974   -0.1577 H       1  LIG1        0.0629
     50 N          11.9004    2.7793   -1.6025 N.pl3   1  LIG1       -0.3575
     51 H          10.9371    2.9256   -1.3315 H       1  LIG1        0.1423
     52 H          12.3857    3.6275   -1.8524 H       1  LIG1        0.1423
     53 S          14.9601   -1.2229    1.6319 S.3     1  LIG1       -0.1426
     54 H          15.0830   -0.5055    2.7549 H       1  LIG1        0.1071
@<TRIPOS>BOND
     1    14    13    1
     2    38    36    1
     3    27    26    1
     4    13     7    1
     5    52    50    1
     6    37    36    1
     7    26    21    1
     8     8     6    1
     9    50    51    1
    10    50    41    1
    11    36    28    1
    12    45    42    1
    13    32    29    1
    14    22    20    1
    15     6     7   ar
    16     6     3   ar
    17     7     4   ar
    18    42    41   ar
    19    42    44   ar
    20    41    43   ar
    21    20    21   ar
    22    20    17   ar
    23    28    29   ar
    24    28    30   ar
    25    29    31   ar
    26    21    18   ar
    27     9     3    1
    28     3     1   ar
    29    49    44    1
    30     4    17    1
    31     4     2   ar
    32    44    47   ar
    33    17    15   ar
    34    43    31    1
    35    43    46   ar
    36    31    34   ar
    37    18    30    1
    38    18    16   ar
    39    30    33   ar
    40     1     2   ar
    41     1    10    1
    42     2     5    1
    43    47    46   ar
    44    47    53    1
    45    46    48    1
    46    15    16   ar
    47    15    23    1
    48    16    19    1
    49    34    33   ar
    50    34    39    1
    51    33    35    1
    52    24    23    1
    53    10    11    1
    54    10    12    1
    55    23    25    1
    56    53    54    1
    57    39    40    1
