@<TRIPOS>MOLECULE
mol_data/opt/m06hf/geoms/mol2/4hh.out
 16 16 0 0 0
SMALL
GASTEIGER

@<TRIPOS>ATOM
      1 C           0.0737    0.0239   -0.0418 C.ar    1  LIG1        0.0247
      2 C           1.4702    0.0285   -0.0362 C.ar    1  LIG1       -0.0393
      3 C          -0.5860    1.2546   -0.0392 C.ar    1  LIG1       -0.0393
      4 C           2.1817    1.2217   -0.0369 C.ar    1  LIG1       -0.0393
      5 H           2.0070   -0.9125   -0.0250 H       1  LIG1        0.0636
      6 C           0.1256    2.4479   -0.0398 C.ar    1  LIG1       -0.0393
      7 C           1.5220    2.4525   -0.0431 C.ar    1  LIG1        0.0247
      8 H          -0.4113    3.3889   -0.0316 H       1  LIG1        0.0636
      9 H           3.2648    1.1967   -0.0265 H       1  LIG1        0.0636
     10 H          -1.6691    1.2797   -0.0307 H       1  LIG1        0.0636
     11 N          -0.6470   -1.1851    0.0090 N.pl3   1  LIG1       -0.3580
     12 H          -1.5758   -1.1184   -0.3859 H       1  LIG1        0.1423
     13 H          -0.1472   -1.9701   -0.3871 H       1  LIG1        0.1423
     14 N           2.2428    3.6615    0.0063 N.pl3   1  LIG1       -0.3580
     15 H           3.1717    3.5941   -0.3882 H       1  LIG1        0.1423
     16 H           1.7432    4.4459   -0.3911 H       1  LIG1        0.1423
@<TRIPOS>BOND
     1    16    14    1
     2    15    14    1
     3    13    11    1
     4    12    11    1
     5     7     6   ar
     6     7     4   ar
     7     7    14    1
     8     1     3   ar
     9     1     2   ar
    10     1    11    1
    11     6     3   ar
    12     6     8    1
    13     3    10    1
    14     4     2   ar
    15     4     9    1
    16     2     5    1
