@<TRIPOS>MOLECULE
mol_data/opt/m06hf/geoms/mol2/4hh12il-13ai13hl.out
 55 58 0 0 0
SMALL
GASTEIGER

@<TRIPOS>ATOM
      1 C          -0.1435    0.1136   -0.9013 C.ar    1  LIG1        0.0253
      2 C           1.2396    0.2058   -0.7689 C.ar    1  LIG1       -0.0286
      3 C          -0.9304    0.9686   -0.1250 C.ar    1  LIG1       -0.0393
      4 C           1.8335    1.1108    0.1142 C.ar    1  LIG1        0.0400
      5 H           1.8829   -0.4256   -1.3715 H       1  LIG1        0.0644
      6 C          -0.3493    1.8771    0.7468 C.ar    1  LIG1       -0.0386
      7 C           1.0389    1.9693    0.8934 C.ar    1  LIG1        0.0354
      8 H          -0.9836    2.5216    1.3439 H       1  LIG1        0.0637
      9 H          -2.0101    0.9178   -0.2016 H       1  LIG1        0.0636
     10 N          -0.7323   -0.8415   -1.7519 N.pl3   1  LIG1       -0.3579
     11 H          -1.6421   -0.5667   -2.0979 H       1  LIG1        0.1423
     12 H          -0.1334   -1.1267   -2.5156 H       1  LIG1        0.1423
     13 N           1.5970    2.8314    1.8386 N.pl3   1  LIG1       -0.3574
     14 H           2.5491    3.1133    1.6559 H       1  LIG1        0.1423
     15 H           1.0003    3.5966    2.1151 H       1  LIG1        0.1423
     16 C           3.3023    1.1140    0.2291 C.ar    1  LIG1        0.1441
     17 C           4.2077    0.1039    0.3285 C.ar    1  LIG1        0.0377
     18 C           5.4919    0.7545    0.4126 C.ar    1  LIG1        0.1706
     19 C           5.2766    2.0939    0.3575 C.ar    1  LIG1        0.1934
     20 O           3.9434    2.3233    0.2473 O.2     1  LIG1       -0.4492
     21 C           3.9698   -1.3807    0.4161 C.3     1  LIG1       -0.0326
     22 H           4.7154   -1.8192    1.0798 H       1  LIG1        0.0280
     23 H           4.0610   -1.8545   -0.5637 H       1  LIG1        0.0280
     24 H           2.9720   -1.5773    0.8073 H       1  LIG1        0.0280
     25 O           6.7005    0.1409    0.5443 O.3     1  LIG1       -0.4910
     26 C           7.2552   -0.2681   -0.7059 C.3     1  LIG1        0.0790
     27 H           8.2035   -0.7486   -0.4785 H       1  LIG1        0.0660
     28 H           6.5874   -0.9748   -1.2030 H       1  LIG1        0.0660
     29 H           7.4150    0.6030   -1.3440 H       1  LIG1        0.0660
     30 C           6.1710    3.2365    0.3924 C.ar    1  LIG1        0.0865
     31 C           7.5230    3.3135    0.6547 C.ar    1  LIG1       -0.0297
     32 C           7.9011    4.6813    0.5414 C.ar    1  LIG1       -0.0230
     33 C           6.7590    5.3863    0.2062 C.ar    1  LIG1        0.0683
     34 N           5.7192    4.4952    0.1227 N.ar    1  LIG1       -0.3503
     35 H           4.7910    4.7136   -0.2054 H       1  LIG1        0.1660
     36 H           8.1471    2.4791    0.9307 H       1  LIG1        0.0643
     37 C           9.2645    5.2782    0.7934 C.3     1  LIG1       -0.0376
     38 H           9.2045    6.3665    0.7634 H       1  LIG1        0.0278
     39 H           9.9812    4.9527    0.0367 H       1  LIG1        0.0278
     40 H           9.6357    4.9674    1.7708 H       1  LIG1        0.0278
     41 C           6.5732    6.8136   -0.0446 C.ar    1  LIG1        0.0877
     42 C           7.2743    7.6490   -0.8846 C.ar    1  LIG1        0.0939
     43 C           6.6809    8.9402   -0.7699 C.ar    1  LIG1        0.1585
     44 C           5.6433    8.8543    0.1255 C.ar    1  LIG1        0.0463
     45 N           5.5797    7.5607    0.5527 N.ar    1  LIG1       -0.3550
     46 H           4.9926    7.2190    1.2951 H       1  LIG1        0.1655
     47 H           4.9627    9.6141    0.4665 H       1  LIG1        0.0845
     48 N           8.3811    7.3430   -1.7001 N.pl3   1  LIG1       -0.3535
     49 H           8.4725    6.3405   -1.8336 H       1  LIG1        0.1425
     50 H           8.3014    7.8086   -2.5987 H       1  LIG1        0.1425
     51 O           7.0833   10.0479   -1.4639 O.3     1  LIG1       -0.4918
     52 C           8.3122   10.5782   -0.9688 C.3     1  LIG1        0.0789
     53 H           8.5676   11.4190   -1.6103 H       1  LIG1        0.0660
     54 H           8.1822   10.9170    0.0611 H       1  LIG1        0.0660
     55 H           9.0936    9.8164   -1.0104 H       1  LIG1        0.0660
@<TRIPOS>BOND
     1    50    48    1
     2    12    10    1
     3    11    10    1
     4    49    48    1
     5    10     1    1
     6    48    42    1
     7    53    52    1
     8    51    52    1
     9    51    43    1
    10     5     2    1
    11    29    26    1
    12    28    26    1
    13    55    52    1
    14    52    54    1
    15     1     2   ar
    16     1     3   ar
    17    42    43   ar
    18    42    41   ar
    19    43    44   ar
    20     2     4   ar
    21    26    27    1
    22    26    25    1
    23    23    21    1
    24    35    34    1
    25     9     3    1
    26     3     6   ar
    27    41    33    1
    28    41    45   ar
    29    39    37    1
    30     4    16    1
    31     4     7   ar
    32    34    33   ar
    33    34    30   ar
    34    44    47    1
    35    44    45   ar
    36    33    32   ar
    37    16    20   ar
    38    16    17   ar
    39    20    19   ar
    40    17    18   ar
    41    17    21    1
    42    19    30    1
    43    19    18   ar
    44    30    31   ar
    45    18    25    1
    46    21    24    1
    47    21    22    1
    48    32    31   ar
    49    32    37    1
    50    45    46    1
    51    31    36    1
    52     6     7   ar
    53     6     8    1
    54    38    37    1
    55    37    40    1
    56     7    13    1
    57    14    13    1
    58    13    15    1
