@<TRIPOS>MOLECULE
mol_data/opt/m06hf/geoms/mol2/4hh12hl-6ld4fh4af6eh-12ih-12ha-.out
 101 108 0 0 0
SMALL
GASTEIGER

@<TRIPOS>ATOM
      1 C           0.5885   -1.2799    1.5600 C.ar    1  LIG1        0.0253
      2 C           1.7708   -0.9083    0.9290 C.ar    1  LIG1       -0.0285
      3 C          -0.3044   -0.2662    1.9257 C.ar    1  LIG1       -0.0393
      4 C           2.0586    0.4321    0.6358 C.ar    1  LIG1        0.0416
      5 H           2.5101   -1.6647    0.6859 H       1  LIG1        0.0644
      6 C          -0.0047    1.0626    1.6784 C.ar    1  LIG1       -0.0386
      7 C           1.1737    1.4537    1.0295 C.ar    1  LIG1        0.0355
      8 H          -0.6914    1.8351    2.0031 H       1  LIG1        0.0637
      9 H          -1.2259   -0.5222    2.4348 H       1  LIG1        0.0636
     10 N           0.3320   -2.6217    1.8918 N.pl3   1  LIG1       -0.3579
     11 H          -0.6509   -2.8389    1.9854 H       1  LIG1        0.1423
     12 H           0.7960   -3.2904    1.2925 H       1  LIG1        0.1423
     13 N           1.4196    2.8186    0.8394 N.pl3   1  LIG1       -0.3574
     14 H           2.2602    3.0621    0.3320 H       1  LIG1        0.1423
     15 H           0.6063    3.3475    0.5589 H       1  LIG1        0.1423
     16 C           3.2819    0.7138   -0.1226 C.ar    1  LIG1        0.1618
     17 C           3.9776   -0.0075   -1.0514 C.ar    1  LIG1        0.1140
     18 C           5.0867    0.8206   -1.4315 C.ar    1  LIG1        0.1872
     19 C           4.9776    1.9905   -0.7360 C.ar    1  LIG1        0.1841
     20 O           3.8933    1.9127    0.0589 O.2     1  LIG1       -0.4489
     21 N           3.7395   -1.2842   -1.5837 N.pl3   1  LIG1       -0.3522
     22 H           2.7564   -1.5327   -1.5440 H       1  LIG1        0.1425
     23 H           4.0717   -1.3330   -2.5423 H       1  LIG1        0.1425
     24 O           6.0396    0.4737   -2.3409 O.3     1  LIG1       -0.4896
     25 C           6.9573   -0.5006   -1.8225 C.3     1  LIG1        0.0791
     26 H           7.6390   -0.7379   -2.6350 H       1  LIG1        0.0660
     27 H           7.5028   -0.0781   -0.9763 H       1  LIG1        0.0660
     28 H           6.4131   -1.3910   -1.5035 H       1  LIG1        0.0660
     29 C           5.3731    4.4117   -0.1042 C.ar    1  LIG1        0.2262
     30 C           5.7773    3.2140   -0.7518 C.ar    1  LIG1        0.0837
     31 C           6.9734    3.2707   -1.4448 C.ar    1  LIG1       -0.0263
     32 C           7.7364    4.4443   -1.4279 C.ar    1  LIG1        0.0787
     33 C           7.2861    5.5490   -0.7017 C.ar    1  LIG1        0.0957
     34 N           6.1032    5.5070   -0.0818 N.ar    1  LIG1       -0.2109
     35 H           7.3074    2.4124   -2.0130 H       1  LIG1        0.0640
     36 O           4.1890    4.4256    0.5074 O.3     1  LIG1       -0.4792
     37 C           3.8249    5.5975    1.2390 C.3     1  LIG1        0.0804
     38 H           2.8784    5.3406    1.7059 H       1  LIG1        0.0660
     39 H           4.5855    5.8212    1.9850 H       1  LIG1        0.0660
     40 H           3.7199    6.4446    0.5621 H       1  LIG1        0.0660
     41 N           9.9232    4.5312   -2.8152 N.1     1  LIG1       -0.1908
     42 C           8.9531    4.4999   -2.1999 C.1     1  LIG1        0.1013
     43 C           9.3922    6.9026   -0.3246 C.ar    1  LIG1        0.1267
     44 C          10.0030    8.1481   -0.2261 C.ar    1  LIG1       -0.0101
     45 C           8.0273    6.8386   -0.6139 C.ar    1  LIG1        0.0449
     46 C           9.2932    9.3293   -0.4188 C.ar    1  LIG1        0.0064
     47 H          11.0512    8.1870    0.0431 H       1  LIG1        0.0661
     48 C           7.3040    8.0190   -0.7874 C.ar    1  LIG1       -0.0277
     49 C           7.9157    9.2684   -0.7120 C.ar    1  LIG1        0.0332
     50 H           6.2416    7.9478   -0.9878 H       1  LIG1        0.0644
     51 O          10.1134    5.7662   -0.0365 O.3     1  LIG1       -0.5061
     52 H          10.5957    5.4761   -0.8233 H       1  LIG1        0.2922
     53 N           7.1635   10.4362   -0.8862 N.pl3   1  LIG1       -0.3575
     54 H           7.6999   11.2240   -1.2301 H       1  LIG1        0.1423
     55 H           6.3132   10.2984   -1.4151 H       1  LIG1        0.1423
     56 C          11.1737   10.8797   -1.0118 C.ar    1  LIG1       -0.0532
     57 C          11.8217   12.1047   -0.8806 C.ar    1  LIG1       -0.0499
     58 C           9.9971   10.6415   -0.3018 C.ar    1  LIG1       -0.0125
     59 C          11.3174   13.1042   -0.0531 C.ar    1  LIG1        0.0263
     60 H          12.7204   12.3086   -1.4500 H       1  LIG1        0.0625
     61 C           9.4900   11.6323    0.5447 C.ar    1  LIG1       -0.0118
     62 C          10.1469   12.8512    0.6737 C.ar    1  LIG1        0.1252
     63 H           8.5848   11.4386    1.1109 H       1  LIG1        0.0660
     64 H          11.5601   10.1209   -1.6791 H       1  LIG1        0.0624
     65 O           9.7125   13.8228    1.5131 O.3     1  LIG1       -0.5061
     66 H           8.8437   13.6053    1.8664 H       1  LIG1        0.2922
     67 C          11.3867   15.6138   -0.3498 C.ar    1  LIG1        0.1218
     68 C          12.0068   14.4194    0.0613 C.ar    1  LIG1        0.0212
     69 C          13.3073   14.4922    0.5342 C.ar    1  LIG1       -0.0284
     70 C          13.9641   15.7247    0.6017 C.ar    1  LIG1        0.0546
     71 C          13.2358   16.8610    0.1969 C.ar    1  LIG1        0.1282
     72 N          11.9958   16.7909   -0.2730 N.ar    1  LIG1       -0.2328
     73 H          13.8120   13.5878    0.8543 H       1  LIG1        0.0644
     74 C          10.0498   15.5963   -0.9103 C.1     1  LIG1       -0.0492
     75 C           8.9482   15.5754   -1.3888 C.1     1  LIG1       -0.1124
     76 H           7.9737   15.5794   -1.8187 H       1  LIG1        0.1232
     77 N          15.2629   15.8267    1.0750 N.pl3   1  LIG1       -0.3562
     78 H          15.8190   14.9878    0.9943 H       1  LIG1        0.1424
     79 H          15.7475   16.6671    0.7838 H       1  LIG1        0.1424
     80 C          13.8579   18.2037    0.2384 C.ar    1  LIG1        0.1605
     81 C          14.5017   18.8911    1.2225 C.ar    1  LIG1        0.0183
     82 C          14.8578   20.1575    0.6303 C.ar    1  LIG1        0.0777
     83 C          14.3850   20.1327   -0.6507 C.ar    1  LIG1        0.1932
     84 O          13.7875   18.9499   -0.8886 O.2     1  LIG1       -0.4479
     85 C          14.7428   18.4857    2.6543 C.3     1  LIG1       -0.0343
     86 H          14.2705   19.2051    3.3262 H       1  LIG1        0.0279
     87 H          15.8126   18.4590    2.8747 H       1  LIG1        0.0279
     88 H          14.3268   17.4985    2.8462 H       1  LIG1        0.0279
     89 N          15.5797   21.2304    1.2333 N.pl3   1  LIG1       -0.3547
     90 H          15.2733   21.3768    2.1913 H       1  LIG1        0.1424
     91 H          16.5781   21.0396    1.2455 H       1  LIG1        0.1424
     92 C          14.4219   21.0954   -1.7356 C.ar    1  LIG1        0.1920
     93 C          14.5767   22.4547   -1.7597 C.ar    1  LIG1        0.0741
     94 C          14.5124   22.8214   -3.1533 C.ar    1  LIG1       -0.0024
     95 C          14.3199   21.6667   -3.8353 C.ar    1  LIG1        0.0946
     96 O          14.2637   20.6192   -3.0029 O.2     1  LIG1       -0.4579
     97 H          14.2046   21.4519   -4.8831 H       1  LIG1        0.1030
     98 N          14.6901   23.3229   -0.6831 N.pl3   1  LIG1       -0.3550
     99 H          15.0589   22.8632    0.1501 H       1  LIG1        0.1424
    100 H          15.1679   24.1836   -0.9104 H       1  LIG1        0.1424
    101 H          14.5848   23.8155   -3.5607 H       1  LIG1        0.0668
@<TRIPOS>BOND
     1    97    95    1
     2    95    94   ar
     3    95    96   ar
     4   101    94    1
     5    94    93   ar
     6    96    92   ar
     7    41    42    3
     8    26    25    1
     9    23    21    1
    10    24    25    1
    11    24    18    1
    12    42    32    1
    13    35    31    1
    14    25    28    1
    15    25    27    1
    16    76    75    1
    17    93    92   ar
    18    93    98    1
    19    92    83    1
    20    64    56    1
    21    21    22    1
    22    21    17    1
    23    60    57    1
    24    31    32   ar
    25    31    30   ar
    26    18    17   ar
    27    18    19   ar
    28    32    33   ar
    29    55    53    1
    30    75    74    3
    31    54    53    1
    32    17    16   ar
    33    56    57   ar
    34    56    58   ar
    35    50    48    1
    36   100    98    1
    37    74    67    1
    38    84    83   ar
    39    84    80   ar
    40    53    49    1
    41    57    59   ar
    42    52    51    1
    43    48    49   ar
    44    48    45   ar
    45    30    19    1
    46    30    29   ar
    47    19    20   ar
    48    49    46   ar
    49    33    45    1
    50    33    34   ar
    51    98    99    1
    52    83    82   ar
    53    45    43   ar
    54    46    58    1
    55    46    44   ar
    56    67    72   ar
    57    67    68   ar
    58    43    44   ar
    59    43    51    1
    60    58    61   ar
    61    72    71   ar
    62    44    47    1
    63    16    20   ar
    64    16     4    1
    65    29    34   ar
    66    29    36    1
    67    59    68    1
    68    59    62   ar
    69    68    69   ar
    70    71    80    1
    71    71    70   ar
    72    80    81   ar
    73    14    13    1
    74    36    37    1
    75    69    70   ar
    76    69    73    1
    77    61    62   ar
    78    61    63    1
    79    15    13    1
    80    40    37    1
    81    70    77    1
    82    82    81   ar
    83    82    89    1
    84     4     2   ar
    85     4     7   ar
    86    62    65    1
    87     5     2    1
    88    79    77    1
    89    13     7    1
    90     2     1   ar
    91    78    77    1
    92     7     6   ar
    93    81    85    1
    94    89    91    1
    95    89    90    1
    96    37    38    1
    97    37    39    1
    98    12    10    1
    99    65    66    1
   100     1    10    1
   101     1     3   ar
   102     6     3   ar
   103     6     8    1
   104    10    11    1
   105     3     9    1
   106    85    88    1
   107    85    87    1
   108    85    86    1
