@<TRIPOS>MOLECULE
mol_data/opt/m06hf/geoms/mol2/4hh12fh13dd-6if.out
 49 52 0 0 0
SMALL
GASTEIGER

@<TRIPOS>ATOM
      1 C          -0.0546    0.1414   -0.0285 C.ar    1  LIG1        0.0253
      2 C           1.3369    0.1319   -0.0338 C.ar    1  LIG1       -0.0285
      3 C          -0.7066    1.3372   -0.3460 C.ar    1  LIG1       -0.0393
      4 C           2.0729    1.2754   -0.3617 C.ar    1  LIG1        0.0433
      5 H           1.8734   -0.7716    0.2312 H       1  LIG1        0.0644
      6 C           0.0201    2.4671   -0.6865 C.ar    1  LIG1       -0.0386
      7 C           1.4166    2.4679   -0.7156 C.ar    1  LIG1        0.0356
      8 H          -0.5074    3.3789   -0.9416 H       1  LIG1        0.0637
      9 H          -1.7889    1.3808   -0.3284 H       1  LIG1        0.0636
     10 N          -0.7813   -0.9968    0.3504 N.pl3   1  LIG1       -0.3579
     11 H          -1.7117   -1.0417   -0.0424 H       1  LIG1        0.1423
     12 H          -0.2836   -1.8661    0.2153 H       1  LIG1        0.1423
     13 N           2.1100    3.6542   -1.0648 N.pl3   1  LIG1       -0.3574
     14 H           2.9426    3.4685   -1.6113 H       1  LIG1        0.1423
     15 H           1.5060    4.2976   -1.5618 H       1  LIG1        0.1423
     16 C           3.5324    1.1720   -0.2984 C.ar    1  LIG1        0.1807
     17 C           4.4081    0.1314   -0.1874 C.ar    1  LIG1        0.1846
     18 C           5.7326    0.6750   -0.0753 C.ar    1  LIG1        0.1153
     19 C           5.5732    2.0280   -0.1341 C.ar    1  LIG1        0.1773
     20 O           4.2656    2.3223   -0.2711 O.2     1  LIG1       -0.4476
     21 O           4.1669   -1.1939   -0.1597 O.3     1  LIG1       -0.5020
     22 H           5.0367   -1.6183   -0.0641 H       1  LIG1        0.2924
     23 N           6.8411   -0.1972    0.0782 N.pl3   1  LIG1       -0.3521
     24 H           7.5290   -0.0834   -0.6604 H       1  LIG1        0.1425
     25 H           7.3143   -0.0612    0.9667 H       1  LIG1        0.1425
     26 C           6.4030    3.2167   -0.0492 C.ar    1  LIG1        0.1034
     27 C           7.7632    3.4446    0.0274 C.ar    1  LIG1        0.0980
     28 C           7.9417    4.8600    0.1094 C.ar    1  LIG1        0.0951
     29 C           6.6872    5.4446    0.0753 C.ar    1  LIG1        0.0677
     30 N           5.7875    4.4282   -0.0208 N.ar    1  LIG1       -0.3496
     31 H           4.7786    4.5295   -0.0680 H       1  LIG1        0.1661
     32 N           9.5759    1.6111    0.0089 N.1     1  LIG1       -0.1908
     33 C           8.7798    2.4387    0.0201 C.1     1  LIG1        0.1027
     34 N          10.1933    6.1030    0.3119 N.1     1  LIG1       -0.1908
     35 C           9.1928    5.5471    0.2272 C.1     1  LIG1        0.1026
     36 C           5.1467    7.3184    0.7792 C.ar    1  LIG1        0.0476
     37 C           6.2948    6.8679    0.0965 C.ar    1  LIG1        0.0241
     38 C           7.0931    7.7871   -0.5796 C.ar    1  LIG1       -0.0078
     39 C           6.7300    9.1274   -0.5632 C.ar    1  LIG1        0.1355
     40 C           5.5721    9.4860    0.1225 C.ar    1  LIG1        0.0693
     41 N           4.8172    8.6074    0.7704 N.ar    1  LIG1       -0.2559
     42 H           7.9835    7.4854   -1.1164 H       1  LIG1        0.0662
     43 H           5.2489   10.5222    0.1532 H       1  LIG1        0.0867
     44 C           4.2257    6.4130    1.5787 C.3     1  LIG1       -0.0217
     45 H           4.7860    5.6475    2.1159 H       1  LIG1        0.0293
     46 H           3.4793    5.9310    0.9393 H       1  LIG1        0.0293
     47 H           3.6962    7.0429    2.2895 H       1  LIG1        0.0293
     48 O           7.5065   10.0175   -1.2273 O.3     1  LIG1       -0.5052
     49 H           7.1862   10.9173   -1.1021 H       1  LIG1        0.2922
@<TRIPOS>BOND
     1    14    13    1
     2    15    13    1
     3    48    49    1
     4    48    39    1
     5    42    38    1
     6    13     7    1
     7     8     6    1
     8     7     6   ar
     9     7     4   ar
    10     6     3   ar
    11    24    23    1
    12    38    39   ar
    13    38    37   ar
    14    39    40   ar
    15     4    16    1
    16     4     2   ar
    17     3     9    1
    18     3     1   ar
    19    16    20   ar
    20    16    17   ar
    21    20    19   ar
    22    17    21    1
    23    17    18   ar
    24    21    22    1
    25    19    18   ar
    26    19    26    1
    27    18    23    1
    28    31    30    1
    29    26    30   ar
    30    26    27   ar
    31    11    10    1
    32     2     1   ar
    33     2     5    1
    34     1    10    1
    35    30    29   ar
    36    32    33    3
    37    33    27    1
    38    27    28   ar
    39    29    37    1
    40    29    28   ar
    41    23    25    1
    42    37    36   ar
    43    28    35    1
    44    40    43    1
    45    40    41   ar
    46    12    10    1
    47    35    34    3
    48    41    36   ar
    49    36    44    1
    50    46    44    1
    51    44    45    1
    52    44    47    1
