@<TRIPOS>MOLECULE
mol_data/opt/m06hf/geoms/mol2/4hh4hh4hh4hh.out
 58 61 0 0 0
SMALL
GASTEIGER

@<TRIPOS>ATOM
      1 C          -0.2015    1.1739    1.1692 C.ar    1  LIG1        0.0252
      2 C           1.1914    1.1447    1.1220 C.ar    1  LIG1       -0.0315
      3 C          -0.8970    1.2877   -0.0382 C.ar    1  LIG1       -0.0393
      4 C           1.8859    1.2229   -0.0881 C.ar    1  LIG1        0.0063
      5 H           1.7644    1.0590    2.0390 H       1  LIG1        0.0643
      6 C          -0.2174    1.3598   -1.2449 C.ar    1  LIG1       -0.0387
      7 C           1.1795    1.3272   -1.2966 C.ar    1  LIG1        0.0325
      8 H          -0.7768    1.4522   -2.1684 H       1  LIG1        0.0637
      9 H          -1.9798    1.3293   -0.0289 H       1  LIG1        0.0636
     10 N          -0.8896    1.1543    2.3960 N.pl3   1  LIG1       -0.3579
     11 H          -1.7997    0.7165    2.3467 H       1  LIG1        0.1423
     12 H          -0.3472    0.7745    3.1602 H       1  LIG1        0.1423
     13 N           1.8494    1.4404   -2.5274 N.pl3   1  LIG1       -0.3575
     14 H           2.7891    1.0633   -2.5059 H       1  LIG1        0.1423
     15 H           1.3188    1.0810   -3.3095 H       1  LIG1        0.1423
     16 C           4.0713    0.0945    0.4663 C.ar    1  LIG1        0.0331
     17 C           5.4666    0.1133    0.4404 C.ar    1  LIG1       -0.0309
     18 C           3.3821    1.1879   -0.0849 C.ar    1  LIG1        0.0063
     19 C           6.1850    1.1734   -0.1137 C.ar    1  LIG1        0.0063
     20 H           6.0211   -0.7187    0.8609 H       1  LIG1        0.0643
     21 C           4.1001    2.2477   -0.6388 C.ar    1  LIG1       -0.0309
     22 C           5.4949    2.2651   -0.6683 C.ar    1  LIG1        0.0331
     23 H           3.5450    3.0795   -1.0595 H       1  LIG1        0.0643
     24 N           3.3844   -0.9695    1.0708 N.pl3   1  LIG1       -0.3575
     25 H           2.4343   -1.0786    0.7380 H       1  LIG1        0.1423
     26 H           3.8952   -1.8419    1.0621 H       1  LIG1        0.1423
     27 N           6.1798    3.3695   -1.2027 N.pl3   1  LIG1       -0.3575
     28 H           7.1132    3.1461   -1.5251 H       1  LIG1        0.1423
     29 H           5.6479    3.8749   -1.8986 H       1  LIG1        0.1423
     30 C           8.3703    0.0600   -0.7026 C.ar    1  LIG1        0.0331
     31 C           9.7651    0.0765   -0.6747 C.ar    1  LIG1       -0.0309
     32 C           7.6810    1.1349   -0.1153 C.ar    1  LIG1        0.0063
     33 C          10.4839    1.1196   -0.0910 C.ar    1  LIG1        0.0063
     34 H          10.3196   -0.7425   -1.1204 H       1  LIG1        0.0643
     35 C           8.4003    2.1783    0.4686 C.ar    1  LIG1       -0.0309
     36 C           9.7955    2.1964    0.4930 C.ar    1  LIG1        0.0331
     37 H           7.8463    2.9977    0.9141 H       1  LIG1        0.0643
     38 N           7.6846   -1.0282   -1.2683 N.pl3   1  LIG1       -0.3575
     39 H           6.7507   -0.7956   -1.5827 H       1  LIG1        0.1423
     40 H           8.2156   -1.5131   -1.9794 H       1  LIG1        0.1423
     41 N          10.4833    3.2423    1.1275 N.pl3   1  LIG1       -0.3575
     42 H          11.4330    3.3611    0.7966 H       1  LIG1        0.1423
     43 H           9.9726    4.1145    1.1450 H       1  LIG1        0.1423
     44 C          12.6848    1.0160   -1.3095 C.ar    1  LIG1        0.0325
     45 C          14.0818    0.9820   -1.2607 C.ar    1  LIG1       -0.0387
     46 C          11.9802    1.0848   -0.0974 C.ar    1  LIG1        0.0063
     47 C          14.7631    1.0186   -0.0534 C.ar    1  LIG1       -0.0393
     48 H          14.6398    0.9167   -2.1873 H       1  LIG1        0.0637
     49 C          12.6764    1.1275    1.1135 C.ar    1  LIG1       -0.0315
     50 C          14.0694    1.0970    1.1578 C.ar    1  LIG1        0.0252
     51 H          12.1048    1.1863    2.0335 H       1  LIG1        0.0643
     52 H          15.8460    0.9769   -0.0469 H       1  LIG1        0.0636
     53 N          12.0131    0.9389   -2.5421 N.pl3   1  LIG1       -0.3575
     54 H          11.0734    1.3151   -2.5082 H       1  LIG1        0.1423
     55 H          12.5426    1.3210   -3.3140 H       1  LIG1        0.1423
     56 N          14.7592    1.0807    2.3837 N.pl3   1  LIG1       -0.3579
     57 H          15.6693    1.5198    2.3460 H       1  LIG1        0.1423
     58 H          14.2179    1.4379    3.1594 H       1  LIG1        0.1423
@<TRIPOS>BOND
     1    55    53    1
     2    15    13    1
     3    53    54    1
     4    53    44    1
     5    13    14    1
     6    13     7    1
     7    48    45    1
     8     8     6    1
     9    40    38    1
    10    29    27    1
    11    39    38    1
    12    28    27    1
    13    44    45   ar
    14    44    46   ar
    15     7     6   ar
    16     7     4   ar
    17    38    30    1
    18    45    47   ar
    19     6     3   ar
    20    27    22    1
    21    34    31    1
    22    23    21    1
    23    30    31   ar
    24    30    32   ar
    25    31    33   ar
    26    22    21   ar
    27    22    19   ar
    28    21    18   ar
    29    32    19    1
    30    32    35   ar
    31    19    17   ar
    32    46    33    1
    33    46    49   ar
    34    33    36   ar
    35     4    18    1
    36     4     2   ar
    37    18    16   ar
    38    47    52    1
    39    47    50   ar
    40     3     9    1
    41     3     1   ar
    42    17    16   ar
    43    17    20    1
    44    16    24    1
    45    35    36   ar
    46    35    37    1
    47    36    41    1
    48    25    24    1
    49    42    41    1
    50    26    24    1
    51    49    50   ar
    52    49    51    1
    53     2     1   ar
    54     2     5    1
    55    41    43    1
    56    50    56    1
    57     1    10    1
    58    57    56    1
    59    11    10    1
    60    56    58    1
    61    10    12    1
