@<TRIPOS>MOLECULE
mol_data/opt/m06hf/geoms/mol2/4hh4hh.out
 30 31 0 0 0
SMALL
GASTEIGER

@<TRIPOS>ATOM
      1 C          -0.0166    0.1777    0.5719 C.ar    1  LIG1        0.0252
      2 C           1.3773    0.1868    0.5514 C.ar    1  LIG1       -0.0315
      3 C          -0.6883    1.2390   -0.0417 C.ar    1  LIG1       -0.0393
      4 C           2.0950    1.2166   -0.0619 C.ar    1  LIG1        0.0063
      5 H           1.9333   -0.6186    1.0186 H       1  LIG1        0.0643
      6 C           0.0148    2.2642   -0.6563 C.ar    1  LIG1       -0.0387
      7 C           1.4130    2.2749   -0.6818 C.ar    1  LIG1        0.0325
      8 H          -0.5269    3.0803   -1.1196 H       1  LIG1        0.0637
      9 H          -1.7716    1.2652   -0.0278 H       1  LIG1        0.0636
     10 N          -0.7291   -0.8344    1.2415 N.pl3   1  LIG1       -0.3579
     11 H          -1.6370   -1.0259    0.8395 H       1  LIG1        0.1423
     12 H          -0.2015   -1.6882    1.3643 H       1  LIG1        0.1423
     13 N           2.1074    3.3431   -1.2737 N.pl3   1  LIG1       -0.3575
     14 H           3.0606    3.1108   -1.5246 H       1  LIG1        0.1423
     15 H           1.6102    3.7742   -2.0413 H       1  LIG1        0.1423
     16 C           4.2716    0.1202   -0.6887 C.ar    1  LIG1        0.0325
     17 C           5.6699    0.1307   -0.6665 C.ar    1  LIG1       -0.0387
     18 C           3.5912    1.1765   -0.0637 C.ar    1  LIG1        0.0063
     19 C           6.3746    1.1538   -0.0502 C.ar    1  LIG1       -0.0393
     20 H           6.2105   -0.6839   -1.1337 H       1  LIG1        0.0637
     21 C           4.3104    2.2041    0.5514 C.ar    1  LIG1       -0.0315
     22 C           5.7043    2.2132    0.5686 C.ar    1  LIG1        0.0252
     23 H           3.7555    3.0080    1.0225 H       1  LIG1        0.0643
     24 H           7.4579    1.1276   -0.0389 H       1  LIG1        0.0636
     25 N           3.5758   -0.9461   -1.2824 N.pl3   1  LIG1       -0.3575
     26 H           2.6220   -0.7129   -1.5301 H       1  LIG1        0.1423
     27 H           4.0710   -1.3745   -2.0528 H       1  LIG1        0.1423
     28 N           6.4185    3.2230    1.2398 N.pl3   1  LIG1       -0.3579
     29 H           7.3254    3.4157    0.8363 H       1  LIG1        0.1423
     30 H           5.8912    4.0764    1.3666 H       1  LIG1        0.1423
@<TRIPOS>BOND
     1    27    25    1
     2    15    13    1
     3    26    25    1
     4    14    13    1
     5    25    16    1
     6    13     7    1
     7    20    17    1
     8     8     6    1
     9    16    17   ar
    10    16    18   ar
    11     7     6   ar
    12     7     4   ar
    13    17    19   ar
    14     6     3   ar
    15    18     4    1
    16    18    21   ar
    17     4     2   ar
    18    19    24    1
    19    19    22   ar
    20     3     9    1
    21     3     1   ar
    22    21    22   ar
    23    21    23    1
    24     2     1   ar
    25     2     5    1
    26    22    28    1
    27     1    10    1
    28    29    28    1
    29    11    10    1
    30    28    30    1
    31    10    12    1
