@<TRIPOS>MOLECULE
mol_data/opt/m06hf/geoms/mol2/4hh4hh4hh.out
 44 46 0 0 0
SMALL
GASTEIGER

@<TRIPOS>ATOM
      1 C          -0.1075    0.5773    0.9896 C.ar    1  LIG1        0.0252
      2 C           1.2857    0.5759    0.9475 C.ar    1  LIG1       -0.0315
      3 C          -0.7938    1.2448   -0.0293 C.ar    1  LIG1       -0.0393
      4 C           1.9899    1.2147   -0.0762 C.ar    1  LIG1        0.0063
      5 H           1.8519    0.0699    1.7222 H       1  LIG1        0.0643
      6 C          -0.1043    1.8795   -1.0514 C.ar    1  LIG1       -0.0387
      7 C           1.2930    1.8762   -1.0995 C.ar    1  LIG1        0.0325
      8 H          -0.6563    2.3960   -1.8279 H       1  LIG1        0.0637
      9 H          -1.8770    1.2756   -0.0135 H       1  LIG1        0.0636
     10 N          -0.8036   -0.0198    2.0563 N.pl3   1  LIG1       -0.3579
     11 H          -1.7178   -0.3688    1.8017 H       1  LIG1        0.1423
     12 H          -0.2700   -0.7268    2.5443 H       1  LIG1        0.1423
     13 N           1.9712    2.5575   -2.1259 N.pl3   1  LIG1       -0.3575
     14 H           2.9182    2.2258   -2.2645 H       1  LIG1        0.1423
     15 H           1.4555    2.5917   -2.9951 H       1  LIG1        0.1423
     16 C           4.1709   -0.0486   -0.0993 C.ar    1  LIG1        0.0331
     17 C           5.5663   -0.0249   -0.1014 C.ar    1  LIG1       -0.0309
     18 C           3.4862    1.1785   -0.0773 C.ar    1  LIG1        0.0063
     19 C           6.2885    1.1685   -0.0885 C.ar    1  LIG1        0.0063
     20 H           6.1183   -0.9585   -0.1151 H       1  LIG1        0.0643
     21 C           4.2082    2.3721   -0.0648 C.ar    1  LIG1       -0.0309
     22 C           5.6037    2.3958   -0.0711 C.ar    1  LIG1        0.0331
     23 H           3.6561    3.3057   -0.0494 H       1  LIG1        0.0643
     24 N           3.4790   -1.2703   -0.0747 N.pl3   1  LIG1       -0.3575
     25 H           2.5357   -1.2076   -0.4379 H       1  LIG1        0.1423
     26 H           3.9949   -2.0362   -0.4860 H       1  LIG1        0.1423
     27 N           6.2968    3.6153   -0.0141 N.pl3   1  LIG1       -0.3575
     28 H           7.2370    3.5623   -0.3864 H       1  LIG1        0.1423
     29 H           5.7782    4.3960   -0.3937 H       1  LIG1        0.1423
     30 C           8.4769    0.4748   -1.1248 C.ar    1  LIG1        0.0325
     31 C           9.8740    0.4583   -1.0755 C.ar    1  LIG1       -0.0387
     32 C           7.7845    1.1289   -0.0936 C.ar    1  LIG1        0.0063
     33 C          10.5689    1.0752   -0.0459 C.ar    1  LIG1       -0.0393
     34 H          10.4226   -0.0534   -1.8574 H       1  LIG1        0.0637
     35 C           8.4944    1.7501    0.9373 C.ar    1  LIG1       -0.0315
     36 C           9.8877    1.7377    0.9792 C.ar    1  LIG1        0.0252
     37 H           7.9322    2.2493    1.7191 H       1  LIG1        0.0643
     38 H          11.6517    1.0351   -0.0304 H       1  LIG1        0.0636
     39 N           7.7945   -0.1868   -2.1609 N.pl3   1  LIG1       -0.3575
     40 H           6.8550    0.1628   -2.3060 H       1  LIG1        0.1423
     41 H           8.3173   -0.2266   -3.0255 H       1  LIG1        0.1423
     42 N          10.5872    2.3179    2.0528 N.pl3   1  LIG1       -0.3579
     43 H          11.5081    2.6539    1.8048 H       1  LIG1        0.1423
     44 H          10.0623    3.0314    2.5405 H       1  LIG1        0.1423
@<TRIPOS>BOND
     1    41    39    1
     2    15    13    1
     3    40    39    1
     4    14    13    1
     5    39    30    1
     6    13     7    1
     7    34    31    1
     8     8     6    1
     9    30    31   ar
    10    30    32   ar
    11     7     6   ar
    12     7     4   ar
    13    31    33   ar
    14     6     3   ar
    15    26    24    1
    16    25    24    1
    17    29    27    1
    18    28    27    1
    19    20    17    1
    20    17    16   ar
    21    17    19   ar
    22    16    18   ar
    23    16    24    1
    24    32    19    1
    25    32    35   ar
    26    19    22   ar
    27    18     4    1
    28    18    21   ar
    29     4     2   ar
    30    22    21   ar
    31    22    27    1
    32    21    23    1
    33    33    38    1
    34    33    36   ar
    35     3     9    1
    36     3     1   ar
    37    35    36   ar
    38    35    37    1
    39     2     1   ar
    40     2     5    1
    41    36    42    1
    42     1    10    1
    43    11    10    1
    44    43    42    1
    45    42    44    1
    46    10    12    1
