@<TRIPOS>MOLECULE
mol_data/opt/m06hf/geoms/mol2/4hh6hl12fa6ia.out
 51 54 0 0 0
SMALL
GASTEIGER

@<TRIPOS>ATOM
      1 C          -0.1675    0.1896    0.5722 C.ar    1  LIG1        0.0252
      2 C           1.2229    0.2665    0.4953 C.ar    1  LIG1       -0.0315
      3 C          -0.9166    1.2090   -0.0217 C.ar    1  LIG1       -0.0393
      4 C           1.8668    1.3228   -0.1514 C.ar    1  LIG1        0.0079
      5 H           1.8314   -0.4928    0.9733 H       1  LIG1        0.0643
      6 C          -0.2880    2.2544   -0.6821 C.ar    1  LIG1       -0.0387
      7 C           1.1030    2.3256   -0.7642 C.ar    1  LIG1        0.0326
      8 H          -0.8873    3.0295   -1.1453 H       1  LIG1        0.0637
      9 H          -1.9981    1.1848    0.0397 H       1  LIG1        0.0636
     10 N          -0.7989   -0.8432    1.2832 N.pl3   1  LIG1       -0.3579
     11 H          -1.7184   -1.0798    0.9364 H       1  LIG1        0.1423
     12 H          -0.2294   -1.6693    1.4040 H       1  LIG1        0.1423
     13 N           1.7402    3.4152   -1.4020 N.pl3   1  LIG1       -0.3575
     14 H           2.5806    3.1379   -1.9008 H       1  LIG1        0.1423
     15 H           1.1214    3.9350   -2.0116 H       1  LIG1        0.1423
     16 C           4.1479    2.3865    0.3105 C.ar    1  LIG1        0.1250
     17 C           3.3587    1.3245   -0.2073 C.ar    1  LIG1        0.0270
     18 C           4.0347    0.2288   -0.7250 C.ar    1  LIG1       -0.0067
     19 C           5.4269    0.1702   -0.7050 C.ar    1  LIG1        0.1498
     20 C           6.1076    1.2491   -0.1430 C.ar    1  LIG1        0.1531
     21 N           5.4752    2.3259    0.3276 N.ar    1  LIG1       -0.2249
     22 H           3.4711   -0.5818   -1.1723 H       1  LIG1        0.0662
     23 N           3.5718    3.5031    0.8713 N.pl3   1  LIG1       -0.3426
     24 H           4.2552    4.2146    1.0899 H       1  LIG1        0.1437
     25 H           2.7322    3.8402    0.4091 H       1  LIG1        0.1437
     26 O           6.1193   -0.8594   -1.2769 O.3     1  LIG1       -0.4928
     27 C           5.9452   -2.1239   -0.6454 C.3     1  LIG1        0.0789
     28 H           6.6666   -2.7928   -1.1072 H       1  LIG1        0.0660
     29 H           6.1503   -2.0389    0.4216 H       1  LIG1        0.0660
     30 H           4.9327   -2.5006   -0.8105 H       1  LIG1        0.0660
     31 C           7.5775    1.2958   -0.0833 C.ar    1  LIG1        0.1986
     32 C           8.5723    0.3796    0.1028 C.ar    1  LIG1        0.1649
     33 C           9.8074    1.1064    0.1387 C.ar    1  LIG1        0.0265
     34 C           9.4652    2.4164   -0.0267 C.ar    1  LIG1        0.1411
     35 O           8.1372    2.5277   -0.1636 O.2     1  LIG1       -0.4493
     36 O           8.4094   -0.9593    0.2733 O.3     1  LIG1       -0.5031
     37 H           9.1957   -1.3241    0.6914 H       1  LIG1        0.2923
     38 H          10.7975    0.7115    0.2998 H       1  LIG1        0.0692
     39 C           9.8043    4.8687    0.4324 C.ar    1  LIG1        0.0488
     40 C          10.2735    3.6450   -0.0866 C.ar    1  LIG1        0.0384
     41 C          11.5437    3.6005   -0.6562 C.ar    1  LIG1       -0.0479
     42 C          12.3146    4.7547   -0.6933 C.ar    1  LIG1       -0.0429
     43 C          11.7655    5.9167   -0.1649 C.ar    1  LIG1        0.0279
     44 N          10.5514    5.9708    0.3802 N.ar    1  LIG1       -0.2595
     45 H          11.9075    2.6735   -1.0817 H       1  LIG1        0.0626
     46 H          12.3223    6.8462   -0.1769 H       1  LIG1        0.0829
     47 C           8.4460    5.0124    1.0911 C.3     1  LIG1       -0.0217
     48 H           8.2977    4.2346    1.8417 H       1  LIG1        0.0293
     49 H           7.6481    4.9092    0.3555 H       1  LIG1        0.0293
     50 H           8.4110    5.9963    1.5521 H       1  LIG1        0.0293
     51 H          13.3032    4.7596   -1.1299 H       1  LIG1        0.0633
@<TRIPOS>BOND
     1    15    13    1
     2    14    13    1
     3    13     7    1
     4    26    19    1
     5    26    27    1
     6    22    18    1
     7     8     6    1
     8    51    42    1
     9    28    27    1
    10    45    41    1
    11    30    27    1
    12     7     6   ar
    13     7     4   ar
    14    18    19   ar
    15    18    17   ar
    16    19    20   ar
    17    42    41   ar
    18    42    43   ar
    19     6     3   ar
    20    41    40   ar
    21    27    29    1
    22    17     4    1
    23    17    16   ar
    24    46    43    1
    25    43    44   ar
    26    35    31   ar
    27    35    34   ar
    28     4     2   ar
    29    20    31    1
    30    20    21   ar
    31    40    34    1
    32    40    39   ar
    33    31    32   ar
    34    34    33   ar
    35     3     9    1
    36     3     1   ar
    37    32    33   ar
    38    32    36    1
    39    33    38    1
    40    36    37    1
    41    16    21   ar
    42    16    23    1
    43    49    47    1
    44    44    39   ar
    45    25    23    1
    46    39    47    1
    47     2     1   ar
    48     2     5    1
    49     1    10    1
    50    23    24    1
    51    11    10    1
    52    47    50    1
    53    47    48    1
    54    10    12    1
