@<TRIPOS>MOLECULE
mol_data/opt/m06hf/geoms/mol2/4hh6ee-4he6ld.out
 57 60 0 0 0
SMALL
GASTEIGER

@<TRIPOS>ATOM
      1 C          -0.1530    0.7644    0.9793 C.ar    1  LIG1        0.0252
      2 C           1.2380    0.7884    0.9152 C.ar    1  LIG1       -0.0315
      3 C          -0.8645    1.2577   -0.1187 C.ar    1  LIG1       -0.0393
      4 C           1.9092    1.2822   -0.2050 C.ar    1  LIG1        0.0072
      5 H           1.8228    0.4350    1.7571 H       1  LIG1        0.0643
      6 C          -0.2044    1.7438   -1.2358 C.ar    1  LIG1       -0.0387
      7 C           1.1927    1.7624   -1.3102 C.ar    1  LIG1        0.0326
      8 H          -0.7785    2.1233   -2.0726 H       1  LIG1        0.0637
      9 H          -1.9479    1.2673   -0.0920 H       1  LIG1        0.0636
     10 N          -0.8221    0.3199    2.1336 N.pl3   1  LIG1       -0.3579
     11 H          -1.7475   -0.0447    1.9519 H       1  LIG1        0.1423
     12 H          -0.2841   -0.3277    2.6938 H       1  LIG1        0.1423
     13 N           1.8310    2.2760   -2.4433 N.pl3   1  LIG1       -0.3575
     14 H           2.7982    2.0031   -2.5501 H       1  LIG1        0.1423
     15 H           1.3089    2.1667   -3.3010 H       1  LIG1        0.1423
     16 C           4.1919    2.4069   -0.2242 C.ar    1  LIG1        0.1216
     17 C           3.4014    1.2419   -0.2137 C.ar    1  LIG1        0.0190
     18 C           4.0768    0.0284   -0.1551 C.ar    1  LIG1       -0.0338
     19 C           5.4728   -0.0028   -0.1298 C.ar    1  LIG1        0.0513
     20 C           6.1672    1.2208   -0.2023 C.ar    1  LIG1        0.0895
     21 N           5.5253    2.3853   -0.2299 N.ar    1  LIG1       -0.2365
     22 H           3.5193   -0.8988   -0.1130 H       1  LIG1        0.0637
     23 C           3.5627    3.7105   -0.2102 C.1     1  LIG1       -0.0492
     24 C           3.0267    4.7836   -0.1925 C.1     1  LIG1       -0.1124
     25 H           2.5465    5.7342   -0.1821 H       1  LIG1        0.1232
     26 C           6.1597   -1.2606    0.0158 C.1     1  LIG1       -0.0675
     27 C           6.7077   -2.3208    0.1534 C.1     1  LIG1       -0.1138
     28 H           7.2097   -3.2532    0.2727 H       1  LIG1        0.1232
     29 C           8.4512    0.6555   -1.1590 C.ar    1  LIG1        0.0345
     30 C           9.8476    0.7833   -1.0691 C.ar    1  LIG1       -0.0314
     31 C           7.6600    1.2896   -0.1840 C.ar    1  LIG1        0.0234
     32 C          10.4437    1.5312   -0.0675 C.ar    1  LIG1        0.0044
     33 H          10.4711    0.3041   -1.8146 H       1  LIG1        0.0643
     34 C           8.2648    2.0600    0.8045 C.ar    1  LIG1       -0.0348
     35 C           9.6485    2.1868    0.8901 C.ar    1  LIG1        0.0333
     36 H           7.6373    2.5675    1.5253 H       1  LIG1        0.0637
     37 N           7.9014   -0.0819   -2.1842 N.pl3   1  LIG1       -0.3574
     38 H           6.9173    0.0379   -2.3706 H       1  LIG1        0.1423
     39 H           8.4713   -0.2153   -3.0046 H       1  LIG1        0.1423
     40 C          10.2413    2.9476    1.9626 C.1     1  LIG1       -0.0690
     41 C          10.7237    3.5722    2.8702 C.1     1  LIG1       -0.1139
     42 H          11.1442    4.1202    3.6811 H       1  LIG1        0.1232
     43 C          12.6076    2.8454   -0.0519 C.ar    1  LIG1        0.2225
     44 C          11.9298    1.6011    0.0068 C.ar    1  LIG1        0.0461
     45 C          12.7059    0.4720    0.1463 C.ar    1  LIG1       -0.0300
     46 C          14.1015    0.6027    0.2472 C.ar    1  LIG1        0.0706
     47 C          14.6540    1.8745    0.2200 C.ar    1  LIG1        0.0488
     48 N          13.9161    2.9739    0.0695 N.ar    1  LIG1       -0.2195
     49 H          12.2419   -0.5044    0.2017 H       1  LIG1        0.0639
     50 H          15.7235    2.0121    0.3195 H       1  LIG1        0.0844
     51 O          11.8639    3.9263   -0.2546 O.3     1  LIG1       -0.4792
     52 C          12.4966    5.1965   -0.1169 C.3     1  LIG1        0.0804
     53 H          11.7093    5.9236   -0.2894 H       1  LIG1        0.0660
     54 H          12.9039    5.2951    0.8889 H       1  LIG1        0.0660
     55 H          13.2971    5.2999   -0.8477 H       1  LIG1        0.0660
     56 N          15.6222   -1.4793    0.5098 N.1     1  LIG1       -0.1908
     57 C          14.9497   -0.5562    0.3964 C.1     1  LIG1        0.1007
@<TRIPOS>BOND
     1    15    13    1
     2    39    37    1
     3    14    13    1
     4    13     7    1
     5    38    37    1
     6    37    29    1
     7     8     6    1
     8    33    30    1
     9     7     6   ar
    10     7     4   ar
    11     6     3   ar
    12    29    30   ar
    13    29    31   ar
    14    30    32   ar
    15    55    52    1
    16    53    52    1
    17    51    52    1
    18    51    43    1
    19    21    16   ar
    20    21    20   ar
    21    16    17   ar
    22    16    23    1
    23    17     4    1
    24    17    18   ar
    25    23    24    3
    26     4     2   ar
    27    20    31    1
    28    20    19   ar
    29    24    25    1
    30    31    34   ar
    31    18    19   ar
    32    18    22    1
    33    19    26    1
    34     3     9    1
    35     3     1   ar
    36    52    54    1
    37    32    44    1
    38    32    35   ar
    39    43    44   ar
    40    43    48   ar
    41    44    45   ar
    42    26    27    3
    43    48    47   ar
    44    45    49    1
    45    45    46   ar
    46    27    28    1
    47    47    46   ar
    48    47    50    1
    49    46    57    1
    50    57    56    3
    51    34    35   ar
    52    34    36    1
    53    35    40    1
    54     2     1   ar
    55     2     5    1
    56     1    10    1
    57    11    10    1
    58    40    41    3
    59    10    12    1
    60    41    42    1
