@<TRIPOS>MOLECULE
mol_data/opt/m06hf/geoms/mol2/4hi13hf-6da12li.out
 52 55 0 0 0
SMALL
GASTEIGER

@<TRIPOS>ATOM
      1 C           0.0732   -0.1795    1.0607 C.ar    1  LIG1        0.0252
      2 C           1.4165    0.0065    0.7288 C.ar    1  LIG1       -0.0316
      3 C          -0.8497    0.7853    0.6429 C.ar    1  LIG1       -0.0408
      4 C           1.8290    1.1214   -0.0025 C.ar    1  LIG1        0.0049
      5 H           2.1596   -0.7032    1.0735 H       1  LIG1        0.0643
      6 C          -0.4295    1.8877   -0.0880 C.ar    1  LIG1       -0.0565
      7 C           0.9076    2.0865   -0.4357 C.ar    1  LIG1       -0.0412
      8 H          -1.1662    2.6148   -0.4081 H       1  LIG1        0.0621
      9 H          -1.8964    0.6699    0.8975 H       1  LIG1        0.0636
     10 N          -0.3292   -1.2636    1.8426 N.pl3   1  LIG1       -0.3579
     11 H          -1.3010   -1.5213    1.7499 H       1  LIG1        0.1423
     12 H           0.2855   -2.0644    1.8198 H       1  LIG1        0.1423
     13 C           1.3129    3.2936   -1.2657 C.3     1  LIG1       -0.0391
     14 H           0.4521    3.6505   -1.8314 H       1  LIG1        0.0278
     15 H           2.1079    3.0321   -1.9653 H       1  LIG1        0.0278
     16 H           1.6669    4.1144   -0.6373 H       1  LIG1        0.0278
     17 C           3.2684    1.2387   -0.3306 C.ar    1  LIG1        0.0718
     18 C           4.1176    0.3287   -0.9407 C.ar    1  LIG1        0.0929
     19 C           5.3798    0.9505   -1.0452 C.ar    1  LIG1        0.1635
     20 C           5.2968    2.2222   -0.5012 C.ar    1  LIG1        0.0936
     21 N           3.9880    2.3583   -0.0785 N.ar    1  LIG1       -0.3497
     22 H           3.6145    3.1607    0.4081 H       1  LIG1        0.1661
     23 N           3.9127   -0.9727   -1.4838 N.pl3   1  LIG1       -0.3535
     24 H           3.7263   -1.6646   -0.7658 H       1  LIG1        0.1425
     25 H           3.1455   -0.9855   -2.1487 H       1  LIG1        0.1425
     26 O           6.4461    0.3492   -1.6250 O.3     1  LIG1       -0.5031
     27 H           6.1092   -0.4996   -1.9579 H       1  LIG1        0.2923
     28 C           6.1620    4.5700   -0.0212 C.ar    1  LIG1        0.1500
     29 C           6.3482    3.2289   -0.3863 C.ar    1  LIG1        0.0378
     30 C           7.6826    2.8677   -0.6683 C.ar    1  LIG1       -0.0477
     31 C           8.6916    3.7994   -0.5654 C.ar    1  LIG1       -0.0318
     32 C           8.3716    5.1089   -0.1622 C.ar    1  LIG1        0.1111
     33 N           7.1278    5.4790    0.0974 N.ar    1  LIG1       -0.2325
     34 H           7.8940    1.8526   -0.9751 H       1  LIG1        0.0626
     35 N           3.7609    5.4475    0.4928 N.1     1  LIG1       -0.1893
     36 C           4.8260    5.0831    0.2656 C.1     1  LIG1        0.1198
     37 H           9.7199    3.5516   -0.7931 H       1  LIG1        0.0640
     38 C           9.4264    6.1193   -0.0163 C.ar    1  LIG1        0.1945
     39 C          10.7878    6.0256   -0.0262 C.ar    1  LIG1        0.1700
     40 C          11.3130    7.3515    0.1601 C.ar    1  LIG1        0.0297
     41 C          10.2095    8.1345    0.2623 C.ar    1  LIG1        0.0992
     42 O           9.0795    7.4090    0.1622 O.2     1  LIG1       -0.4573
     43 H          10.0843    9.1952    0.3953 H       1  LIG1        0.1033
     44 O          11.5294    4.8925   -0.1949 O.3     1  LIG1       -0.4910
     45 C          11.9209    4.2874    1.0392 C.3     1  LIG1        0.0790
     46 H          12.5275    3.4236    0.7772 H       1  LIG1        0.0660
     47 H          12.5063    4.9900    1.6351 H       1  LIG1        0.0660
     48 H          11.0366    3.9772    1.5988 H       1  LIG1        0.0660
     49 C          12.7686    7.7374    0.2028 C.3     1  LIG1       -0.0332
     50 H          12.8853    8.7974   -0.0189 H       1  LIG1        0.0280
     51 H          13.3200    7.1568   -0.5369 H       1  LIG1        0.0280
     52 H          13.1967    7.5399    1.1869 H       1  LIG1        0.0280
@<TRIPOS>BOND
     1    25    23    1
     2    15    13    1
     3    27    26    1
     4    14    13    1
     5    26    19    1
     6    23    18    1
     7    23    24    1
     8    13    16    1
     9    13     7    1
    10    19    18   ar
    11    19    20   ar
    12    34    30    1
    13    18    17   ar
    14    37    31    1
    15    30    31   ar
    16    30    29   ar
    17    31    32   ar
    18    51    49    1
    19    20    29    1
    20    20    21   ar
    21     7     6   ar
    22     7     4   ar
    23     8     6    1
    24    29    28   ar
    25    17    21   ar
    26    17     4    1
    27    44    39    1
    28    44    45    1
    29    32    38    1
    30    32    33   ar
    31     6     3   ar
    32    21    22    1
    33    39    38   ar
    34    39    40   ar
    35    28    33   ar
    36    28    36    1
    37    50    49    1
    38    38    42   ar
    39     4     2   ar
    40    40    49    1
    41    40    41   ar
    42    42    41   ar
    43    49    52    1
    44    41    43    1
    45    36    35    3
    46     3     9    1
    47     3     1   ar
    48     2     1   ar
    49     2     5    1
    50    46    45    1
    51    45    48    1
    52    45    47    1
    53     1    10    1
    54    11    10    1
    55    12    10    1
