@<TRIPOS>MOLECULE
mol_data/opt/m06hf/geoms/mol2/4hi12ah-4hi-6di.out
 54 57 0 0 0
SMALL
GASTEIGER

@<TRIPOS>ATOM
      1 C           0.0154   -0.2545   -0.5554 C.ar    1  LIG1        0.0252
      2 C           1.3964   -0.0733   -0.4671 C.ar    1  LIG1       -0.0301
      3 C          -0.8161    0.7923   -0.1482 C.ar    1  LIG1       -0.0408
      4 C           1.9376    1.1159    0.0223 C.ar    1  LIG1        0.0220
      5 H           2.0638   -0.8583   -0.8024 H       1  LIG1        0.0643
      6 C          -0.2668    1.9747    0.3306 C.ar    1  LIG1       -0.0564
      7 C           1.1099    2.1723    0.4331 C.ar    1  LIG1       -0.0397
      8 H          -0.9325    2.7696    0.6452 H       1  LIG1        0.0621
      9 H          -1.8918    0.6744   -0.2019 H       1  LIG1        0.0636
     10 N          -0.5220   -1.4666   -0.9998 N.pl3   1  LIG1       -0.3579
     11 H          -1.4425   -1.3926   -1.4102 H       1  LIG1        0.1423
     12 H           0.1009   -2.0188   -1.5725 H       1  LIG1        0.1423
     13 C           1.6559    3.4775    0.9855 C.3     1  LIG1       -0.0390
     14 H           0.8479    4.0422    1.4496 H       1  LIG1        0.0278
     15 H           2.0978    4.0789    0.1900 H       1  LIG1        0.0278
     16 H           2.4272    3.2858    1.7335 H       1  LIG1        0.0278
     17 C           3.4090    1.2018    0.1069 C.ar    1  LIG1        0.1378
     18 C           4.3480    0.2576    0.3889 C.ar    1  LIG1        0.0055
     19 C           5.6269    0.9108    0.2934 C.ar    1  LIG1        0.0716
     20 C           5.3568    2.2100   -0.0558 C.ar    1  LIG1        0.1580
     21 O           4.0046    2.3790   -0.1553 O.2     1  LIG1       -0.4529
     22 H           4.1639   -0.7635    0.6798 H       1  LIG1        0.0674
     23 N           6.8531    0.3435    0.6248 N.pl3   1  LIG1       -0.3550
     24 H           6.8724   -0.6615    0.5205 H       1  LIG1        0.1424
     25 H           7.6439    0.7976    0.1744 H       1  LIG1        0.1424
     26 C           7.4359    3.3553   -0.8441 C.ar    1  LIG1        0.0360
     27 C           8.2191    4.5065   -0.8916 C.ar    1  LIG1       -0.0323
     28 C           6.1914    3.4083   -0.1970 C.ar    1  LIG1        0.0400
     29 C           7.7620    5.7102   -0.3590 C.ar    1  LIG1       -0.0105
     30 H           9.1865    4.4769   -1.3804 H       1  LIG1        0.0642
     31 C           5.7428    4.6287    0.3135 C.ar    1  LIG1       -0.0458
     32 C           6.4991    5.7947    0.2448 C.ar    1  LIG1       -0.0419
     33 H           4.7738    4.6492    0.7979 H       1  LIG1        0.0628
     34 N           7.8835    2.1472   -1.4163 N.pl3   1  LIG1       -0.3574
     35 H           7.1148    1.6327   -1.8408 H       1  LIG1        0.1423
     36 H           8.6343    2.2820   -2.0826 H       1  LIG1        0.1423
     37 C           5.9610    7.0875    0.8319 C.3     1  LIG1       -0.0391
     38 H           5.2249    6.8626    1.6032 H       1  LIG1        0.0278
     39 H           5.4790    7.6844    0.0553 H       1  LIG1        0.0278
     40 H           6.7627    7.6777    1.2772 H       1  LIG1        0.0278
     41 C           8.3978    8.0115   -1.2273 C.ar    1  LIG1        0.1477
     42 C           8.6745    6.8909   -0.4356 C.ar    1  LIG1        0.0185
     43 C           9.8770    6.9131    0.2691 C.ar    1  LIG1       -0.0469
     44 C          10.7302    8.0099    0.1792 C.ar    1  LIG1       -0.0317
     45 C          10.3239    9.0675   -0.6389 C.ar    1  LIG1        0.0320
     46 N           9.1905    9.0728   -1.3300 N.ar    1  LIG1       -0.2438
     47 H          10.1333    6.0647    0.8944 H       1  LIG1        0.0628
     48 H          10.9470    9.9486   -0.7421 H       1  LIG1        0.0832
     49 N           6.2158    8.0675   -2.6530 N.1     1  LIG1       -0.1893
     50 C           7.1772    8.0458   -2.0281 C.1     1  LIG1        0.1197
     51 C          12.0426    8.0559    0.9342 C.3     1  LIG1       -0.0383
     52 H          12.5238    9.0246    0.8069 H       1  LIG1        0.0278
     53 H          12.7148    7.2802    0.5646 H       1  LIG1        0.0278
     54 H          11.8709    7.8859    1.9976 H       1  LIG1        0.0278
@<TRIPOS>BOND
     1    49    50    3
     2    36    34    1
     3    50    41    1
     4    35    34    1
     5    12    10    1
     6    34    26    1
     7    11    10    1
     8    30    27    1
     9    46    41   ar
    10    46    45   ar
    11    41    42   ar
    12    10     1    1
    13    27    26   ar
    14    27    29   ar
    15    26    28   ar
    16     5     2    1
    17    48    45    1
    18    45    44   ar
    19     1     2   ar
    20     1     3   ar
    21     2     4   ar
    22    42    29    1
    23    42    43   ar
    24    29    32   ar
    25     9     3    1
    26    28    20    1
    27    28    31   ar
    28    21    20   ar
    29    21    17   ar
    30     3     6   ar
    31    20    19   ar
    32     4    17    1
    33     4     7   ar
    34    39    37    1
    35    17    18   ar
    36    25    23    1
    37    44    43   ar
    38    44    51    1
    39    15    13    1
    40    32    31   ar
    41    32    37    1
    42    43    47    1
    43    19    18   ar
    44    19    23    1
    45    31    33    1
    46     6     7   ar
    47     6     8    1
    48    18    22    1
    49     7    13    1
    50    24    23    1
    51    53    51    1
    52    52    51    1
    53    37    40    1
    54    37    38    1
    55    51    54    1
    56    13    14    1
    57    13    16    1
