@<TRIPOS>MOLECULE
mol_data/opt/m06hf/geoms/mol2/4hi6aa13df-6ii-13dd6ha12if-4ae-.out
 95 102 0 0 0
SMALL
GASTEIGER

@<TRIPOS>ATOM
      1 C           0.5139   -1.5481   -1.6293 C.ar    1  LIG1        0.0251
      2 C           1.7375   -1.1748   -1.0693 C.ar    1  LIG1       -0.0330
      3 C          -0.4574   -0.5582   -1.8138 C.ar    1  LIG1       -0.0408
      4 C           1.9926    0.1488   -0.7087 C.ar    1  LIG1       -0.0118
      5 H           2.5118   -1.9202   -0.9260 H       1  LIG1        0.0642
      6 C          -0.1980    0.7533   -1.4427 C.ar    1  LIG1       -0.0565
      7 C           1.0206    1.1435   -0.8846 C.ar    1  LIG1       -0.0426
      8 H          -0.9725    1.4986   -1.5820 H       1  LIG1        0.0621
      9 H          -1.4191   -0.8237   -2.2358 H       1  LIG1        0.0636
     10 N           0.2487   -2.8792   -1.9496 N.pl3   1  LIG1       -0.3579
     11 H          -0.4548   -3.0162   -2.6612 H       1  LIG1        0.1423
     12 H           1.0635   -3.4564   -2.1022 H       1  LIG1        0.1423
     13 C           1.2360    2.5894   -0.4674 C.3     1  LIG1       -0.0391
     14 H           0.2743    3.0510   -0.2435 H       1  LIG1        0.0278
     15 H           1.7106    3.1676   -1.2633 H       1  LIG1        0.0278
     16 H           1.8646    2.6498    0.4210 H       1  LIG1        0.0278
     17 C           4.1734    1.4075   -0.7287 C.ar    1  LIG1        0.0360
     18 C           3.3333    0.4627   -0.1297 C.ar    1  LIG1        0.0006
     19 C           3.8173   -0.1948    1.0007 C.ar    1  LIG1       -0.0505
     20 C           5.0854    0.1016    1.4872 C.ar    1  LIG1       -0.0336
     21 C           5.8328    1.0635    0.8102 C.ar    1  LIG1        0.0885
     22 N           5.3835    1.7025   -0.2744 N.ar    1  LIG1       -0.2529
     23 H           3.1965   -0.9290    1.4989 H       1  LIG1        0.0625
     24 H           3.8499    1.9288   -1.6220 H       1  LIG1        0.0836
     25 H           5.4801   -0.3924    2.3640 H       1  LIG1        0.0640
     26 C           7.1923    1.4629    1.2227 C.ar    1  LIG1        0.0866
     27 C           8.0505    1.0519    2.2380 C.ar    1  LIG1        0.1204
     28 C           9.2451    1.8050    2.0963 C.ar    1  LIG1        0.1601
     29 C           9.0871    2.6478    1.0148 C.ar    1  LIG1        0.0920
     30 N           7.8284    2.4178    0.5187 N.ar    1  LIG1       -0.3490
     31 H           7.3965    2.8233   -0.3027 H       1  LIG1        0.1661
     32 N           7.5591   -0.7234    4.0428 N.1     1  LIG1       -0.1907
     33 C           7.7913    0.0693    3.2442 C.1     1  LIG1        0.1050
     34 O          10.3206    1.6753    2.9117 O.3     1  LIG1       -0.5034
     35 H          10.8202    2.5008    2.9309 H       1  LIG1        0.2923
     36 C           9.7131    4.9401    0.1507 C.ar    1  LIG1        0.0482
     37 C          10.0560    3.6105    0.4653 C.ar    1  LIG1        0.0232
     38 C          11.3847    3.2246    0.3101 C.ar    1  LIG1       -0.0458
     39 C          12.3519    4.1101   -0.1699 C.ar    1  LIG1       -0.0224
     40 C          11.8854    5.3812   -0.5186 C.ar    1  LIG1        0.0916
     41 N          10.6190    5.7770   -0.3326 N.ar    1  LIG1       -0.2495
     42 H          11.6715    2.2115    0.5742 H       1  LIG1        0.0628
     43 C           8.3176    5.4938    0.3531 C.3     1  LIG1       -0.0217
     44 H           7.8607    5.0756    1.2501 H       1  LIG1        0.0293
     45 H           7.6841    5.2602   -0.5060 H       1  LIG1        0.0293
     46 H           8.3928    6.5757    0.4373 H       1  LIG1        0.0293
     47 C          13.8022    3.6761   -0.2409 C.3     1  LIG1       -0.0376
     48 H          14.4685    4.5290   -0.1115 H       1  LIG1        0.0278
     49 H          14.0226    3.2105   -1.2014 H       1  LIG1        0.0278
     50 H          13.9957    2.9558    0.5537 H       1  LIG1        0.0278
     51 C          12.7373    6.4679   -1.0595 C.ar    1  LIG1        0.0845
     52 C          13.8061    6.5353   -1.9387 C.ar    1  LIG1        0.0964
     53 C          14.1158    7.9172   -2.1193 C.ar    1  LIG1        0.0951
     54 C          13.2220    8.6476   -1.3511 C.ar    1  LIG1        0.0691
     55 N          12.4145    7.7451   -0.7379 N.ar    1  LIG1       -0.3508
     56 H          11.6184    7.9939   -0.1541 H       1  LIG1        0.1660
     57 N          14.8945    4.5969   -3.2486 N.1     1  LIG1       -0.1908
     58 C          14.4139    5.4559   -2.6574 C.1     1  LIG1        0.1026
     59 N          15.9703    8.9049   -3.6154 N.1     1  LIG1       -0.1908
     60 C          15.1428    8.4531   -2.9601 C.1     1  LIG1        0.1026
     61 C          11.8590   10.6780   -0.7680 C.ar    1  LIG1        0.1261
     62 C          13.0963   10.0966   -1.1231 C.ar    1  LIG1        0.0391
     63 C          14.1965   10.9448   -1.2072 C.ar    1  LIG1       -0.0472
     64 C          14.0567   12.2946   -0.9136 C.ar    1  LIG1       -0.0319
     65 C          12.8049   12.7496   -0.4984 C.ar    1  LIG1        0.1085
     66 N          11.7336   11.9538   -0.4482 N.ar    1  LIG1       -0.2287
     67 H          15.1616   10.5500   -1.4979 H       1  LIG1        0.0626
     68 N          10.6939    9.9004   -0.6854 N.pl3   1  LIG1       -0.3426
     69 H           9.9042   10.4949   -0.4583 H       1  LIG1        0.1437
     70 H          10.5140    9.3419   -1.5154 H       1  LIG1        0.1437
     71 H          14.8913   12.9719   -1.0079 H       1  LIG1        0.0640
     72 C          12.5969   14.1492   -0.0998 C.ar    1  LIG1        0.1604
     73 C          13.4530   15.1223    0.3367 C.ar    1  LIG1        0.0390
     74 C          12.6107   16.2532    0.5883 C.ar    1  LIG1        0.1662
     75 C          11.3305   15.8930    0.2829 C.ar    1  LIG1        0.1772
     76 O          11.3269   14.6057   -0.1206 O.2     1  LIG1       -0.4492
     77 C          14.9380   15.0968    0.5900 C.3     1  LIG1       -0.0325
     78 H          15.1812   15.9038    1.2801 H       1  LIG1        0.0280
     79 H          15.4958   15.2584   -0.3341 H       1  LIG1        0.0280
     80 H          15.2395   14.1453    1.0286 H       1  LIG1        0.0280
     81 O          13.0668   17.4453    1.0720 O.3     1  LIG1       -0.5030
     82 H          12.4745   17.7583    1.7668 H       1  LIG1        0.2923
     83 C          10.0291   18.0084    0.3546 C.ar    1  LIG1       -0.0509
     84 C           8.8149   18.6813    0.4531 C.ar    1  LIG1       -0.0599
     85 C          10.0539   16.6094    0.3610 C.ar    1  LIG1        0.0221
     86 C           7.6237   17.9713    0.5441 C.ar    1  LIG1       -0.0463
     87 H           8.7984   19.7628    0.4443 H       1  LIG1        0.0618
     88 C           8.8602   15.8903    0.4430 C.ar    1  LIG1       -0.0355
     89 C           7.6463   16.5720    0.5314 C.ar    1  LIG1        0.0254
     90 H           8.8784   14.8090    0.4370 H       1  LIG1        0.0637
     91 H           6.6745   18.4841    0.6169 H       1  LIG1        0.0630
     92 H          10.9539   18.5600    0.2389 H       1  LIG1        0.0625
     93 C           6.4088   15.8292    0.6162 C.1     1  LIG1       -0.0696
     94 C           5.3802   15.2122    0.6865 C.1     1  LIG1       -0.1139
     95 H           4.4699   14.6623    0.7488 H       1  LIG1        0.1232
@<TRIPOS>BOND
     1    59    60    3
     2    57    58    3
     3    60    53    1
     4    11    10    1
     5    58    52    1
     6     9     3    1
     7    53    52   ar
     8    53    54   ar
     9    12    10    1
    10    10     1    1
    11    52    51   ar
    12     3     1   ar
    13     3     6   ar
    14     1     2   ar
    15    24    17    1
    16     8     6    1
    17    70    68    1
    18    67    63    1
    19     6     7   ar
    20    54    62    1
    21    54    55   ar
    22    15    13    1
    23    63    62   ar
    24    63    64   ar
    25    49    47    1
    26    62    61   ar
    27     2     5    1
    28     2     4   ar
    29    51    55   ar
    30    51    40    1
    31    71    64    1
    32    64    65   ar
    33     7     4   ar
    34     7    13    1
    35    61    68    1
    36    61    66   ar
    37    55    56    1
    38    17    22   ar
    39    17    18   ar
    40     4    18    1
    41    68    69    1
    42    40    41   ar
    43    40    39   ar
    44    45    43    1
    45    65    66   ar
    46    65    72    1
    47    13    14    1
    48    13    16    1
    49    79    77    1
    50    41    36   ar
    51    31    30    1
    52    22    21   ar
    53    47    39    1
    54    47    48    1
    55    47    50    1
    56    39    38   ar
    57    18    19   ar
    58    76    72   ar
    59    76    75   ar
    60    72    73   ar
    61    36    43    1
    62    36    37   ar
    63    92    83    1
    64    75    85    1
    65    75    74   ar
    66    38    37   ar
    67    38    42    1
    68    73    74   ar
    69    73    77    1
    70    43    46    1
    71    43    44    1
    72    83    85   ar
    73    83    84   ar
    74    85    88   ar
    75    90    88    1
    76    88    89   ar
    77    87    84    1
    78    84    86   ar
    79    37    29    1
    80    30    29   ar
    81    30    26   ar
    82    89    86   ar
    83    89    93    1
    84    86    91    1
    85    74    81    1
    86    77    80    1
    87    77    78    1
    88    93    94    3
    89    94    95    1
    90    21    26    1
    91    21    20   ar
    92    19    20   ar
    93    19    23    1
    94    29    28   ar
    95    81    82    1
    96    26    27   ar
    97    20    25    1
    98    28    27   ar
    99    28    34    1
   100    27    33    1
   101    34    35    1
   102    33    32    3
