@<TRIPOS>MOLECULE
mol_data/opt/m06hf/geoms/mol2/4hl6id12fi-6da-.out
 52 55 0 0 0
SMALL
GASTEIGER

@<TRIPOS>ATOM
      1 C          -0.0094    0.3273    0.8880 C.ar    1  LIG1        0.0253
      2 C           1.3836    0.3525    0.7495 C.ar    1  LIG1       -0.0298
      3 C          -0.7472    1.3376    0.2740 C.ar    1  LIG1       -0.0376
      4 C           2.0192    1.3484    0.0181 C.ar    1  LIG1        0.0273
      5 H           1.9882   -0.4050    1.2354 H       1  LIG1        0.0643
      6 C          -0.1226    2.3377   -0.4685 C.ar    1  LIG1       -0.0176
      7 C           1.2618    2.3487   -0.6075 C.ar    1  LIG1        0.1279
      8 H          -0.7312    3.0981   -0.9373 H       1  LIG1        0.0655
      9 H          -1.8252    1.3505    0.3793 H       1  LIG1        0.0637
     10 N          -0.6326   -0.6499    1.6747 N.pl3   1  LIG1       -0.3579
     11 H          -1.5938   -0.8367    1.4241 H       1  LIG1        0.1423
     12 H          -0.1040   -1.5046    1.7780 H       1  LIG1        0.1423
     13 O           1.9558    3.2714   -1.3302 O.3     1  LIG1       -0.4945
     14 C           1.2303    4.3441   -1.8989 C.3     1  LIG1        0.0788
     15 H           1.9683    4.9761   -2.3853 H       1  LIG1        0.0660
     16 H           0.5133    3.9778   -2.6380 H       1  LIG1        0.0660
     17 H           0.7097    4.9113   -1.1225 H       1  LIG1        0.0660
     18 C           4.3134    2.3468    0.4579 C.ar    1  LIG1        0.0469
     19 C           3.5057    1.3370   -0.1160 C.ar    1  LIG1        0.0080
     20 C           4.1325    0.3092   -0.7963 C.ar    1  LIG1       -0.0326
     21 C           5.5275    0.3034   -0.8907 C.ar    1  LIG1        0.0814
     22 C           6.2523    1.3197   -0.2595 C.ar    1  LIG1        0.1272
     23 N           5.6373    2.3125    0.3820 N.ar    1  LIG1       -0.2468
     24 H           3.5511   -0.4691   -1.2739 H       1  LIG1        0.0638
     25 C           3.7144    3.5096    1.2134 C.3     1  LIG1       -0.0217
     26 H           3.0006    3.1473    1.9553 H       1  LIG1        0.0293
     27 H           3.1835    4.1520    0.5081 H       1  LIG1        0.0293
     28 H           4.5238    4.0577    1.6891 H       1  LIG1        0.0293
     29 N           6.7530   -1.4960   -2.2946 N.1     1  LIG1       -0.1908
     30 C           6.1993   -0.7027   -1.6729 C.1     1  LIG1        0.1014
     31 C           7.7212    1.3674   -0.2353 C.ar    1  LIG1        0.1964
     32 C           8.7214    0.4337   -0.1495 C.ar    1  LIG1        0.1678
     33 C           9.9574    1.1510   -0.0118 C.ar    1  LIG1        0.0376
     34 C           9.5979    2.4676   -0.0293 C.ar    1  LIG1        0.1450
     35 O           8.2686    2.5999   -0.1715 O.2     1  LIG1       -0.4491
     36 O           8.6553   -0.9172   -0.0618 O.3     1  LIG1       -0.5030
     37 H           8.2092   -1.3020   -0.8303 H       1  LIG1        0.2923
     38 C          11.2996    0.4971    0.1854 C.3     1  LIG1       -0.0326
     39 H          11.9334    1.1041    0.8322 H       1  LIG1        0.0280
     40 H          11.8044    0.3432   -0.7702 H       1  LIG1        0.0280
     41 H          11.1421   -0.4769    0.6467 H       1  LIG1        0.0280
     42 C           9.9004    4.8610    0.7056 C.ar    1  LIG1        0.1506
     43 C          10.3880    3.6993    0.0877 C.ar    1  LIG1        0.0535
     44 C          11.6892    3.7543   -0.4189 C.ar    1  LIG1       -0.0469
     45 C          12.4296    4.9175   -0.2801 C.ar    1  LIG1       -0.0428
     46 C          11.8386    6.0114    0.3504 C.ar    1  LIG1        0.0291
     47 N          10.6006    5.9848    0.8292 N.ar    1  LIG1       -0.2439
     48 H          12.0961    2.8939   -0.9333 H       1  LIG1        0.0626
     49 H          12.3777    6.9421    0.4732 H       1  LIG1        0.0830
     50 N           7.5288    4.9982    1.7796 N.1     1  LIG1       -0.1893
     51 C           8.5635    4.9133    1.2937 C.1     1  LIG1        0.1198
     52 H          13.4376    4.9872   -0.6639 H       1  LIG1        0.0633
@<TRIPOS>BOND
     1    16    14    1
     2    15    14    1
     3    29    30    3
     4    14    13    1
     5    14    17    1
     6    30    21    1
     7    13     7    1
     8    24    20    1
     9     8     6    1
    10    48    44    1
    11    21    20   ar
    12    21    22   ar
    13    37    36    1
    14    20    19   ar
    15    40    38    1
    16    52    45    1
    17     7     6   ar
    18     7     4   ar
    19     6     3   ar
    20    44    45   ar
    21    44    43   ar
    22    45    46   ar
    23    22    31    1
    24    22    23   ar
    25    31    35   ar
    26    31    32   ar
    27    35    34   ar
    28    32    36    1
    29    32    33   ar
    30    19     4    1
    31    19    18   ar
    32    34    33   ar
    33    34    43    1
    34    33    38    1
    35     4     2   ar
    36    43    42   ar
    37    38    41    1
    38    38    39    1
    39     3     9    1
    40     3     1   ar
    41    46    49    1
    42    46    47   ar
    43    23    18   ar
    44    18    25    1
    45    27    25    1
    46    42    47   ar
    47    42    51    1
    48     2     1   ar
    49     2     5    1
    50     1    10    1
    51    25    28    1
    52    25    26    1
    53    51    50    3
    54    11    10    1
    55    10    12    1
