@<TRIPOS>MOLECULE
mol_data/opt/m06hf/geoms/mol2/4ia.out
 15 15 0 0 0
SMALL
GASTEIGER

@<TRIPOS>ATOM
      1 C           0.1200    0.0944    0.0152 C.ar    1  LIG1       -0.0504
      2 C           1.5157    0.0961    0.0104 C.ar    1  LIG1       -0.0588
      3 C          -0.5482    1.3198    0.0107 C.ar    1  LIG1       -0.0588
      4 C           2.2286    1.2919   -0.0027 C.ar    1  LIG1       -0.0615
      5 H           2.0485   -0.8475    0.0187 H       1  LIG1        0.0620
      6 C           0.1590    2.5190   -0.0024 C.ar    1  LIG1       -0.0615
      7 C           1.5512    2.5082   -0.0093 C.ar    1  LIG1       -0.0617
      8 H          -0.3769    3.4591   -0.0036 H       1  LIG1        0.0618
      9 H           3.3106    1.2728   -0.0041 H       1  LIG1        0.0618
     10 H          -1.6316    1.3345    0.0192 H       1  LIG1        0.0620
     11 C          -0.6542   -1.2115   -0.0022 C.3     1  LIG1       -0.0397
     12 H          -0.0920   -1.9983    0.5004 H       1  LIG1        0.0278
     13 H          -0.8397   -1.5266   -1.0311 H       1  LIG1        0.0278
     14 H          -1.6151   -1.0954    0.4986 H       1  LIG1        0.0278
     15 H           2.1030    3.4389   -0.0166 H       1  LIG1        0.0618
@<TRIPOS>BOND
     1    13    11    1
     2    15     7    1
     3     7     4   ar
     4     7     6   ar
     5     9     4    1
     6     8     6    1
     7     4     2   ar
     8     6     3   ar
     9    11     1    1
    10    11    14    1
    11    11    12    1
    12     2     1   ar
    13     2     5    1
    14     3     1   ar
    15     3    10    1
