@<TRIPOS>MOLECULE
mol_data/opt/m06hf/geoms/mol2/4ia13di-4ha13dl.out
 52 55 0 0 0
SMALL
GASTEIGER

@<TRIPOS>ATOM
      1 C          -0.0020    0.0716   -0.9800 C.ar    1  LIG1       -0.0498
      2 C           1.3387    0.0334   -0.6016 C.ar    1  LIG1       -0.0497
      3 C          -0.6977    1.2769   -0.8679 C.ar    1  LIG1       -0.0588
      4 C           1.9753    1.1745   -0.1089 C.ar    1  LIG1       -0.0002
      5 H           1.8953   -0.8918   -0.6928 H       1  LIG1        0.0627
      6 C          -0.0704    2.4195   -0.3798 C.ar    1  LIG1       -0.0609
      7 C           1.2633    2.3715    0.0078 C.ar    1  LIG1       -0.0526
      8 H          -0.6262    3.3430   -0.2839 H       1  LIG1        0.0618
      9 H          -1.7407    1.3179   -1.1589 H       1  LIG1        0.0620
     10 C          -0.6775   -1.1696   -1.5343 C.3     1  LIG1       -0.0397
     11 H          -0.2448   -2.0671   -1.0935 H       1  LIG1        0.0278
     12 H          -0.5457   -1.2154   -2.6170 H       1  LIG1        0.0278
     13 H          -1.7452   -1.1522   -1.3169 H       1  LIG1        0.0278
     14 H           1.7383    3.2480    0.4317 H       1  LIG1        0.0624
     15 C           3.3945    1.1151    0.2916 C.ar    1  LIG1        0.0648
     16 C           4.1442    0.0995    0.8640 C.ar    1  LIG1        0.0804
     17 C           5.4818    0.5668    1.0564 C.ar    1  LIG1       -0.0072
     18 C           5.5020    1.8605    0.5833 C.ar    1  LIG1        0.0529
     19 N           4.2363    2.1681    0.1393 N.ar    1  LIG1       -0.3529
     20 H           4.0044    3.0154   -0.3582 H       1  LIG1        0.1659
     21 N           3.2903   -2.2403    1.5449 N.1     1  LIG1       -0.1908
     22 C           3.6576   -1.1933    1.2462 C.1     1  LIG1        0.1016
     23 C           6.6075   -0.1912    1.7127 C.3     1  LIG1       -0.0365
     24 H           7.4516    0.4752    1.8838 H       1  LIG1        0.0279
     25 H           6.9378   -1.0175    1.0806 H       1  LIG1        0.0279
     26 H           6.2685   -0.6011    2.6646 H       1  LIG1        0.0279
     27 C           7.8005    2.5498   -0.1365 C.ar    1  LIG1        0.0344
     28 C           8.8103    3.5199   -0.1804 C.ar    1  LIG1       -0.0313
     29 C           6.5935    2.8564    0.5243 C.ar    1  LIG1        0.0193
     30 C           8.6138    4.7780    0.3777 C.ar    1  LIG1        0.0014
     31 H           9.7513    3.2841   -0.6619 H       1  LIG1        0.0643
     32 C           6.4173    4.1228    1.0854 C.ar    1  LIG1       -0.0502
     33 C           7.4060    5.0925    1.0110 C.ar    1  LIG1       -0.0519
     34 H           5.4828    4.3383    1.5897 H       1  LIG1        0.0625
     35 N           8.0081    1.3046   -0.6971 N.pl3   1  LIG1       -0.3574
     36 H           7.1729    0.7630   -0.8788 H       1  LIG1        0.1423
     37 H           8.7037    1.2582   -1.4272 H       1  LIG1        0.1423
     38 H           7.2323    6.0839    1.4079 H       1  LIG1        0.0624
     39 C           9.6923    5.7821    0.2942 C.ar    1  LIG1        0.0678
     40 C          10.6064    6.0447   -0.7148 C.ar    1  LIG1        0.1185
     41 C          11.4187    7.1412   -0.2818 C.ar    1  LIG1        0.1552
     42 C          10.9823    7.4993    0.9656 C.ar    1  LIG1        0.0457
     43 N           9.9338    6.6742    1.2856 N.ar    1  LIG1       -0.3565
     44 H           9.4538    6.6609    2.1719 H       1  LIG1        0.1655
     45 H          11.3345    8.2738    1.6222 H       1  LIG1        0.0845
     46 N          10.7530    4.8234   -2.9828 N.1     1  LIG1       -0.1907
     47 C          10.6754    5.3760   -1.9779 C.1     1  LIG1        0.1050
     48 O          12.4093    7.7517   -0.9780 O.3     1  LIG1       -0.4923
     49 C          13.5206    6.9079   -1.2843 C.3     1  LIG1        0.0789
     50 H          14.2498    7.5415   -1.7820 H       1  LIG1        0.0660
     51 H          13.9401    6.4989   -0.3632 H       1  LIG1        0.0660
     52 H          13.2176    6.0985   -1.9496 H       1  LIG1        0.0660
@<TRIPOS>BOND
     1    46    47    3
     2    12    10    1
     3    47    40    1
     4    52    49    1
     5    50    49    1
     6    10    13    1
     7    10    11    1
     8    10     1    1
     9    37    35    1
    10    49    48    1
    11    49    51    1
    12     9     3    1
    13     1     3   ar
    14     1     2   ar
    15    48    41    1
    16    36    35    1
    17     3     6   ar
    18    40    41   ar
    19    40    39   ar
    20    35    27    1
    21     5     2    1
    22    31    28    1
    23     2     4   ar
    24     6     8    1
    25     6     7   ar
    26    20    19    1
    27    41    42   ar
    28    28    27   ar
    29    28    30   ar
    30    27    29   ar
    31     4     7   ar
    32     4    15    1
    33     7    14    1
    34    19    15   ar
    35    19    18   ar
    36    15    16   ar
    37    39    30    1
    38    39    43   ar
    39    30    33   ar
    40    29    18    1
    41    29    32   ar
    42    18    17   ar
    43    16    17   ar
    44    16    22    1
    45    42    43   ar
    46    42    45    1
    47    33    32   ar
    48    33    38    1
    49    17    23    1
    50    25    23    1
    51    32    34    1
    52    22    21    3
    53    43    44    1
    54    23    24    1
    55    23    26    1
