@<TRIPOS>MOLECULE
mol_data/opt/m06hf/geoms/mol2/4ia13hf-12ha6la.out
 48 51 0 0 0
SMALL
GASTEIGER

@<TRIPOS>ATOM
      1 C          -0.0649   -0.1753    0.5678 C.ar    1  LIG1       -0.0498
      2 C           1.3186   -0.1137    0.4325 C.ar    1  LIG1       -0.0497
      3 C          -0.8318    0.9374    0.2085 C.ar    1  LIG1       -0.0588
      4 C           1.9425    1.0390   -0.0628 C.ar    1  LIG1        0.0005
      5 H           1.9399   -0.9576    0.7102 H       1  LIG1        0.0627
      6 C          -0.2222    2.0845   -0.2863 C.ar    1  LIG1       -0.0609
      7 C           1.1613    2.1369   -0.4314 C.ar    1  LIG1       -0.0526
      8 H          -0.8247    2.9374   -0.5709 H       1  LIG1        0.0618
      9 H          -1.9099    0.9000    0.3152 H       1  LIG1        0.0620
     10 C          -0.7389   -1.4326    1.0888 C.3     1  LIG1       -0.0397
     11 H          -0.0020   -2.1138    1.5120 H       1  LIG1        0.0278
     12 H          -1.2598   -1.9447    0.2773 H       1  LIG1        0.0278
     13 H          -1.4691   -1.1826    1.8598 H       1  LIG1        0.0278
     14 H           1.6262    3.0193   -0.8545 H       1  LIG1        0.0624
     15 C           3.4099    1.0750   -0.1772 C.ar    1  LIG1        0.0716
     16 C           4.3144    0.0407   -0.3581 C.ar    1  LIG1        0.0930
     17 C           5.6081    0.6153   -0.4128 C.ar    1  LIG1        0.1666
     18 C           5.4609    1.9830   -0.2567 C.ar    1  LIG1        0.1282
     19 N           4.1185    2.2412   -0.1383 N.ar    1  LIG1       -0.3473
     20 H           3.7416    3.1504    0.0773 H       1  LIG1        0.1662
     21 N           4.0374   -1.3451   -0.4706 N.pl3   1  LIG1       -0.3535
     22 H           3.5276   -1.5497   -1.3256 H       1  LIG1        0.1425
     23 H           4.9164   -1.8541   -0.4862 H       1  LIG1        0.1425
     24 O           6.7330   -0.1138   -0.5869 O.3     1  LIG1       -0.5030
     25 H           7.5071    0.5043   -0.6202 H       1  LIG1        0.2923
     26 C           6.4468    3.0374   -0.2077 C.ar    1  LIG1        0.1759
     27 C           7.8040    3.0513   -0.3541 C.ar    1  LIG1        0.0732
     28 C           8.2089    4.4220   -0.2039 C.ar    1  LIG1        0.0058
     29 C           7.0702    5.1289    0.0236 C.ar    1  LIG1        0.1427
     30 O           6.0043    4.2889    0.0233 O.2     1  LIG1       -0.4512
     31 N           8.5955    1.8884   -0.6242 N.pl3   1  LIG1       -0.3550
     32 H           9.0597    1.9619   -1.5263 H       1  LIG1        0.1424
     33 H           9.3076    1.7564    0.0897 H       1  LIG1        0.1424
     34 H           9.2055    4.8247   -0.2850 H       1  LIG1        0.0674
     35 C           5.7535    7.2686   -0.2517 C.ar    1  LIG1        0.2254
     36 C           6.8517    6.5566    0.2884 C.ar    1  LIG1        0.0788
     37 C           7.7478    7.2792    1.0590 C.ar    1  LIG1       -0.0445
     38 C           7.5545    8.6481    1.2635 C.ar    1  LIG1       -0.0427
     39 C           6.4420    9.2338    0.6877 C.ar    1  LIG1        0.0314
     40 N           5.5580    8.5556   -0.0541 N.ar    1  LIG1       -0.2207
     41 H           8.5866    6.7639    1.5093 H       1  LIG1        0.0627
     42 H           6.2367   10.2891    0.8177 H       1  LIG1        0.0831
     43 O           4.8835    6.5873   -1.0079 O.3     1  LIG1       -0.4792
     44 C           3.8076    7.3294   -1.5770 C.3     1  LIG1        0.0804
     45 H           3.2347    6.6041   -2.1476 H       1  LIG1        0.0660
     46 H           3.2005    7.7763   -0.7903 H       1  LIG1        0.0660
     47 H           4.1933    8.1178   -2.2226 H       1  LIG1        0.0660
     48 H           8.2406    9.2309    1.8601 H       1  LIG1        0.0633
@<TRIPOS>BOND
     1    47    44    1
     2    45    44    1
     3    44    43    1
     4    44    46    1
     5    32    31    1
     6    22    21    1
     7    43    35    1
     8    14     7    1
     9    31    27    1
    10    31    33    1
    11    25    24    1
    12    24    17    1
    13     8     6    1
    14    23    21    1
    15    21    16    1
    16     7     6   ar
    17     7     4   ar
    18    17    16   ar
    19    17    18   ar
    20    16    15   ar
    21    27    26   ar
    22    27    28   ar
    23     6     3   ar
    24    34    28    1
    25    18    26    1
    26    18    19   ar
    27    35    40   ar
    28    35    36   ar
    29    26    30   ar
    30    28    29   ar
    31    15    19   ar
    32    15     4    1
    33    19    20    1
    34     4     2   ar
    35    40    39   ar
    36    30    29   ar
    37    29    36    1
    38     3     9    1
    39     3     1   ar
    40    12    10    1
    41    36    37   ar
    42     2     1   ar
    43     2     5    1
    44     1    10    1
    45    39    42    1
    46    39    38   ar
    47    37    38   ar
    48    37    41    1
    49    10    11    1
    50    10    13    1
    51    38    48    1
