@<TRIPOS>MOLECULE
mol_data/opt/m06hf/geoms/mol2/4ia13ee-6fd-12hh.out
 49 52 0 0 0
SMALL
GASTEIGER

@<TRIPOS>ATOM
      1 C          -0.0220    0.2267    0.8818 C.ar    1  LIG1       -0.0498
      2 C           1.3387    0.1239    0.6079 C.ar    1  LIG1       -0.0497
      3 C          -0.6922    1.4035    0.5351 C.ar    1  LIG1       -0.0588
      4 C           2.0232    1.1716   -0.0153 C.ar    1  LIG1       -0.0002
      5 H           1.8817   -0.7721    0.8819 H       1  LIG1        0.0627
      6 C          -0.0190    2.4504   -0.0838 C.ar    1  LIG1       -0.0609
      7 C           1.3386    2.3367   -0.3669 C.ar    1  LIG1       -0.0526
      8 H          -0.5509    3.3525   -0.3562 H       1  LIG1        0.0618
      9 H          -1.7503    1.4955    0.7511 H       1  LIG1        0.0620
     10 C          -0.7728   -0.9160    1.5412 C.3     1  LIG1       -0.0397
     11 H          -0.0782   -1.6693    1.9102 H       1  LIG1        0.0278
     12 H          -1.4456   -1.3859    0.8215 H       1  LIG1        0.0278
     13 H          -1.3678   -0.5474    2.3775 H       1  LIG1        0.0278
     14 H           1.8523    3.1394   -0.8830 H       1  LIG1        0.0624
     15 C           3.4683    1.0517   -0.2851 C.ar    1  LIG1        0.0637
     16 C           4.2533   -0.0380   -0.6182 C.ar    1  LIG1        0.0659
     17 C           5.5982    0.4354   -0.7740 C.ar    1  LIG1        0.0660
     18 C           5.5855    1.7940   -0.5286 C.ar    1  LIG1        0.0689
     19 N           4.2888    2.1432   -0.2491 N.ar    1  LIG1       -0.3521
     20 H           4.0113    3.0445    0.1161 H       1  LIG1        0.1660
     21 C           3.8173   -1.3850   -0.8234 C.1     1  LIG1       -0.0663
     22 C           3.4630   -2.5196   -0.9997 C.1     1  LIG1       -0.1138
     23 H           3.1540   -3.5254   -1.1662 H       1  LIG1        0.1232
     24 C           6.7414   -0.3412   -1.1445 C.1     1  LIG1       -0.0663
     25 C           7.7057   -0.9890   -1.4516 C.1     1  LIG1       -0.1138
     26 H           8.5559   -1.5667   -1.7319 H       1  LIG1        0.1232
     27 C           6.5091    4.0628   -1.0921 C.ar    1  LIG1        0.2224
     28 C           6.6785    2.7767   -0.5218 C.ar    1  LIG1        0.0621
     29 C           7.9232    2.4908    0.0066 C.ar    1  LIG1       -0.0279
     30 C           8.9132    3.4774    0.0011 C.ar    1  LIG1        0.0816
     31 C           8.6046    4.7596   -0.4867 C.ar    1  LIG1        0.1290
     32 N           7.4152    5.0077   -1.0480 N.ar    1  LIG1       -0.2080
     33 H           8.1320    1.5068    0.4058 H       1  LIG1        0.0639
     34 O           5.3525    4.3918   -1.7031 O.3     1  LIG1       -0.4919
     35 H           4.8784    3.5917   -1.9659 H       1  LIG1        0.2937
     36 N          11.3034    2.8558    0.7763 N.1     1  LIG1       -0.1908
     37 C          10.2427    3.1373    0.4340 C.1     1  LIG1        0.1014
     38 C           9.5300    5.8839   -0.4253 C.ar    1  LIG1        0.1767
     39 C          10.4701    6.3186    0.4804 C.ar    1  LIG1        0.0935
     40 C          10.8992    7.6136   -0.0017 C.ar    1  LIG1        0.0845
     41 C          10.1913    7.8480   -1.1341 C.ar    1  LIG1        0.1151
     42 O           9.3716    6.8309   -1.4011 O.2     1  LIG1       -0.4576
     43 H          10.1866    8.6712   -1.8288 H       1  LIG1        0.1049
     44 N          10.9247    5.8353    1.6841 N.pl3   1  LIG1       -0.3536
     45 H          11.1208    4.8461    1.7481 H       1  LIG1        0.1425
     46 H          11.6713    6.4247    2.0371 H       1  LIG1        0.1425
     47 N          11.8786    8.3757    0.6905 N.pl3   1  LIG1       -0.3541
     48 H          12.6959    8.5660    0.1222 H       1  LIG1        0.1425
     49 H          11.5075    9.2454    1.0555 H       1  LIG1        0.1425
@<TRIPOS>BOND
     1    35    34    1
     2    43    41    1
     3    26    25    1
     4    34    27    1
     5    25    24    3
     6    42    41   ar
     7    42    38   ar
     8    23    22    1
     9    24    17    1
    10    41    40   ar
    11    27    32   ar
    12    27    28   ar
    13    32    31   ar
    14    22    21    3
    15    14     7    1
    16    21    16    1
    17    17    16   ar
    18    17    18   ar
    19    16    15   ar
    20    18    28    1
    21    18    19   ar
    22    28    29   ar
    23    31    38    1
    24    31    30   ar
    25    38    39   ar
    26     7     6   ar
    27     7     4   ar
    28     8     6    1
    29    15    19   ar
    30    15     4    1
    31    19    20    1
    32     6     3   ar
    33     4     2   ar
    34    40    39   ar
    35    40    47    1
    36    30    29   ar
    37    30    37    1
    38    29    33    1
    39    48    47    1
    40    37    36    3
    41    39    44    1
    42     3     9    1
    43     3     1   ar
    44     2     1   ar
    45     2     5    1
    46    47    49    1
    47    12    10    1
    48     1    10    1
    49    10    11    1
    50    10    13    1
    51    44    45    1
    52    44    46    1
