@<TRIPOS>MOLECULE
mol_data/opt/m06hf/geoms/mol2/4ia13li-4di-12if-.out
 55 58 0 0 0
SMALL
GASTEIGER

@<TRIPOS>ATOM
      1 C          -0.2149    0.1026   -0.8064 C.ar    1  LIG1       -0.0498
      2 C           1.1708    0.1072   -0.6870 C.ar    1  LIG1       -0.0496
      3 C          -0.9269    1.2565   -0.4622 C.ar    1  LIG1       -0.0588
      4 C           1.8487    1.2413   -0.2204 C.ar    1  LIG1        0.0021
      5 H           1.7510   -0.7682   -0.9563 H       1  LIG1        0.0627
      6 C          -0.2633    2.3856    0.0023 C.ar    1  LIG1       -0.0609
      7 C           1.1228    2.3801    0.1328 C.ar    1  LIG1       -0.0525
      8 H          -0.8254    3.2693    0.2755 H       1  LIG1        0.0618
      9 H          -2.0067    1.2636   -0.5575 H       1  LIG1        0.0620
     10 C          -0.9517   -1.1268   -1.3071 C.3     1  LIG1       -0.0397
     11 H          -0.2475   -1.9094   -1.5855 H       1  LIG1        0.0278
     12 H          -1.5573   -0.8756   -2.1790 H       1  LIG1        0.0278
     13 H          -1.6141   -1.5121   -0.5299 H       1  LIG1        0.0278
     14 H           1.6321    3.2483    0.5332 H       1  LIG1        0.0624
     15 C           3.3163    1.2054   -0.1084 C.ar    1  LIG1        0.0894
     16 C           4.1742    0.1396    0.0840 C.ar    1  LIG1        0.1487
     17 C           5.5140    0.6126    0.1016 C.ar    1  LIG1        0.0171
     18 C           5.4289    1.9784   -0.0965 C.ar    1  LIG1        0.0547
     19 N           4.1033    2.3203   -0.1924 N.ar    1  LIG1       -0.3510
     20 H           3.7793    3.2189   -0.5158 H       1  LIG1        0.1660
     21 O           3.8125   -1.1677    0.2625 O.3     1  LIG1       -0.4927
     22 C           3.3277   -1.4477    1.5746 C.3     1  LIG1        0.0789
     23 H           3.1375   -2.5180    1.6104 H       1  LIG1        0.0660
     24 H           4.0786   -1.1737    2.3184 H       1  LIG1        0.0660
     25 H           2.4050   -0.8953    1.7623 H       1  LIG1        0.0660
     26 C           6.7257   -0.2465    0.3550 C.3     1  LIG1       -0.0342
     27 H           7.5600    0.3619    0.7061 H       1  LIG1        0.0279
     28 H           7.0287   -0.7585   -0.5586 H       1  LIG1        0.0279
     29 H           6.4884   -0.9943    1.1121 H       1  LIG1        0.0279
     30 C           7.6257    2.8895   -0.9198 C.ar    1  LIG1        0.0615
     31 C           8.5901    3.8978   -0.9369 C.ar    1  LIG1       -0.0328
     32 C           6.4664    3.0215   -0.1455 C.ar    1  LIG1        0.0163
     33 C           8.4157    5.0578   -0.1885 C.ar    1  LIG1        0.0218
     34 H           9.4623    3.7873   -1.5681 H       1  LIG1        0.0638
     35 C           6.3066    4.2016    0.5903 C.ar    1  LIG1       -0.0478
     36 C           7.2520    5.2221    0.5870 C.ar    1  LIG1       -0.0391
     37 H           5.4273    4.2984    1.2165 H       1  LIG1        0.0627
     38 N           8.0363    0.8566   -2.4814 N.1     1  LIG1       -0.1908
     39 C           7.8287    1.7403   -1.7784 C.1     1  LIG1        0.0998
     40 C           7.0342    6.4609    1.4350 C.3     1  LIG1       -0.0390
     41 H           6.2050    6.2987    2.1219 H       1  LIG1        0.0278
     42 H           6.8164    7.3192    0.7996 H       1  LIG1        0.0278
     43 H           7.9357    6.6874    2.0061 H       1  LIG1        0.0278
     44 C           9.4765    6.0825   -0.2277 C.ar    1  LIG1        0.1416
     45 C          10.8334    5.9755   -0.1793 C.ar    1  LIG1        0.0367
     46 C          11.3110    7.3288   -0.2838 C.ar    1  LIG1        0.1580
     47 C          10.2266    8.1352   -0.3819 C.ar    1  LIG1        0.1341
     48 O           9.1026    7.3776   -0.3455 O.2     1  LIG1       -0.4589
     49 H          10.0995    9.1985   -0.4784 H       1  LIG1        0.1068
     50 C          11.7077    4.7605   -0.0138 C.3     1  LIG1       -0.0326
     51 H          12.5372    5.0046    0.6496 H       1  LIG1        0.0280
     52 H          12.1213    4.4489   -0.9744 H       1  LIG1        0.0280
     53 H          11.1355    3.9371    0.4123 H       1  LIG1        0.0280
     54 O          12.6375    7.6238   -0.2681 O.3     1  LIG1       -0.5034
     55 H          12.7750    8.5763   -0.2405 H       1  LIG1        0.2923
@<TRIPOS>BOND
     1    38    39    3
     2    12    10    1
     3    39    30    1
     4    11    10    1
     5    34    31    1
     6    10     1    1
     7    10    13    1
     8    52    50    1
     9     5     2    1
    10    31    30   ar
    11    31    33   ar
    12    30    32   ar
    13     1     2   ar
    14     1     3   ar
    15     2     4   ar
    16    28    26    1
    17     9     3    1
    18    20    19    1
    19    49    47    1
    20     3     6   ar
    21    47    48   ar
    22    47    46   ar
    23    48    44   ar
    24    46    54    1
    25    46    45   ar
    26    54    55    1
    27    44    33    1
    28    44    45   ar
    29     4    15    1
    30     4     7   ar
    31    19    15   ar
    32    19    18   ar
    33    33    36   ar
    34    45    50    1
    35    32    18    1
    36    32    35   ar
    37    15    16   ar
    38    18    17   ar
    39    50    53    1
    40    50    51    1
    41     6     7   ar
    42     6     8    1
    43    16    17   ar
    44    16    21    1
    45    17    26    1
    46     7    14    1
    47    21    22    1
    48    26    27    1
    49    26    29    1
    50    36    35   ar
    51    36    40    1
    52    35    37    1
    53    42    40    1
    54    40    43    1
    55    40    41    1
    56    22    23    1
    57    22    25    1
    58    22    24    1
