@<TRIPOS>MOLECULE
mol_data/opt/m06hf/geoms/mol2/4ia4ia4ia-4ia.out
 54 57 0 0 0
SMALL
GASTEIGER

@<TRIPOS>ATOM
      1 C          -0.2439    0.1708   -0.5326 C.ar    1  LIG1       -0.0499
      2 C           1.1493    0.1327   -0.5322 C.ar    1  LIG1       -0.0511
      3 C          -0.8832    1.2796    0.0261 C.ar    1  LIG1       -0.0588
      4 C           1.9056    1.1741    0.0123 C.ar    1  LIG1       -0.0174
      5 H           1.6614   -0.7135   -0.9766 H       1  LIG1        0.0626
      6 C          -0.1438    2.3266    0.5660 C.ar    1  LIG1       -0.0609
      7 C           1.2474    2.2766    0.5600 C.ar    1  LIG1       -0.0540
      8 H          -0.6504    3.1794    0.9989 H       1  LIG1        0.0618
      9 H          -1.9663    1.3211    0.0366 H       1  LIG1        0.0620
     10 C          -1.0512   -0.9517   -1.1605 C.3     1  LIG1       -0.0397
     11 H          -0.4844   -1.8824   -1.1569 H       1  LIG1        0.0278
     12 H          -1.2992   -0.7030   -2.1943 H       1  LIG1        0.0278
     13 H          -1.9807   -1.1068   -0.6127 H       1  LIG1        0.0278
     14 H           1.8290    3.0812    0.9928 H       1  LIG1        0.0624
     15 C           4.1212    0.0778    0.5774 C.ar    1  LIG1       -0.0422
     16 C           5.5158    0.1094    0.5197 C.ar    1  LIG1       -0.0505
     17 C           3.4013    1.1303   -0.0087 C.ar    1  LIG1       -0.0149
     18 C           6.2093    1.1531   -0.0938 C.ar    1  LIG1       -0.0173
     19 H           6.0830   -0.6891    0.9858 H       1  LIG1        0.0626
     20 C           4.0930    2.1820   -0.6186 C.ar    1  LIG1       -0.0532
     21 C           5.4805    2.1985   -0.6649 C.ar    1  LIG1       -0.0534
     22 H           3.5252    2.9822   -1.0778 H       1  LIG1        0.0624
     23 C           3.4355   -1.0703    1.3013 C.3     1  LIG1       -0.0391
     24 H           4.0934   -1.4568    2.0796 H       1  LIG1        0.0278
     25 H           3.2092   -1.8860    0.6113 H       1  LIG1        0.0278
     26 H           2.5021   -0.7379    1.7545 H       1  LIG1        0.0278
     27 H           6.0015    3.0078   -1.1612 H       1  LIG1        0.0624
     28 C           8.4770    2.1590    0.4185 C.ar    1  LIG1       -0.0422
     29 C           9.8675    2.0700    0.3359 C.ar    1  LIG1       -0.0505
     30 C           7.7046    1.1319   -0.1443 C.ar    1  LIG1       -0.0149
     31 C          10.5068    0.9962   -0.2856 C.ar    1  LIG1       -0.0173
     32 H          10.4753    2.8474    0.7864 H       1  LIG1        0.0626
     33 C           8.3403    0.0489   -0.7593 C.ar    1  LIG1       -0.0532
     34 C           9.7252   -0.0217   -0.8356 C.ar    1  LIG1       -0.0534
     35 H           7.7313   -0.7315   -1.1991 H       1  LIG1        0.0624
     36 C           7.8478    3.3407    1.1386 C.3     1  LIG1       -0.0391
     37 H           6.9231    3.0434    1.6320 H       1  LIG1        0.0278
     38 H           7.6166    4.1450    0.4371 H       1  LIG1        0.0278
     39 H           8.5424    3.7283    1.8837 H       1  LIG1        0.0278
     40 H          10.2025   -0.8528   -1.3393 H       1  LIG1        0.0624
     41 C          12.7498   -0.1051    0.1433 C.ar    1  LIG1       -0.0427
     42 C          14.1410   -0.0594    0.0298 C.ar    1  LIG1       -0.0583
     43 C          12.0006    0.9650   -0.3706 C.ar    1  LIG1       -0.0150
     44 C          14.7880    1.0150   -0.5717 C.ar    1  LIG1       -0.0615
     45 H          14.7252   -0.8789    0.4322 H       1  LIG1        0.0620
     46 C          12.6555    2.0478   -0.9652 C.ar    1  LIG1       -0.0538
     47 C          14.0413    2.0782   -1.0697 C.ar    1  LIG1       -0.0612
     48 H          12.0604    2.8625   -1.3598 H       1  LIG1        0.0624
     49 H          15.8679    1.0235   -0.6454 H       1  LIG1        0.0618
     50 C          12.0978   -1.2891    0.8395 C.3     1  LIG1       -0.0391
     51 H          12.7992   -1.7296    1.5481 H       1  LIG1        0.0278
     52 H          11.8154   -2.0588    0.1180 H       1  LIG1        0.0278
     53 H          11.2004   -0.9775    1.3730 H       1  LIG1        0.0278
     54 H          14.5312    2.9222   -1.5370 H       1  LIG1        0.0618
@<TRIPOS>BOND
     1    12    10    1
     2    54    47    1
     3    48    46    1
     4    40    34    1
     5    35    33    1
     6    27    21    1
     7    10    11    1
     8    10    13    1
     9    10     1    1
    10    22    20    1
    11    47    46   ar
    12    47    44   ar
    13     5     2    1
    14    46    43   ar
    15    34    33   ar
    16    34    31   ar
    17    33    30   ar
    18    21    20   ar
    19    21    18   ar
    20    49    44    1
    21    20    17   ar
    22    44    42   ar
    23     1     2   ar
    24     1     3   ar
    25     2     4   ar
    26    43    31    1
    27    43    41   ar
    28    31    29   ar
    29    30    18    1
    30    30    28   ar
    31    18    16   ar
    32    17     4    1
    33    17    15   ar
    34     4     7   ar
    35     3     9    1
    36     3     6   ar
    37    42    41   ar
    38    42    45    1
    39    52    50    1
    40    41    50    1
    41    29    28   ar
    42    29    32    1
    43    28    36    1
    44    38    36    1
    45    16    15   ar
    46    16    19    1
    47     7     6   ar
    48     7    14    1
    49     6     8    1
    50    15    23    1
    51    25    23    1
    52    50    53    1
    53    50    51    1
    54    36    37    1
    55    36    39    1
    56    23    26    1
    57    23    24    1
