@<TRIPOS>MOLECULE
mol_data/opt/m06hf/geoms/mol2/4ia4ia-4ia.out
 41 43 0 0 0
SMALL
GASTEIGER

@<TRIPOS>ATOM
      1 C          -0.1074    0.2048    0.1178 C.ar    1  LIG1       -0.0499
      2 C           1.2874    0.1983    0.1487 C.ar    1  LIG1       -0.0511
      3 C          -0.7576    1.3207   -0.4103 C.ar    1  LIG1       -0.0588
      4 C           2.0298    1.2775   -0.3358 C.ar    1  LIG1       -0.0174
      5 H           1.8134   -0.6534    0.5661 H       1  LIG1        0.0626
      6 C          -0.0300    2.4013   -0.9013 C.ar    1  LIG1       -0.0609
      7 C           1.3607    2.3825   -0.8660 C.ar    1  LIG1       -0.0540
      8 H          -0.5474    3.2576   -1.3145 H       1  LIG1        0.0618
      9 H          -1.8410    1.3427   -0.4380 H       1  LIG1        0.0620
     10 C          -0.8996   -0.9884    0.6230 C.3     1  LIG1       -0.0397
     11 H          -0.3319   -1.5348    1.3759 H       1  LIG1        0.0278
     12 H          -1.1215   -1.6680   -0.2024 H       1  LIG1        0.0278
     13 H          -1.8423   -0.6635    1.0630 H       1  LIG1        0.0278
     14 H           1.9321    3.2142   -1.2594 H       1  LIG1        0.0624
     15 C           4.2636    2.1397    0.4791 C.ar    1  LIG1       -0.0422
     16 C           5.6553    2.0392    0.4803 C.ar    1  LIG1       -0.0505
     17 C           3.5261    1.2314   -0.2951 C.ar    1  LIG1       -0.0149
     18 C           6.3271    1.0660   -0.2614 C.ar    1  LIG1       -0.0173
     19 H           6.2370    2.7213    1.0908 H       1  LIG1        0.0626
     20 C           4.1927    0.2501   -1.0328 C.ar    1  LIG1       -0.0532
     21 C           5.5796    0.1665   -1.0236 C.ar    1  LIG1       -0.0534
     22 H           3.6089   -0.4381   -1.6320 H       1  LIG1        0.0624
     23 C           3.5818    3.1982    1.3296 C.3     1  LIG1       -0.0391
     24 H           2.6685    2.8022    1.7735 H       1  LIG1        0.0278
     25 H           3.3145    4.0690    0.7279 H       1  LIG1        0.0278
     26 H           4.2537    3.5243    2.1231 H       1  LIG1        0.0278
     27 H           6.0863   -0.5817   -1.6204 H       1  LIG1        0.0624
     28 C           8.5156   -0.1377    0.1650 C.ar    1  LIG1       -0.0427
     29 C           9.9118   -0.1136    0.1537 C.ar    1  LIG1       -0.0583
     30 C           7.8230    1.0129   -0.2452 C.ar    1  LIG1       -0.0150
     31 C          10.6173    1.0155   -0.2494 C.ar    1  LIG1       -0.0615
     32 H          10.4521   -0.9957    0.4767 H       1  LIG1        0.0620
     33 C           8.5358    2.1496   -0.6379 C.ar    1  LIG1       -0.0538
     34 C           9.9260    2.1569   -0.6440 C.ar    1  LIG1       -0.0612
     35 H           7.9840    3.0263   -0.9543 H       1  LIG1        0.0624
     36 H          11.6997    1.0052   -0.2478 H       1  LIG1        0.0618
     37 C           7.7939   -1.3884    0.6402 C.3     1  LIG1       -0.0391
     38 H           8.4295   -1.9367    1.3356 H       1  LIG1        0.0278
     39 H           7.5625   -2.0463   -0.2001 H       1  LIG1        0.0278
     40 H           6.8598   -1.1304    1.1378 H       1  LIG1        0.0278
     41 H          10.4622    3.0431   -0.9563 H       1  LIG1        0.0618
@<TRIPOS>BOND
     1    22    20    1
     2    27    21    1
     3     8     6    1
     4    14     7    1
     5    20    21   ar
     6    20    17   ar
     7    21    18   ar
     8    41    34    1
     9    35    33    1
    10     6     7   ar
    11     6     3   ar
    12     7     4   ar
    13    34    33   ar
    14    34    31   ar
    15    33    30   ar
    16     9     3    1
    17     3     1   ar
    18     4    17    1
    19     4     2   ar
    20    17    15   ar
    21    18    30    1
    22    18    16   ar
    23    31    36    1
    24    31    29   ar
    25    30    28   ar
    26    12    10    1
    27    39    37    1
    28     1     2   ar
    29     1    10    1
    30     2     5    1
    31    29    28   ar
    32    29    32    1
    33    28    37    1
    34    15    16   ar
    35    15    23    1
    36    16    19    1
    37    10    13    1
    38    10    11    1
    39    37    40    1
    40    37    38    1
    41    25    23    1
    42    23    24    1
    43    23    26    1
