@<TRIPOS>MOLECULE
mol_data/opt/m06hf/geoms/mol2/4ia4ia-4ia4ia.out
 54 57 0 0 0
SMALL
GASTEIGER

@<TRIPOS>ATOM
      1 C          -0.2403    0.2870   -0.1375 C.ar    1  LIG1       -0.0499
      2 C           1.1539    0.2358   -0.1309 C.ar    1  LIG1       -0.0511
      3 C          -0.8619    1.5352   -0.1874 C.ar    1  LIG1       -0.0588
      4 C           1.9248    1.3995   -0.1755 C.ar    1  LIG1       -0.0174
      5 H           1.6565   -0.7236   -0.0766 H       1  LIG1        0.0626
      6 C          -0.1062    2.7034   -0.2369 C.ar    1  LIG1       -0.0609
      7 C           1.2835    2.6389   -0.2324 C.ar    1  LIG1       -0.0540
      8 H          -0.6010    3.6648   -0.2826 H       1  LIG1        0.0618
      9 H          -1.9443    1.5922   -0.1882 H       1  LIG1        0.0620
     10 C          -1.0624   -0.9895   -0.1158 C.3     1  LIG1       -0.0397
     11 H          -0.5133   -1.7916    0.3768 H       1  LIG1        0.0278
     12 H          -1.2930   -1.3052   -1.1353 H       1  LIG1        0.0278
     13 H          -2.0012   -0.8314    0.4148 H       1  LIG1        0.0278
     14 H           1.8750    3.5442   -0.2873 H       1  LIG1        0.0624
     15 C           4.2018    1.8965    0.8188 C.ar    1  LIG1       -0.0422
     16 C           5.5892    1.7562    0.7528 C.ar    1  LIG1       -0.0505
     17 C           3.4186    1.3020   -0.1819 C.ar    1  LIG1       -0.0149
     18 C           6.2138    1.0437   -0.2715 C.ar    1  LIG1       -0.0173
     19 H           6.2033    2.1929    1.5329 H       1  LIG1        0.0626
     20 C           4.0398    0.5820   -1.2070 C.ar    1  LIG1       -0.0532
     21 C           5.4216    0.4538   -1.2585 C.ar    1  LIG1       -0.0534
     22 H           3.4239    0.1388   -1.9800 H       1  LIG1        0.0624
     23 C           3.5843    2.6570    1.9812 C.3     1  LIG1       -0.0391
     24 H           2.6161    2.2347    2.2479 H       1  LIG1        0.0278
     25 H           3.4379    3.7078    1.7228 H       1  LIG1        0.0278
     26 H           4.2468    2.6085    2.8454 H       1  LIG1        0.0278
     27 H           5.8905   -0.0851   -2.0724 H       1  LIG1        0.0624
     28 C           8.3559   -0.3091   -0.2746 C.ar    1  LIG1       -0.0422
     29 C           9.7503   -0.3347   -0.3005 C.ar    1  LIG1       -0.0505
     30 C           7.7060    0.9354   -0.3049 C.ar    1  LIG1       -0.0149
     31 C          10.5117    0.8340   -0.3517 C.ar    1  LIG1       -0.0173
     32 H          10.2603   -1.2918   -0.2873 H       1  LIG1        0.0626
     33 C           8.4640    2.1082   -0.3501 C.ar    1  LIG1       -0.0532
     34 C           9.8531    2.0641   -0.3764 C.ar    1  LIG1       -0.0534
     35 H           7.9499    3.0613   -0.3747 H       1  LIG1        0.0624
     36 C           7.5880   -1.6184   -0.1942 C.3     1  LIG1       -0.0391
     37 H           8.2070   -2.3787    0.2823 H       1  LIG1        0.0278
     38 H           7.3204   -1.9738   -1.1914 H       1  LIG1        0.0278
     39 H           6.6705   -1.4923    0.3796 H       1  LIG1        0.0278
     40 H          10.4315    2.9790   -0.4060 H       1  LIG1        0.0624
     41 C          12.7508    0.1825    0.6348 C.ar    1  LIG1       -0.0427
     42 C          14.1428    0.1646    0.5263 C.ar    1  LIG1       -0.0583
     43 C          12.0069    0.7765   -0.3965 C.ar    1  LIG1       -0.0150
     44 C          14.7943    0.7188   -0.5708 C.ar    1  LIG1       -0.0615
     45 H          14.7240   -0.2846    1.3232 H       1  LIG1        0.0620
     46 C          12.6652    1.3438   -1.4910 C.ar    1  LIG1       -0.0538
     47 C          14.0522    1.3162   -1.5847 C.ar    1  LIG1       -0.0612
     48 H          12.0729    1.7956   -2.2773 H       1  LIG1        0.0624
     49 H          15.8749    0.6906   -0.6285 H       1  LIG1        0.0618
     50 C          12.0865   -0.4141    1.8649 C.3     1  LIG1       -0.0391
     51 H          12.7803   -0.3928    2.7053 H       1  LIG1        0.0278
     52 H          11.7987   -1.4524    1.6869 H       1  LIG1        0.0278
     53 H          11.1893    0.1455    2.1282 H       1  LIG1        0.0278
     54 H          14.5464    1.7544   -2.4416 H       1  LIG1        0.0618
@<TRIPOS>BOND
     1    54    47    1
     2    48    46    1
     3    27    21    1
     4    22    20    1
     5    47    46   ar
     6    47    44   ar
     7    46    43   ar
     8    21    20   ar
     9    21    18   ar
    10    20    17   ar
    11    38    36    1
    12    12    10    1
    13    49    44    1
    14    44    42   ar
    15    40    34    1
    16    43    31    1
    17    43    41   ar
    18    34    31   ar
    19    34    33   ar
    20    35    33    1
    21    31    29   ar
    22    33    30   ar
    23    30    28   ar
    24    30    18    1
    25    29    32    1
    26    29    28   ar
    27    14     7    1
    28     8     6    1
    29    28    36    1
    30    18    16   ar
    31     6     7   ar
    32     6     3   ar
    33     7     4   ar
    34    36    37    1
    35    36    39    1
    36     9     3    1
    37     3     1   ar
    38    17     4    1
    39    17    15   ar
    40     4     2   ar
    41     1     2   ar
    42     1    10    1
    43     2     5    1
    44    10    11    1
    45    10    13    1
    46    42    41   ar
    47    42    45    1
    48    41    50    1
    49    16    15   ar
    50    16    19    1
    51    15    23    1
    52    52    50    1
    53    25    23    1
    54    50    53    1
    55    50    51    1
    56    23    24    1
    57    23    26    1
