@<TRIPOS>MOLECULE
mol_data/opt/m06hf/geoms/mol2/4ia4ia4ia4ia-.out
 54 57 0 0 0
SMALL
GASTEIGER

@<TRIPOS>ATOM
      1 C          -0.2510    0.4829   -0.7276 C.ar    1  LIG1       -0.0499
      2 C           1.1410    0.4442   -0.7702 C.ar    1  LIG1       -0.0511
      3 C          -0.8708    1.0611    0.3834 C.ar    1  LIG1       -0.0588
      4 C           1.9150    0.9709    0.2678 C.ar    1  LIG1       -0.0174
      5 H           1.6393    0.0137   -1.6316 H       1  LIG1        0.0626
      6 C          -0.1139    1.5932    1.4209 C.ar    1  LIG1       -0.0609
      7 C           1.2773    1.5498    1.3657 C.ar    1  LIG1       -0.0540
      8 H          -0.6057    2.0355    2.2776 H       1  LIG1        0.0618
      9 H          -1.9533    1.0949    0.4318 H       1  LIG1        0.0620
     10 C          -1.0837   -0.0637   -1.8737 C.3     1  LIG1       -0.0397
     11 H          -0.4876   -0.7253   -2.5016 H       1  LIG1        0.0278
     12 H          -1.4576    0.7552   -2.4913 H       1  LIG1        0.0278
     13 H          -1.9386   -0.6217   -1.4907 H       1  LIG1        0.0278
     14 H           1.8739    1.9501    2.1760 H       1  LIG1        0.0624
     15 C           4.1201   -0.2700    0.1202 C.ar    1  LIG1       -0.0422
     16 C           5.5132   -0.2233    0.0703 C.ar    1  LIG1       -0.0505
     17 C           3.4102    0.9386    0.2027 C.ar    1  LIG1       -0.0149
     18 C           6.2160    0.9828    0.1044 C.ar    1  LIG1       -0.0173
     19 H           6.0700   -1.1508   -0.0053 H       1  LIG1        0.0626
     20 C           4.1089    2.1477    0.2438 C.ar    1  LIG1       -0.0532
     21 C           5.4976    2.1760    0.1924 C.ar    1  LIG1       -0.0534
     22 H           3.5479    3.0720    0.3077 H       1  LIG1        0.0624
     23 C           3.4162   -1.6173    0.1033 C.3     1  LIG1       -0.0391
     24 H           4.0845   -2.3871    0.4887 H       1  LIG1        0.0278
     25 H           3.1289   -1.8933   -0.9134 H       1  LIG1        0.0278
     26 H           2.5144   -1.5875    0.7143 H       1  LIG1        0.0278
     27 H           6.0290    3.1189    0.2313 H       1  LIG1        0.0624
     28 C           8.5125    0.3265    0.9538 C.ar    1  LIG1       -0.0422
     29 C           9.8998    0.3836    0.8049 C.ar    1  LIG1       -0.0505
     30 C           7.7099    1.0031    0.0231 C.ar    1  LIG1       -0.0149
     31 C          10.5051    1.0942   -0.2318 C.ar    1  LIG1       -0.0173
     32 H          10.5319   -0.1227    1.5263 H       1  LIG1        0.0626
     33 C           8.3134    1.7260   -1.0116 C.ar    1  LIG1       -0.0532
     34 C           9.6949    1.7740   -1.1434 C.ar    1  LIG1       -0.0534
     35 H           7.6812    2.2340   -1.7296 H       1  LIG1        0.0624
     36 C           7.9245   -0.4370    2.1298 C.3     1  LIG1       -0.0391
     37 H           8.6288   -0.4261    2.9616 H       1  LIG1        0.0278
     38 H           7.7336   -1.4779    1.8603 H       1  LIG1        0.0278
     39 H           6.9845    0.0100    2.4510 H       1  LIG1        0.0278
     40 H          10.1484    2.3161   -1.9638 H       1  LIG1        0.0624
     41 C          12.7327    2.2939   -0.2466 C.ar    1  LIG1       -0.0427
     42 C          14.1218    2.2306   -0.3688 C.ar    1  LIG1       -0.0583
     43 C          11.9964    1.1047   -0.3606 C.ar    1  LIG1       -0.0150
     44 C          14.7773    1.0251   -0.5999 C.ar    1  LIG1       -0.0615
     45 H          14.6983    3.1434   -0.2722 H       1  LIG1        0.0620
     46 C          12.6584   -0.1059   -0.5809 C.ar    1  LIG1       -0.0538
     47 C          14.0426   -0.1516   -0.7043 C.ar    1  LIG1       -0.0612
     48 H          12.0706   -1.0119   -0.6666 H       1  LIG1        0.0624
     49 H          15.8558    1.0056   -0.6920 H       1  LIG1        0.0618
     50 C          12.0572    3.6273    0.0276 C.3     1  LIG1       -0.0391
     51 H          11.2150    3.4983    0.7074 H       1  LIG1        0.0278
     52 H          11.6812    4.0706   -0.8966 H       1  LIG1        0.0278
     53 H          12.7724    4.3193    0.4720 H       1  LIG1        0.0278
     54 H          14.5410   -1.0958   -0.8811 H       1  LIG1        0.0618
@<TRIPOS>BOND
     1    11    10    1
     2    12    10    1
     3    40    34    1
     4    10    13    1
     5    10     1    1
     6    35    33    1
     7     5     2    1
     8    34    33   ar
     9    34    31   ar
    10    33    30   ar
    11    25    23    1
    12    52    50    1
    13    54    47    1
    14     2     1   ar
    15     2     4   ar
    16     1     3   ar
    17    47    44   ar
    18    47    46   ar
    19    49    44    1
    20    48    46    1
    21    44    42   ar
    22    46    43   ar
    23    42    45    1
    24    42    41   ar
    25    43    41   ar
    26    43    31    1
    27    41    50    1
    28    31    29   ar
    29    19    16    1
    30    30    18    1
    31    30    28   ar
    32    50    53    1
    33    50    51    1
    34    16    18   ar
    35    16    15   ar
    36    23    15    1
    37    23    24    1
    38    23    26    1
    39    18    21   ar
    40    15    17   ar
    41    21    27    1
    42    21    20   ar
    43    17    20   ar
    44    17     4    1
    45    20    22    1
    46     4     7   ar
    47     3     9    1
    48     3     6   ar
    49    29    28   ar
    50    29    32    1
    51    28    36    1
    52     7     6   ar
    53     7    14    1
    54     6     8    1
    55    38    36    1
    56    36    39    1
    57    36    37    1
