@<TRIPOS>MOLECULE
mol_data/opt/m06hf/geoms/mol2/4ia4ia-4ia4ia-.out
 54 57 0 0 0
SMALL
GASTEIGER

@<TRIPOS>ATOM
      1 C          -0.2101    0.1533    0.1497 C.ar    1  LIG1       -0.0499
      2 C           1.1838    0.1669    0.1829 C.ar    1  LIG1       -0.0511
      3 C          -0.8744    1.2324   -0.4359 C.ar    1  LIG1       -0.0588
      4 C           1.9154    1.2279   -0.3569 C.ar    1  LIG1       -0.0174
      5 H           1.7180   -0.6538    0.6490 H       1  LIG1        0.0626
      6 C          -0.1593    2.2942   -0.9811 C.ar    1  LIG1       -0.0609
      7 C           1.2318    2.2939   -0.9452 C.ar    1  LIG1       -0.0540
      8 H          -0.6858    3.1220   -1.4383 H       1  LIG1        0.0618
      9 H          -1.9580    1.2395   -0.4649 H       1  LIG1        0.0620
     10 C          -0.9910   -1.0171    0.7206 C.3     1  LIG1       -0.0397
     11 H          -0.3849   -1.5704    1.4374 H       1  LIG1        0.0278
     12 H          -1.2873   -1.6981   -0.0798 H       1  LIG1        0.0278
     13 H          -1.8927   -0.6660    1.2228 H       1  LIG1        0.0278
     14 H           1.7915    3.1100   -1.3850 H       1  LIG1        0.0624
     15 C           4.1585    2.2236    0.2792 C.ar    1  LIG1       -0.0422
     16 C           5.5511    2.1231    0.2775 C.ar    1  LIG1       -0.0505
     17 C           3.4111    1.1972   -0.3183 C.ar    1  LIG1       -0.0149
     18 C           6.2155    1.0362   -0.2909 C.ar    1  LIG1       -0.0173
     19 H           6.1387    2.9014    0.7527 H       1  LIG1        0.0626
     20 C           4.0734    0.1030   -0.8841 C.ar    1  LIG1       -0.0532
     21 C           5.4593    0.0183   -0.8754 C.ar    1  LIG1       -0.0534
     22 H           3.4851   -0.6762   -1.3535 H       1  LIG1        0.0624
     23 C           3.5028    3.4173    0.9550 C.3     1  LIG1       -0.0391
     24 H           2.5388    3.1390    1.3793 H       1  LIG1        0.0278
     25 H           3.3412    4.2282    0.2417 H       1  LIG1        0.0278
     26 H           4.1499    3.7883    1.7498 H       1  LIG1        0.0278
     27 H           5.9586   -0.8236   -1.3382 H       1  LIG1        0.0624
     28 C           8.4015   -0.0597    0.3626 C.ar    1  LIG1       -0.0422
     29 C           9.7967   -0.0425    0.3476 C.ar    1  LIG1       -0.0505
     30 C           7.7108    0.9825   -0.2757 C.ar    1  LIG1       -0.0149
     31 C          10.5189    0.9755   -0.2775 C.ar    1  LIG1       -0.0173
     32 H          10.3421   -0.8305    0.8557 H       1  LIG1        0.0626
     33 C           8.4292    2.0079   -0.8969 C.ar    1  LIG1       -0.0532
     34 C           9.8183    2.0081   -0.9040 C.ar    1  LIG1       -0.0534
     35 H           7.8828    2.8002   -1.3941 H       1  LIG1        0.0624
     36 C           7.6727   -1.1756    1.0940 C.3     1  LIG1       -0.0391
     37 H           8.3294   -1.6142    1.8451 H       1  LIG1        0.0278
     38 H           7.3711   -1.9641    0.4016 H       1  LIG1        0.0278
     39 H           6.7765   -0.7923    1.5814 H       1  LIG1        0.0278
     40 H          10.3623    2.7957   -1.4102 H       1  LIG1        0.0624
     41 C          12.7783    1.9852    0.2622 C.ar    1  LIG1       -0.0427
     42 C          14.1705    1.8825    0.2245 C.ar    1  LIG1       -0.0583
     43 C          12.0151    0.9398   -0.2811 C.ar    1  LIG1       -0.0150
     44 C          14.8044    0.7764   -0.3316 C.ar    1  LIG1       -0.0615
     45 H          14.7652    2.6826    0.6497 H       1  LIG1        0.0620
     46 C          12.6557   -0.1757   -0.8282 C.ar    1  LIG1       -0.0538
     47 C          14.0429   -0.2625   -0.8580 C.ar    1  LIG1       -0.0612
     48 H          12.0495   -0.9709   -1.2447 H       1  LIG1        0.0624
     49 H          15.8855    0.7235   -0.3466 H       1  LIG1        0.0618
     50 C          12.1368    3.2012    0.9109 C.3     1  LIG1       -0.0391
     51 H          11.1971    2.9316    1.3916 H       1  LIG1        0.0278
     52 H          11.9303    3.9757    0.1691 H       1  LIG1        0.0278
     53 H          12.8130    3.6179    1.6575 H       1  LIG1        0.0278
     54 H          14.5226   -1.1307   -1.2899 H       1  LIG1        0.0618
@<TRIPOS>BOND
     1     8     6    1
     2    40    34    1
     3    35    33    1
     4    14     7    1
     5    22    20    1
     6    27    21    1
     7    54    47    1
     8    48    46    1
     9     6     7   ar
    10     6     3   ar
    11     7     4   ar
    12    34    33   ar
    13    34    31   ar
    14    33    30   ar
    15    20    21   ar
    16    20    17   ar
    17    21    18   ar
    18    47    46   ar
    19    47    44   ar
    20    46    43   ar
    21     9     3    1
    22     3     1   ar
    23     4    17    1
    24     4     2   ar
    25    49    44    1
    26    44    42   ar
    27    17    15   ar
    28    18    30    1
    29    18    16   ar
    30    43    31    1
    31    43    41   ar
    32    31    29   ar
    33    30    28   ar
    34    12    10    1
    35     1     2   ar
    36     1    10    1
    37    52    50    1
    38     2     5    1
    39    42    41   ar
    40    42    45    1
    41    25    23    1
    42    41    50    1
    43    16    15   ar
    44    16    19    1
    45    15    23    1
    46    29    28   ar
    47    29    32    1
    48    28    36    1
    49    38    36    1
    50    10    13    1
    51    10    11    1
    52    50    51    1
    53    50    53    1
    54    23    24    1
    55    23    26    1
    56    36    39    1
    57    36    37    1
