@<TRIPOS>MOLECULE
mol_data/opt/m06hf/geoms/mol2/4ia4ia.out
 28 29 0 0 0
SMALL
GASTEIGER

@<TRIPOS>ATOM
      1 C          -0.0517    0.1753   -0.3493 C.ar    1  LIG1       -0.0499
      2 C           1.3348    0.1694   -0.4933 C.ar    1  LIG1       -0.0511
      3 C          -0.6413    1.1962    0.3983 C.ar    1  LIG1       -0.0588
      4 C           2.1307    1.1586    0.0891 C.ar    1  LIG1       -0.0174
      5 H           1.8101   -0.6091   -1.0805 H       1  LIG1        0.0626
      6 C           0.1385    2.1906    0.9808 C.ar    1  LIG1       -0.0609
      7 C           1.5218    2.1751    0.8269 C.ar    1  LIG1       -0.0540
      8 H          -0.3314    2.9749    1.5602 H       1  LIG1        0.0618
      9 H          -1.7178    1.2118    0.5247 H       1  LIG1        0.0620
     10 C          -0.9025   -0.8874   -1.0220 C.3     1  LIG1       -0.0397
     11 H          -0.3480   -1.8211   -1.1133 H       1  LIG1        0.0278
     12 H          -1.1913   -0.5594   -2.0225 H       1  LIG1        0.0278
     13 H          -1.8093   -1.0743   -0.4470 H       1  LIG1        0.0278
     14 H           2.1374    2.9383    1.2868 H       1  LIG1        0.0624
     15 C           4.3993    0.0807    0.3905 C.ar    1  LIG1       -0.0427
     16 C           5.7799    0.1262    0.1878 C.ar    1  LIG1       -0.0583
     17 C           3.6172    1.1429   -0.0884 C.ar    1  LIG1       -0.0150
     18 C           6.3838    1.1934   -0.4694 C.ar    1  LIG1       -0.0615
     19 H           6.3907   -0.6874    0.5615 H       1  LIG1        0.0620
     20 C           4.2284    2.2204   -0.7354 C.ar    1  LIG1       -0.0538
     21 C           5.6047    2.2500   -0.9308 C.ar    1  LIG1       -0.0612
     22 H           3.6070    3.0307   -1.0972 H       1  LIG1        0.0624
     23 H           7.4566    1.2014   -0.6144 H       1  LIG1        0.0618
     24 C           3.7865   -1.0931    1.1373 C.3     1  LIG1       -0.0391
     25 H           4.5288   -1.5349    1.8021 H       1  LIG1        0.0278
     26 H           3.4497   -1.8641    0.4412 H       1  LIG1        0.0278
     27 H           2.9280   -0.7687    1.7248 H       1  LIG1        0.0278
     28 H           6.0623    3.0887   -1.4392 H       1  LIG1        0.0618
@<TRIPOS>BOND
     1    12    10    1
     2    28    21    1
     3    11    10    1
     4    22    20    1
     5     5     2    1
     6    10    13    1
     7    10     1    1
     8    21    20   ar
     9    21    18   ar
    10    20    17   ar
    11    23    18    1
    12     2     1   ar
    13     2     4   ar
    14    18    16   ar
    15     1     3   ar
    16    17     4    1
    17    17    15   ar
    18     4     7   ar
    19    16    15   ar
    20    16    19    1
    21    15    24    1
    22     3     9    1
    23     3     6   ar
    24    26    24    1
    25     7     6   ar
    26     7    14    1
    27     6     8    1
    28    24    27    1
    29    24    25    1
