@<TRIPOS>MOLECULE
mol_data/opt/m06hf/geoms/mol2/4ia4ia4ia.out
 41 43 0 0 0
SMALL
GASTEIGER

@<TRIPOS>ATOM
      1 C          -0.1952    0.5222   -0.5216 C.ar    1  LIG1       -0.0499
      2 C           1.1900    0.4809   -0.6585 C.ar    1  LIG1       -0.0511
      3 C          -0.7367    1.0715    0.6443 C.ar    1  LIG1       -0.0588
      4 C           2.0344    0.9768    0.3399 C.ar    1  LIG1       -0.0174
      5 H           1.6286    0.0734   -1.5623 H       1  LIG1        0.0626
      6 C           0.0903    1.5722    1.6429 C.ar    1  LIG1       -0.0609
      7 C           1.4750    1.5269    1.4929 C.ar    1  LIG1       -0.0540
      8 H          -0.3411    1.9939    2.5412 H       1  LIG1        0.0618
      9 H          -1.8134    1.1070    0.7661 H       1  LIG1        0.0620
     10 C          -1.1081    0.0041   -1.6188 C.3     1  LIG1       -0.0397
     11 H          -0.5377   -0.5412   -2.3699 H       1  LIG1        0.0278
     12 H          -1.6191    0.8353   -2.1078 H       1  LIG1        0.0278
     13 H          -1.8629   -0.6637   -1.2014 H       1  LIG1        0.0278
     14 H           2.1266    1.9058    2.2704 H       1  LIG1        0.0624
     15 C           4.2176   -0.2695    0.0322 C.ar    1  LIG1       -0.0422
     16 C           5.6025   -0.2291   -0.1265 C.ar    1  LIG1       -0.0505
     17 C           3.5209    0.9429    0.1669 C.ar    1  LIG1       -0.0149
     18 C           6.3093    0.9746   -0.1532 C.ar    1  LIG1       -0.0173
     19 H           6.1485   -1.1590   -0.2425 H       1  LIG1        0.0626
     20 C           4.2244    2.1490    0.1506 C.ar    1  LIG1       -0.0532
     21 C           5.6050    2.1710   -0.0105 C.ar    1  LIG1       -0.0534
     22 H           3.6738    3.0758    0.2569 H       1  LIG1        0.0624
     23 C           3.5044   -1.6110    0.0745 C.3     1  LIG1       -0.0391
     24 H           4.2039   -2.3917    0.3732 H       1  LIG1        0.0278
     25 H           3.1027   -1.8701   -0.9071 H       1  LIG1        0.0278
     26 H           2.6757   -1.5823    0.7819 H       1  LIG1        0.0278
     27 H           6.1429    3.1108   -0.0175 H       1  LIG1        0.0624
     28 C           8.6647    0.3691    0.5560 C.ar    1  LIG1       -0.0427
     29 C          10.0378    0.4363    0.3120 C.ar    1  LIG1       -0.0583
     30 C           7.7929    0.9942   -0.3495 C.ar    1  LIG1       -0.0150
     31 C          10.5483    1.1031   -0.7972 C.ar    1  LIG1       -0.0615
     32 H          10.7174   -0.0356    1.0122 H       1  LIG1        0.0620
     33 C           8.3100    1.6729   -1.4569 C.ar    1  LIG1       -0.0538
     34 C           9.6798    1.7283   -1.6868 C.ar    1  LIG1       -0.0612
     35 H           7.6202    2.1464   -2.1449 H       1  LIG1        0.0624
     36 H          11.6176    1.1389   -0.9619 H       1  LIG1        0.0618
     37 C           8.1571   -0.3500    1.7954 C.3     1  LIG1       -0.0391
     38 H           8.9313   -0.3520    2.5627 H       1  LIG1        0.0278
     39 H           7.9016   -1.3866    1.5662 H       1  LIG1        0.0278
     40 H           7.2663    0.1398    2.1879 H       1  LIG1        0.0278
     41 H          10.0643    2.2526   -2.5519 H       1  LIG1        0.0618
@<TRIPOS>BOND
     1    41    34    1
     2    11    10    1
     3    35    33    1
     4    12    10    1
     5    34    33   ar
     6    34    31   ar
     7    10    13    1
     8    10     1    1
     9     5     2    1
    10    33    30   ar
    11    36    31    1
    12    25    23    1
    13    31    29   ar
    14     2     1   ar
    15     2     4   ar
    16     1     3   ar
    17    30    18    1
    18    30    28   ar
    19    19    16    1
    20    18    16   ar
    21    18    21   ar
    22    16    15   ar
    23    27    21    1
    24    21    20   ar
    25    15    23    1
    26    15    17   ar
    27    23    24    1
    28    23    26    1
    29    20    17   ar
    30    20    22    1
    31    17     4    1
    32    29    28   ar
    33    29    32    1
    34     4     7   ar
    35    28    37    1
    36     3     9    1
    37     3     6   ar
    38     7     6   ar
    39     7    14    1
    40    39    37    1
    41     6     8    1
    42    37    40    1
    43    37    38    1
