@<TRIPOS>MOLECULE
mol_data/opt/m06hf/geoms/mol2/4ia4ia-.out
 28 29 0 0 0
SMALL
GASTEIGER

@<TRIPOS>ATOM
      1 C           0.0190    0.2073    0.2489 C.ar    1  LIG1       -0.0499
      2 C           1.4143    0.2223    0.2870 C.ar    1  LIG1       -0.0511
      3 C          -0.6400    1.2131   -0.4576 C.ar    1  LIG1       -0.0588
      4 C           2.1477    1.2162   -0.3625 C.ar    1  LIG1       -0.0174
      5 H           1.9470   -0.5435    0.8405 H       1  LIG1        0.0626
      6 C           0.0798    2.2074   -1.1155 C.ar    1  LIG1       -0.0609
      7 C           1.4697    2.2115   -1.0698 C.ar    1  LIG1       -0.0540
      8 H          -0.4445    2.9789   -1.6648 H       1  LIG1        0.0618
      9 H          -1.7231    1.2189   -0.4936 H       1  LIG1        0.0620
     10 C          -0.7598   -0.8957    0.9434 C.3     1  LIG1       -0.0397
     11 H          -0.2305   -1.2367    1.8329 H       1  LIG1        0.0278
     12 H          -0.8865   -1.7469    0.2714 H       1  LIG1        0.0278
     13 H          -1.7472   -0.5413    1.2384 H       1  LIG1        0.0278
     14 H           2.0356    2.9753   -1.5886 H       1  LIG1        0.0624
     15 C           4.3517    2.2264    0.3470 C.ar    1  LIG1       -0.0427
     16 C           5.7453    2.1562    0.3789 C.ar    1  LIG1       -0.0583
     17 C           3.6442    1.2022   -0.3009 C.ar    1  LIG1       -0.0150
     18 C           6.4328    1.1019   -0.2149 C.ar    1  LIG1       -0.0615
     19 H           6.2987    2.9382    0.8856 H       1  LIG1        0.0620
     20 C           4.3360    0.1390   -0.8857 C.ar    1  LIG1       -0.0538
     21 C           5.7255    0.0853   -0.8487 C.ar    1  LIG1       -0.0612
     22 H           3.7699   -0.6413   -1.3799 H       1  LIG1        0.0624
     23 H           7.5139    1.0715   -0.1745 H       1  LIG1        0.0618
     24 C           3.6343    3.3822    1.0244 C.3     1  LIG1       -0.0391
     25 H           2.7151    3.0376    1.4977 H       1  LIG1        0.0278
     26 H           3.3717    4.1555    0.2997 H       1  LIG1        0.0278
     27 H           4.2815    3.8269    1.7803 H       1  LIG1        0.0278
     28 H           6.2491   -0.7417   -1.3099 H       1  LIG1        0.0618
@<TRIPOS>BOND
     1     8     6    1
     2    14     7    1
     3    22    20    1
     4    28    21    1
     5     6     7   ar
     6     6     3   ar
     7     7     4   ar
     8    20    21   ar
     9    20    17   ar
    10    21    18   ar
    11     9     3    1
    12     3     1   ar
    13     4    17    1
    14     4     2   ar
    15    17    15   ar
    16    18    23    1
    17    18    16   ar
    18     1     2   ar
    19     1    10    1
    20    12    10    1
    21     2     5    1
    22    26    24    1
    23    15    16   ar
    24    15    24    1
    25    16    19    1
    26    10    13    1
    27    10    11    1
    28    24    25    1
    29    24    27    1
