@<TRIPOS>MOLECULE
mol_data/opt/m06hf/geoms/mol2/4ia4ia-4ia-4ia.out
 54 57 0 0 0
SMALL
GASTEIGER

@<TRIPOS>ATOM
      1 C          -0.2015    0.5520    0.6007 C.ar    1  LIG1       -0.0499
      2 C           1.1927    0.5892    0.6330 C.ar    1  LIG1       -0.0511
      3 C          -0.8560    1.0339   -0.5337 C.ar    1  LIG1       -0.0588
      4 C           1.9305    1.0937   -0.4399 C.ar    1  LIG1       -0.0174
      5 H           1.7212    0.2311    1.5097 H       1  LIG1        0.0626
      6 C          -0.1327    1.5337   -1.6127 C.ar    1  LIG1       -0.0609
      7 C           1.2576    1.5649   -1.5687 C.ar    1  LIG1       -0.0540
      8 H          -0.6525    1.8972   -2.4898 H       1  LIG1        0.0618
      9 H          -1.9392    1.0148   -0.5722 H       1  LIG1        0.0620
     10 C          -0.9900   -0.0225    1.7644 C.3     1  LIG1       -0.0397
     11 H          -0.4122    0.0361    2.6864 H       1  LIG1        0.0278
     12 H          -1.2310   -1.0702    1.5739 H       1  LIG1        0.0278
     13 H          -1.9230    0.5243    1.9014 H       1  LIG1        0.0278
     14 H           1.8261    1.9398   -2.4108 H       1  LIG1        0.0624
     15 C           4.1413    2.3209   -0.3820 C.ar    1  LIG1       -0.0422
     16 C           5.5335    2.2730   -0.3192 C.ar    1  LIG1       -0.0505
     17 C           3.4266    1.1124   -0.3763 C.ar    1  LIG1       -0.0149
     18 C           6.2276    1.0633   -0.2521 C.ar    1  LIG1       -0.0173
     19 H           6.0966    3.1997   -0.3304 H       1  LIG1        0.0626
     20 C           4.1154   -0.0994   -0.2991 C.ar    1  LIG1       -0.0532
     21 C           5.5047   -0.1298   -0.2424 C.ar    1  LIG1       -0.0534
     22 H           3.5492   -1.0227   -0.2944 H       1  LIG1        0.0624
     23 C           3.4328    3.6640   -0.4387 C.3     1  LIG1       -0.0391
     24 H           2.5154    3.6373    0.1493 H       1  LIG1        0.0278
     25 H           3.1676    3.9204   -1.4662 H       1  LIG1        0.0278
     26 H           4.0860    4.4445   -0.0493 H       1  LIG1        0.0278
     27 H           6.0321   -1.0736   -0.1810 H       1  LIG1        0.0624
     28 C           8.4304    1.5982    0.8717 C.ar    1  LIG1       -0.0422
     29 C           9.8250    1.5384    0.8569 C.ar    1  LIG1       -0.0505
     30 C           7.7239    1.0400   -0.2036 C.ar    1  LIG1       -0.0149
     31 C          10.5275    0.9407   -0.1899 C.ar    1  LIG1       -0.0173
     32 H          10.3834    1.9493    1.6910 H       1  LIG1        0.0626
     33 C           8.4227    0.4343   -1.2512 C.ar    1  LIG1       -0.0532
     34 C           9.8109    0.3853   -1.2514 C.ar    1  LIG1       -0.0534
     35 H           7.8627    0.0164   -2.0789 H       1  LIG1        0.0624
     36 C           7.7178    2.2351    2.0531 C.3     1  LIG1       -0.0391
     37 H           6.7890    1.7079    2.2702 H       1  LIG1        0.0278
     38 H           7.4731    3.2782    1.8424 H       1  LIG1        0.0278
     39 H           8.3609    2.2053    2.9323 H       1  LIG1        0.0278
     40 H          10.3425   -0.0655   -2.0802 H       1  LIG1        0.0624
     41 C          12.7260   -0.3069   -0.1317 C.ar    1  LIG1       -0.0427
     42 C          14.1214   -0.2697   -0.1146 C.ar    1  LIG1       -0.0583
     43 C          12.0244    0.9085   -0.1689 C.ar    1  LIG1       -0.0150
     44 C          14.8163    0.9354   -0.1324 C.ar    1  LIG1       -0.0615
     45 H          14.6698   -1.2037   -0.0773 H       1  LIG1        0.0620
     46 C          12.7248    2.1173   -0.1729 C.ar    1  LIG1       -0.0538
     47 C          14.1155    2.1372   -0.1575 C.ar    1  LIG1       -0.0612
     48 H          12.1645    3.0440   -0.2016 H       1  LIG1        0.0624
     49 H          15.8987    0.9349   -0.1185 H       1  LIG1        0.0618
     50 C          12.0068   -1.6446   -0.0858 C.3     1  LIG1       -0.0391
     51 H          12.6577   -2.3983    0.3571 H       1  LIG1        0.0278
     52 H          11.7353   -1.9758   -1.0901 H       1  LIG1        0.0278
     53 H          11.0934   -1.5701    0.5039 H       1  LIG1        0.0278
     54 H          14.6448    3.0808   -0.1668 H       1  LIG1        0.0618
@<TRIPOS>BOND
     1     8     6    1
     2    14     7    1
     3    40    34    1
     4    35    33    1
     5     6     7   ar
     6     6     3   ar
     7     7     4   ar
     8    25    23    1
     9    34    33   ar
    10    34    31   ar
    11    33    30   ar
    12    52    50    1
    13     9     3    1
    14     3     1   ar
    15     4    17    1
    16     4     2   ar
    17    23    15    1
    18    23    26    1
    19    23    24    1
    20    15    17   ar
    21    15    16   ar
    22    17    20   ar
    23    19    16    1
    24    16    18   ar
    25    20    22    1
    26    20    21   ar
    27    18    21   ar
    28    18    30    1
    29    21    27    1
    30    30    28   ar
    31    48    46    1
    32    31    43    1
    33    31    29   ar
    34    46    43   ar
    35    46    47   ar
    36    43    41   ar
    37    54    47    1
    38    47    44   ar
    39    44    49    1
    40    44    42   ar
    41    41    42   ar
    42    41    50    1
    43    42    45    1
    44    50    51    1
    45    50    53    1
    46     1     2   ar
    47     1    10    1
    48     2     5    1
    49    29    28   ar
    50    29    32    1
    51    28    36    1
    52    12    10    1
    53    10    13    1
    54    10    11    1
    55    38    36    1
    56    36    37    1
    57    36    39    1
