@<TRIPOS>MOLECULE
mol_data/opt/m06hf/geoms/mol2/4ia4ia4ia-4ia-.out
 54 57 0 0 0
SMALL
GASTEIGER

@<TRIPOS>ATOM
      1 C          -0.1640   -0.1846   -0.2131 C.ar    1  LIG1       -0.0499
      2 C           1.2283   -0.1264   -0.1984 C.ar    1  LIG1       -0.0511
      3 C          -0.8833    1.0121   -0.1781 C.ar    1  LIG1       -0.0588
      4 C           1.9041    1.0962   -0.1536 C.ar    1  LIG1       -0.0174
      5 H           1.8045   -1.0443   -0.2373 H       1  LIG1        0.0626
      6 C          -0.2241    2.2362   -0.1386 C.ar    1  LIG1       -0.0609
      7 C           1.1680    2.2813   -0.1282 C.ar    1  LIG1       -0.0540
      8 H          -0.7938    3.1560   -0.1097 H       1  LIG1        0.0618
      9 H          -1.9669    0.9824   -0.1834 H       1  LIG1        0.0620
     10 C          -0.8861   -1.5177   -0.3000 C.3     1  LIG1       -0.0397
     11 H          -0.2563   -2.3221    0.0791 H       1  LIG1        0.0278
     12 H          -1.1411   -1.7398   -1.3381 H       1  LIG1        0.0278
     13 H          -1.8080   -1.4914    0.2813 H       1  LIG1        0.0278
     14 H           1.6888    3.2298   -0.0858 H       1  LIG1        0.0624
     15 C           4.1455    0.5699    0.8944 C.ar    1  LIG1       -0.0422
     16 C           5.5384    0.6316    0.8309 C.ar    1  LIG1       -0.0505
     17 C           3.4009    1.1365   -0.1507 C.ar    1  LIG1       -0.0149
     18 C           6.2035    1.2398   -0.2343 C.ar    1  LIG1       -0.0173
     19 H           6.1261    0.2103    1.6393 H       1  LIG1        0.0626
     20 C           4.0621    1.7585   -1.2130 C.ar    1  LIG1       -0.0532
     21 C           5.4495    1.8106   -1.2612 C.ar    1  LIG1       -0.0534
     22 H           3.4731    2.1838   -2.0165 H       1  LIG1        0.0624
     23 C           3.4773   -0.0811    2.0940 C.3     1  LIG1       -0.0391
     24 H           4.1461   -0.0444    2.9537 H       1  LIG1        0.0278
     25 H           3.2424   -1.1273    1.8873 H       1  LIG1        0.0278
     26 H           2.5478    0.4313    2.3407 H       1  LIG1        0.0278
     27 H           5.9505    2.2707   -2.1039 H       1  LIG1        0.0624
     28 C           8.4304    2.4488   -0.2704 C.ar    1  LIG1       -0.0422
     29 C           9.8230    2.3819   -0.3099 C.ar    1  LIG1       -0.0505
     30 C           7.6998    1.2494   -0.2746 C.ar    1  LIG1       -0.0149
     31 C          10.5037    1.1642   -0.3530 C.ar    1  LIG1       -0.0173
     32 H          10.3967    3.3025   -0.3166 H       1  LIG1        0.0626
     33 C           8.3768    0.0286   -0.3072 C.ar    1  LIG1       -0.0532
     34 C           9.7654   -0.0199   -0.3496 C.ar    1  LIG1       -0.0534
     35 H           7.7999   -0.8884   -0.3095 H       1  LIG1        0.0624
     36 C           7.7446    3.8033   -0.2067 C.3     1  LIG1       -0.0391
     37 H           6.8447    3.7493    0.4056 H       1  LIG1        0.0278
     38 H           7.4565    4.1406   -1.2044 H       1  LIG1        0.0278
     39 H           8.4241    4.5413    0.2191 H       1  LIG1        0.0278
     40 H          10.2826   -0.9709   -0.3723 H       1  LIG1        0.0624
     41 C          12.7921    1.6217    0.6258 C.ar    1  LIG1       -0.0427
     42 C          14.1804    1.5385    0.5051 C.ar    1  LIG1       -0.0583
     43 C          11.9989    1.1183   -0.4168 C.ar    1  LIG1       -0.0150
     44 C          14.7797    0.9726   -0.6160 C.ar    1  LIG1       -0.0615
     45 H          14.8002    1.9155    1.3101 H       1  LIG1        0.0620
     46 C          12.6033    0.5403   -1.5360 C.ar    1  LIG1       -0.0538
     47 C          13.9879    0.4669   -1.6421 C.ar    1  LIG1       -0.0612
     48 H          11.9721    0.1588   -2.3292 H       1  LIG1        0.0624
     49 H          15.8588    0.9199   -0.6829 H       1  LIG1        0.0618
     50 C          12.1761    2.2217    1.8789 C.3     1  LIG1       -0.0391
     51 H          11.2681    1.6857    2.1546 H       1  LIG1        0.0278
     52 H          11.9147    3.2699    1.7211 H       1  LIG1        0.0278
     53 H          12.8874    2.1673    2.7028 H       1  LIG1        0.0278
     54 H          14.4423    0.0220   -2.5176 H       1  LIG1        0.0618
@<TRIPOS>BOND
     1    54    47    1
     2    48    46    1
     3    27    21    1
     4    22    20    1
     5    47    46   ar
     6    47    44   ar
     7    46    43   ar
     8    12    10    1
     9    21    20   ar
    10    21    18   ar
    11    20    17   ar
    12    38    36    1
    13    49    44    1
    14    44    42   ar
    15    43    31    1
    16    43    41   ar
    17    40    34    1
    18    31    34   ar
    19    31    29   ar
    20    34    33   ar
    21    32    29    1
    22    29    28   ar
    23    35    33    1
    24    33    30   ar
    25    10     1    1
    26    10    11    1
    27    10    13    1
    28    30    28   ar
    29    30    18    1
    30    28    36    1
    31     5     2    1
    32    18    16   ar
    33     1     2   ar
    34     1     3   ar
    35    36    39    1
    36    36    37    1
    37     2     4   ar
    38     9     3    1
    39     3     6   ar
    40     4    17    1
    41     4     7   ar
    42    17    15   ar
    43     6     7   ar
    44     6     8    1
    45     7    14    1
    46    42    41   ar
    47    42    45    1
    48    41    50    1
    49    16    15   ar
    50    16    19    1
    51    15    23    1
    52    52    50    1
    53    50    51    1
    54    50    53    1
    55    25    23    1
    56    23    26    1
    57    23    24    1
