@<TRIPOS>MOLECULE
mol_data/opt/m06hf/geoms/mol2/4ia4ia4ia4ia.out
 54 57 0 0 0
SMALL
GASTEIGER

@<TRIPOS>ATOM
      1 C          -0.2677    1.0413   -0.5123 C.ar    1  LIG1       -0.0499
      2 C           1.1205    0.9830   -0.6167 C.ar    1  LIG1       -0.0511
      3 C          -0.8503    0.8876    0.7480 C.ar    1  LIG1       -0.0588
      4 C           1.9259    0.7802    0.5078 C.ar    1  LIG1       -0.0174
      5 H           1.5925    1.1115   -1.5845 H       1  LIG1        0.0626
      6 C          -0.0611    0.6900    1.8759 C.ar    1  LIG1       -0.0609
      7 C           1.3260    0.6377    1.7592 C.ar    1  LIG1       -0.0540
      8 H          -0.5257    0.5708    2.8462 H       1  LIG1        0.0618
      9 H          -1.9295    0.9256    0.8440 H       1  LIG1        0.0620
     10 C          -1.1312    1.2984   -1.7348 C.3     1  LIG1       -0.0397
     11 H          -0.5958    1.0352   -2.6467 H       1  LIG1        0.0278
     12 H          -1.4034    2.3544   -1.7873 H       1  LIG1        0.0278
     13 H          -2.0480    0.7105   -1.6850 H       1  LIG1        0.0278
     14 H           1.9471    0.4731    2.6309 H       1  LIG1        0.0624
     15 C           4.0507   -0.2746   -0.3707 C.ar    1  LIG1       -0.0422
     16 C           5.4419   -0.2590   -0.4650 C.ar    1  LIG1       -0.0505
     17 C           3.4166    0.7323    0.3741 C.ar    1  LIG1       -0.0149
     18 C           6.2134    0.7238    0.1575 C.ar    1  LIG1       -0.0173
     19 H           5.9408   -1.0252   -1.0482 H       1  LIG1        0.0626
     20 C           4.1845    1.7092    1.0105 C.ar    1  LIG1       -0.0532
     21 C           5.5710    1.7128    0.9028 C.ar    1  LIG1       -0.0534
     22 H           3.6808    2.4787    1.5826 H       1  LIG1        0.0624
     23 C           3.2625   -1.3766   -1.0586 C.3     1  LIG1       -0.0391
     24 H           3.8968   -2.2516   -1.2000 H       1  LIG1        0.0278
     25 H           2.9091   -1.0480   -2.0380 H       1  LIG1        0.0278
     26 H           2.3938   -1.6562   -0.4627 H       1  LIG1        0.0278
     27 H           6.1591    2.4757    1.3975 H       1  LIG1        0.0624
     28 C           8.5007   -0.3127    0.4889 C.ar    1  LIG1       -0.0422
     29 C           9.8810   -0.2415    0.3027 C.ar    1  LIG1       -0.0505
     30 C           7.7027    0.7359    0.0049 C.ar    1  LIG1       -0.0149
     31 C          10.4845    0.8374   -0.3462 C.ar    1  LIG1       -0.0173
     32 H          10.5060   -1.0513    0.6629 H       1  LIG1        0.0626
     33 C           8.3024    1.8232   -0.6336 C.ar    1  LIG1       -0.0532
     34 C           9.6800    1.8767   -0.8140 C.ar    1  LIG1       -0.0534
     35 H           7.6732    2.6250   -1.0003 H       1  LIG1        0.0624
     36 C           7.8979   -1.5031    1.2162 C.3     1  LIG1       -0.0391
     37 H           8.6536   -1.9737    1.8449 H       1  LIG1        0.0278
     38 H           7.5308   -2.2478    0.5072 H       1  LIG1        0.0278
     39 H           7.0602   -1.1871    1.8380 H       1  LIG1        0.0278
     40 H          10.1374    2.7242   -1.3092 H       1  LIG1        0.0624
     41 C          12.8635    0.8936    0.5190 C.ar    1  LIG1       -0.0427
     42 C          14.2324    0.9279    0.2454 C.ar    1  LIG1       -0.0583
     43 C          11.9660    0.8752   -0.5596 C.ar    1  LIG1       -0.0150
     44 C          14.7127    0.9442   -1.0602 C.ar    1  LIG1       -0.0615
     45 H          14.9314    0.9516    1.0735 H       1  LIG1        0.0620
     46 C          12.4512    0.9055   -1.8700 C.ar    1  LIG1       -0.0538
     47 C          13.8176    0.9372   -2.1256 C.ar    1  LIG1       -0.0612
     48 H          11.7413    0.8897   -2.6880 H       1  LIG1        0.0624
     49 H          15.7789    0.9704   -1.2438 H       1  LIG1        0.0618
     50 C          12.3838    0.9010    1.9611 C.3     1  LIG1       -0.0391
     51 H          13.1367    1.3655    2.5980 H       1  LIG1        0.0278
     52 H          12.2147   -0.1165    2.3193 H       1  LIG1        0.0278
     53 H          11.4483    1.4521    2.0526 H       1  LIG1        0.0278
     54 H          14.1788    0.9541   -3.1455 H       1  LIG1        0.0618
@<TRIPOS>BOND
     1    54    47    1
     2    48    46    1
     3    11    10    1
     4    47    46   ar
     5    47    44   ar
     6    25    23    1
     7    46    43   ar
     8    12    10    1
     9    10    13    1
    10    10     1    1
    11     5     2    1
    12    40    34    1
    13    49    44    1
    14    24    23    1
    15    44    42   ar
    16    23    26    1
    17    23    15    1
    18    19    16    1
    19    35    33    1
    20    34    33   ar
    21    34    31   ar
    22    33    30   ar
    23     2     1   ar
    24     2     4   ar
    25    43    31    1
    26    43    41   ar
    27     1     3   ar
    28    16    15   ar
    29    16    18   ar
    30    15    17   ar
    31    31    29   ar
    32    30    18    1
    33    30    28   ar
    34    18    21   ar
    35    42    41   ar
    36    42    45    1
    37    29    28   ar
    38    29    32    1
    39    17     4    1
    40    17    20   ar
    41    28    36    1
    42    38    36    1
    43     4     7   ar
    44    41    50    1
    45     3     9    1
    46     3     6   ar
    47    21    20   ar
    48    21    27    1
    49    20    22    1
    50    36    39    1
    51    36    37    1
    52     7     6   ar
    53     7    14    1
    54     6     8    1
    55    50    53    1
    56    50    52    1
    57    50    51    1
