@<TRIPOS>MOLECULE
mol_data/opt/m06hf/geoms/mol2/4ia4ia-4ia-4ia-.out
 54 57 0 0 0
SMALL
GASTEIGER

@<TRIPOS>ATOM
      1 C          -0.1254    0.7080    0.9963 C.ar    1  LIG1       -0.0499
      2 C           1.2636    0.8210    0.9352 C.ar    1  LIG1       -0.0511
      3 C          -0.8462    0.6780   -0.1984 C.ar    1  LIG1       -0.0588
      4 C           1.9337    0.9007   -0.2879 C.ar    1  LIG1       -0.0174
      5 H           1.8406    0.8619    1.8525 H       1  LIG1        0.0626
      6 C          -0.1913    0.7520   -1.4244 C.ar    1  LIG1       -0.0609
      7 C           1.1949    0.8615   -1.4721 C.ar    1  LIG1       -0.0540
      8 H          -0.7611    0.7204   -2.3440 H       1  LIG1        0.0618
      9 H          -1.9265    0.5949   -0.1673 H       1  LIG1        0.0620
     10 C          -0.8371    0.5963    2.3330 C.3     1  LIG1       -0.0397
     11 H          -0.2368    1.0410    3.1264 H       1  LIG1        0.0278
     12 H          -1.0114   -0.4530    2.5793 H       1  LIG1        0.0278
     13 H          -1.8007    1.1045    2.2971 H       1  LIG1        0.0278
     14 H           1.7098    0.9023   -2.4236 H       1  LIG1        0.0624
     15 C           4.0777    2.0956   -0.9168 C.ar    1  LIG1       -0.0422
     16 C           5.4720    2.1297   -0.9041 C.ar    1  LIG1       -0.0505
     17 C           3.4267    1.0062   -0.3154 C.ar    1  LIG1       -0.0149
     18 C           6.2313    1.1192   -0.3123 C.ar    1  LIG1       -0.0173
     19 H           5.9846    2.9626   -1.3731 H       1  LIG1        0.0626
     20 C           4.1828   -0.0035    0.2849 C.ar    1  LIG1       -0.0532
     21 C           5.5719    0.0452    0.2867 C.ar    1  LIG1       -0.0534
     22 H           3.6672   -0.8389    0.7427 H       1  LIG1        0.0624
     23 C           3.3097    3.2394   -1.5594 C.3     1  LIG1       -0.0391
     24 H           2.3702    3.4152   -1.0365 H       1  LIG1        0.0278
     25 H           3.0815    3.0162   -2.6036 H       1  LIG1        0.0278
     26 H           3.9110    4.1482   -1.5302 H       1  LIG1        0.0278
     27 H           6.1497   -0.7405    0.7572 H       1  LIG1        0.0624
     28 C           8.4277    2.2076    0.3178 C.ar    1  LIG1       -0.0422
     29 C           9.8216    2.1935    0.2780 C.ar    1  LIG1       -0.0505
     30 C           7.7272    1.1742   -0.3242 C.ar    1  LIG1       -0.0149
     31 C          10.5329    1.1855   -0.3753 C.ar    1  LIG1       -0.0173
     32 H          10.3719    2.9921    0.7634 H       1  LIG1        0.0626
     33 C           8.4337    0.1609   -0.9753 C.ar    1  LIG1       -0.0532
     34 C           9.8238    0.1633   -1.0067 C.ar    1  LIG1       -0.0534
     35 H           7.8795   -0.6305   -1.4653 H       1  LIG1        0.0624
     36 C           7.7094    3.3180    1.0665 C.3     1  LIG1       -0.0391
     37 H           6.8156    2.9333    1.5571 H       1  LIG1        0.0278
     38 H           7.4050    4.1146    0.3846 H       1  LIG1        0.0278
     39 H           8.3736    3.7469    1.8167 H       1  LIG1        0.0278
     40 H          10.3635   -0.6306   -1.5079 H       1  LIG1        0.0624
     41 C          12.7881    1.1558    0.7720 C.ar    1  LIG1       -0.0427
     42 C          14.1804    1.1780    0.6698 C.ar    1  LIG1       -0.0583
     43 C          12.0295    1.2023   -0.4084 C.ar    1  LIG1       -0.0150
     44 C          14.8185    1.2418   -0.5647 C.ar    1  LIG1       -0.0615
     45 H          14.7721    1.1344    1.5769 H       1  LIG1        0.0620
     46 C          12.6738    1.2523   -1.6475 C.ar    1  LIG1       -0.0538
     47 C          14.0617    1.2741   -1.7318 C.ar    1  LIG1       -0.0612
     48 H          12.0713    1.2885   -2.5471 H       1  LIG1        0.0624
     49 H          15.8997    1.2574   -0.6138 H       1  LIG1        0.0618
     50 C          12.1384    1.0557    2.1426 C.3     1  LIG1       -0.0391
     51 H          11.2202    0.4713    2.0926 H       1  LIG1        0.0278
     52 H          11.8894    2.0461    2.5294 H       1  LIG1        0.0278
     53 H          12.8265    0.5810    2.8420 H       1  LIG1        0.0278
     54 H          14.5456    1.3185   -2.6986 H       1  LIG1        0.0618
@<TRIPOS>BOND
     1    54    47    1
     2    25    23    1
     3    48    46    1
     4    14     7    1
     5     8     6    1
     6    47    46   ar
     7    47    44   ar
     8    46    43   ar
     9    23    26    1
    10    23    24    1
    11    23    15    1
    12    40    34    1
    13     7     6   ar
    14     7     4   ar
    15    35    33    1
    16     6     3   ar
    17    19    16    1
    18    34    33   ar
    19    34    31   ar
    20    33    30   ar
    21    15    16   ar
    22    15    17   ar
    23    16    18   ar
    24    49    44    1
    25    44    42   ar
    26    43    31    1
    27    43    41   ar
    28    31    29   ar
    29    30    18    1
    30    30    28   ar
    31    17     4    1
    32    17    20   ar
    33    18    21   ar
    34     4     2   ar
    35     3     9    1
    36     3     1   ar
    37    29    28   ar
    38    29    32    1
    39    20    21   ar
    40    20    22    1
    41    21    27    1
    42    28    36    1
    43    38    36    1
    44    42    41   ar
    45    42    45    1
    46    41    50    1
    47     2     1   ar
    48     2     5    1
    49     1    10    1
    50    36    37    1
    51    36    39    1
    52    51    50    1
    53    50    52    1
    54    50    53    1
    55    13    10    1
    56    10    12    1
    57    10    11    1
