@<TRIPOS>MOLECULE
mol_data/opt/m06hf/geoms/mol2/4ia6ad-13af-6ah-.out
 45 48 0 0 0
SMALL
GASTEIGER

@<TRIPOS>ATOM
      1 C          -0.1033    0.2735   -0.5810 C.ar    1  LIG1       -0.0499
      2 C           1.2858    0.1964   -0.5079 C.ar    1  LIG1       -0.0511
      3 C          -0.7488    1.3304    0.0655 C.ar    1  LIG1       -0.0588
      4 C           2.0267    1.1514    0.1933 C.ar    1  LIG1       -0.0162
      5 H           1.8047   -0.6047   -1.0228 H       1  LIG1        0.0626
      6 C          -0.0218    2.2876    0.7651 C.ar    1  LIG1       -0.0609
      7 C           1.3653    2.2008    0.8339 C.ar    1  LIG1       -0.0540
      8 H          -0.5363    3.0956    1.2685 H       1  LIG1        0.0618
      9 H          -1.8291    1.4020    0.0192 H       1  LIG1        0.0620
     10 C          -0.8989   -0.7483   -1.3732 C.3     1  LIG1       -0.0397
     11 H          -0.3260   -1.6659   -1.5020 H       1  LIG1        0.0278
     12 H          -1.1419   -0.3511   -2.3606 H       1  LIG1        0.0278
     13 H          -1.8304   -0.9864   -0.8598 H       1  LIG1        0.0278
     14 H           1.9315    2.9267    1.4042 H       1  LIG1        0.0624
     15 C           4.3240    2.1692    0.0501 C.ar    1  LIG1        0.0361
     16 C           3.5103    1.0484    0.2600 C.ar    1  LIG1        0.0015
     17 C           4.1593   -0.1511    0.5267 C.ar    1  LIG1       -0.0330
     18 C           5.5520   -0.1851    0.5797 C.ar    1  LIG1        0.0797
     19 C           6.2822    0.9954    0.3687 C.ar    1  LIG1        0.1045
     20 N           5.6459    2.1435    0.1046 N.ar    1  LIG1       -0.2516
     21 H           3.5951   -1.0567    0.7121 H       1  LIG1        0.0638
     22 H           3.8703    3.1243   -0.1895 H       1  LIG1        0.0836
     23 N           6.6827   -2.4603    1.0922 N.1     1  LIG1       -0.1908
     24 C           6.2015   -1.4436    0.8642 C.1     1  LIG1        0.1014
     25 C           7.7434    1.0951    0.4085 C.ar    1  LIG1        0.0702
     26 C           8.7778    0.2016    0.6546 C.ar    1  LIG1        0.0073
     27 C           9.9702    0.9400    0.5228 C.ar    1  LIG1        0.1427
     28 C           9.6469    2.2526    0.2050 C.ar    1  LIG1        0.0905
     29 N           8.2908    2.3167    0.1557 N.ar    1  LIG1       -0.3500
     30 H           7.7173    3.1108   -0.0952 H       1  LIG1        0.1661
     31 H           8.7046   -0.8429    0.9006 H       1  LIG1        0.0676
     32 O          11.2361    0.4334    0.6745 O.3     1  LIG1       -0.5046
     33 H          11.7173    0.9666    1.3192 H       1  LIG1        0.2922
     34 C          10.1237    4.7055    0.2852 C.ar    1  LIG1        0.0369
     35 C          10.5291    3.4046   -0.0253 C.ar    1  LIG1        0.0217
     36 C          11.8022    3.2136   -0.5631 C.ar    1  LIG1       -0.0289
     37 C          12.6204    4.3214   -0.7797 C.ar    1  LIG1        0.0435
     38 C          12.1031    5.5836   -0.4463 C.ar    1  LIG1        0.0482
     39 N          10.8955    5.7653    0.0681 N.ar    1  LIG1       -0.2608
     40 H          12.1355    2.2143   -0.8191 H       1  LIG1        0.0643
     41 H          12.7071    6.4712   -0.6020 H       1  LIG1        0.0848
     42 H           9.1570    4.8927    0.7374 H       1  LIG1        0.0836
     43 N          13.9151    4.1908   -1.2689 N.pl3   1  LIG1       -0.3568
     44 H          14.0981    3.3442   -1.7882 H       1  LIG1        0.1424
     45 H          14.2927    5.0120   -1.7195 H       1  LIG1        0.1424
@<TRIPOS>BOND
     1    12    10    1
     2    44    43    1
     3    45    43    1
     4    11    10    1
     5    10    13    1
     6    10     1    1
     7    43    37    1
     8     5     2    1
     9    40    36    1
    10    37    36   ar
    11    37    38   ar
    12    41    38    1
    13     1     2   ar
    14     1     3   ar
    15    36    35   ar
    16     2     4   ar
    17    38    39   ar
    18    22    15    1
    19    30    29    1
    20    35    28    1
    21    35    34   ar
    22     9     3    1
    23    15    20   ar
    24    15    16   ar
    25     3     6   ar
    26    39    34   ar
    27    20    19   ar
    28    29    28   ar
    29    29    25   ar
    30     4    16    1
    31     4     7   ar
    32    28    27   ar
    33    16    17   ar
    34    34    42    1
    35    19    25    1
    36    19    18   ar
    37    25    26   ar
    38    27    26   ar
    39    27    32    1
    40    17    18   ar
    41    17    21    1
    42    18    24    1
    43    26    31    1
    44    32    33    1
    45     6     7   ar
    46     6     8    1
    47     7    14    1
    48    24    23    3
