@<TRIPOS>MOLECULE
mol_data/opt/m06hf/geoms/mol2/4id13hf-6fl-4hh-4dh13fe-12dh-13la-.out
 101 108 0 0 0
SMALL
GASTEIGER

@<TRIPOS>ATOM
      1 C           0.4033   -1.6469   -0.9824 C.ar    1  LIG1       -0.0498
      2 C           1.3434   -0.9114   -0.2717 C.ar    1  LIG1       -0.0484
      3 C           0.5036   -1.7204   -2.3773 C.ar    1  LIG1       -0.0576
      4 C           2.4006   -0.2424   -0.9095 C.ar    1  LIG1        0.0178
      5 H           1.2710   -0.8297    0.8067 H       1  LIG1        0.0627
      6 C           1.5265   -1.0625   -3.0357 C.ar    1  LIG1       -0.0435
      7 C           2.4723   -0.3303   -2.3091 C.ar    1  LIG1        0.0609
      8 H           1.6144   -1.1071   -4.1128 H       1  LIG1        0.0631
      9 H          -0.2239   -2.2903   -2.9419 H       1  LIG1        0.0621
     10 C          -0.7290   -2.3595   -0.2662 C.3     1  LIG1       -0.0397
     11 H          -0.7068   -2.1424    0.8002 H       1  LIG1        0.0278
     12 H          -0.6413   -3.4380   -0.4085 H       1  LIG1        0.0278
     13 H          -1.6897   -2.0380   -0.6711 H       1  LIG1        0.0278
     14 N           4.3342    0.8474   -3.6853 N.1     1  LIG1       -0.1908
     15 C           3.5226    0.3230   -3.0633 C.1     1  LIG1        0.0998
     16 C           3.3546    0.5086   -0.0809 C.ar    1  LIG1        0.0728
     17 C           3.6603    0.3350    1.2657 C.ar    1  LIG1        0.0929
     18 C           4.6196    1.3136    1.5923 C.ar    1  LIG1        0.1636
     19 C           4.8757    2.0739    0.4596 C.ar    1  LIG1        0.0961
     20 N           4.1121    1.5518   -0.5353 N.ar    1  LIG1       -0.3496
     21 H           4.1551    1.9004   -1.4865 H       1  LIG1        0.1661
     22 N           3.1258   -0.6066    2.1738 N.pl3   1  LIG1       -0.3535
     23 H           3.3377   -1.5628    1.9036 H       1  LIG1        0.1425
     24 H           3.4907   -0.4249    3.1035 H       1  LIG1        0.1425
     25 O           5.1739    1.4602    2.8479 O.3     1  LIG1       -0.5031
     26 H           6.0270    1.0086    2.8645 H       1  LIG1        0.2923
     27 C           6.1268    3.7187   -0.9807 C.ar    1  LIG1        0.2225
     28 C           5.7858    3.2107    0.2859 C.ar    1  LIG1        0.0668
     29 C           6.3634    3.8489    1.3817 C.ar    1  LIG1       -0.0035
     30 C           7.2558    4.9013    1.1798 C.ar    1  LIG1        0.1469
     31 C           7.5894    5.2652   -0.1303 C.ar    1  LIG1        0.1181
     32 N           6.9905    4.6877   -1.1766 N.ar    1  LIG1       -0.2087
     33 H           6.0874    3.5304    2.3785 H       1  LIG1        0.0663
     34 O           5.5396    3.1716   -2.0724 O.3     1  LIG1       -0.4919
     35 H           5.9473    3.5366   -2.8683 H       1  LIG1        0.2937
     36 O           7.8105    5.6259    2.1798 O.3     1  LIG1       -0.4929
     37 C           8.0448    4.9811    3.4191 C.3     1  LIG1        0.0789
     38 H           8.7380    5.6203    3.9581 H       1  LIG1        0.0660
     39 H           7.1171    4.8750    3.9857 H       1  LIG1        0.0660
     40 H           8.4988    3.9997    3.2579 H       1  LIG1        0.0660
     41 C           9.8845    6.2795    0.1437 C.ar    1  LIG1        0.0346
     42 C          10.7635    7.3173   -0.1649 C.ar    1  LIG1       -0.0309
     43 C           8.5925    6.3341   -0.4015 C.ar    1  LIG1        0.0264
     44 C          10.4070    8.3619   -1.0127 C.ar    1  LIG1        0.0058
     45 H          11.7567    7.3072    0.2694 H       1  LIG1        0.0643
     46 C           8.2427    7.3661   -1.2686 C.ar    1  LIG1       -0.0294
     47 C           9.1278    8.3898   -1.5930 C.ar    1  LIG1        0.0331
     48 H           7.2494    7.3539   -1.7026 H       1  LIG1        0.0643
     49 N          10.3131    5.2344    0.9786 N.pl3   1  LIG1       -0.3574
     50 H           9.7632    4.3905    0.8640 H       1  LIG1        0.1423
     51 H          11.2982    5.0311    0.8597 H       1  LIG1        0.1423
     52 N           8.7326    9.4421   -2.4454 N.pl3   1  LIG1       -0.3575
     53 H           9.4920    9.7886   -3.0215 H       1  LIG1        0.1423
     54 H           7.9387    9.1925   -3.0221 H       1  LIG1        0.1423
     55 C          12.7006    9.1773   -1.7191 C.ar    1  LIG1        0.0603
     56 C          13.6205   10.2072   -1.9110 C.ar    1  LIG1       -0.0328
     57 C          11.3931    9.4476   -1.2877 C.ar    1  LIG1        0.0031
     58 C          13.2578   11.5345   -1.6942 C.ar    1  LIG1        0.0238
     59 H          14.6298    9.9786   -2.2269 H       1  LIG1        0.0638
     60 C          11.0281   10.7814   -1.1103 C.ar    1  LIG1       -0.0314
     61 C          11.9300   11.8231   -1.3217 C.ar    1  LIG1        0.0345
     62 H          10.0078   11.0022   -0.8176 H       1  LIG1        0.0643
     63 N          13.5063    6.7485   -2.1651 N.1     1  LIG1       -0.1908
     64 C          13.1352    7.8173   -1.9693 C.1     1  LIG1        0.0998
     65 N          11.5378   13.1634   -1.1257 N.pl3   1  LIG1       -0.3574
     66 H          11.7817   13.7562   -1.9154 H       1  LIG1        0.1423
     67 H          10.5525   13.2554   -0.9096 H       1  LIG1        0.1423
     68 C          14.2747   12.5886   -1.8238 C.ar    1  LIG1        0.0921
     69 C          15.4568   12.5965   -2.5387 C.ar    1  LIG1        0.1582
     70 C          16.1459   13.8042   -2.2556 C.ar    1  LIG1        0.0949
     71 C          15.3468   14.5097   -1.3615 C.ar    1  LIG1        0.1031
     72 N          14.2419   13.7674   -1.1174 N.ar    1  LIG1       -0.3478
     73 H          13.4809   14.0235   -0.4991 H       1  LIG1        0.1661
     74 O          15.8909   11.6029   -3.3503 O.3     1  LIG1       -0.5035
     75 H          16.7449   11.8558   -3.7254 H       1  LIG1        0.2923
     76 C          17.4333   14.1235   -2.7821 C.1     1  LIG1       -0.0637
     77 C          18.5188   14.3401   -3.2524 C.1     1  LIG1       -0.1137
     78 H          19.4746   14.5773   -3.6592 H       1  LIG1        0.1232
     79 C          15.5252   15.7905   -0.7048 C.ar    1  LIG1        0.1723
     80 C          16.2376   16.9244   -0.9828 C.ar    1  LIG1        0.1202
     81 C          15.9840   17.8583    0.0924 C.ar    1  LIG1        0.0909
     82 C          15.1090   17.2219    0.9213 C.ar    1  LIG1        0.1772
     83 O          14.8375   15.9680    0.4338 O.2     1  LIG1       -0.4485
     84 N          17.6536   17.5953   -3.0276 N.1     1  LIG1       -0.1907
     85 C          17.0281   17.2414   -2.1315 C.1     1  LIG1        0.1049
     86 N          16.5828   19.0929    0.2411 N.pl3   1  LIG1       -0.3540
     87 H          16.9568   19.4764   -0.6165 H       1  LIG1        0.1425
     88 H          16.0294   19.7492    0.7817 H       1  LIG1        0.1425
     89 C          14.4749   17.6063    2.1651 C.ar    1  LIG1        0.1261
     90 C          14.1615   18.8523    2.6680 C.ar    1  LIG1        0.1483
     91 C          13.5736   18.6766    3.9515 C.ar    1  LIG1       -0.0018
     92 C          13.5410   17.3182    4.1786 C.ar    1  LIG1        0.0058
     93 N          14.0850   16.6892    3.1067 N.ar    1  LIG1       -0.3553
     94 H          14.2096   15.6948    3.0019 H       1  LIG1        0.1655
     95 H          13.1697   16.7662    5.0238 H       1  LIG1        0.0808
     96 O          14.3968   20.0079    1.9798 O.3     1  LIG1       -0.4929
     97 C          13.9884   21.1970    2.6351 C.3     1  LIG1        0.0789
     98 H          14.2289   22.0152    1.9616 H       1  LIG1        0.0660
     99 H          12.9130   21.1727    2.8224 H       1  LIG1        0.0660
    100 H          14.5298   21.3163    3.5765 H       1  LIG1        0.0660
    101 H          13.2115   19.4367    4.6212 H       1  LIG1        0.0669
@<TRIPOS>BOND
     1     8     6    1
     2    75    74    1
     3    14    15    3
     4    78    77    1
     5    74    69    1
     6    77    76    3
     7    15     7    1
     8     6     3   ar
     9     6     7   ar
    10    84    85    3
    11    54    52    1
    12    53    52    1
    13     9     3    1
    14    35    34    1
    15    76    70    1
    16    69    70   ar
    17    69    68   ar
    18    52    47    1
    19     3     1   ar
    20     7     4   ar
    21    70    71   ar
    22    59    56    1
    23    63    64    3
    24    85    80    1
    25    34    27    1
    26    64    55    1
    27    66    65    1
    28    56    55   ar
    29    56    58   ar
    30    68    58    1
    31    68    72   ar
    32    55    57   ar
    33    48    46    1
    34    58    61   ar
    35    47    46   ar
    36    47    44   ar
    37    21    20    1
    38    71    72   ar
    39    71    79    1
    40    61    65    1
    41    61    60   ar
    42    57    60   ar
    43    57    44    1
    44    46    43   ar
    45    32    27   ar
    46    32    31   ar
    47    65    67    1
    48    72    73    1
    49    60    62    1
    50    44    42   ar
    51    80    79   ar
    52    80    81   ar
    53     1     2   ar
    54     1    10    1
    55    27    28   ar
    56     4     2   ar
    57     4    16    1
    58    79    83   ar
    59    13    10    1
    60    87    86    1
    61    20    16   ar
    62    20    19   ar
    63    12    10    1
    64    43    31    1
    65    43    41   ar
    66     2     5    1
    67    10    11    1
    68    42    41   ar
    69    42    45    1
    70    31    30   ar
    71    16    17   ar
    72    81    86    1
    73    81    82   ar
    74    41    49    1
    75    86    88    1
    76    28    19    1
    77    28    29   ar
    78    83    82   ar
    79    19    18   ar
    80    51    49    1
    81    50    49    1
    82    82    89    1
    83    30    29   ar
    84    30    36    1
    85    17    18   ar
    86    17    22    1
    87    29    33    1
    88    18    25    1
    89    23    22    1
    90    98    97    1
    91    96    97    1
    92    96    90    1
    93    89    90   ar
    94    89    93   ar
    95    22    24    1
    96    36    37    1
    97    97    99    1
    98    97   100    1
    99    90    91   ar
   100    25    26    1
   101    94    93    1
   102    93    92   ar
   103    40    37    1
   104    37    38    1
   105    37    39    1
   106    91    92   ar
   107    91   101    1
   108    92    95    1
