@<TRIPOS>MOLECULE
mol_data/opt/m06hf/geoms/mol2/4id13fl-13de-13ae.out
 50 53 0 0 0
SMALL
GASTEIGER

@<TRIPOS>ATOM
      1 C          -0.1459    0.4397   -0.1944 C.ar    1  LIG1       -0.0498
      2 C           1.2262    0.2402   -0.0954 C.ar    1  LIG1       -0.0484
      3 C          -0.6429    1.7449   -0.3117 C.ar    1  LIG1       -0.0576
      4 C           2.1267    1.3125   -0.1009 C.ar    1  LIG1        0.0196
      5 H           1.6263   -0.7621   -0.0083 H       1  LIG1        0.0627
      6 C           0.2203    2.8259   -0.3114 C.ar    1  LIG1       -0.0435
      7 C           1.5986    2.6152   -0.1959 C.ar    1  LIG1        0.0610
      8 H          -0.1555    3.8372   -0.3889 H       1  LIG1        0.0631
      9 H          -1.7100    1.9085   -0.3978 H       1  LIG1        0.0621
     10 C          -1.1047   -0.7354   -0.1814 C.3     1  LIG1       -0.0397
     11 H          -0.5615   -1.6755   -0.1042 H       1  LIG1        0.0278
     12 H          -1.6985   -0.7437   -1.0964 H       1  LIG1        0.0278
     13 H          -1.7830   -0.6503    0.6689 H       1  LIG1        0.0278
     14 N           3.1649    4.6926   -0.1381 N.1     1  LIG1       -0.1908
     15 C           2.4571    3.7855   -0.1522 C.1     1  LIG1        0.0998
     16 C           3.5606    1.0506    0.0286 C.ar    1  LIG1        0.0940
     17 C           4.2474   -0.0001    0.6084 C.ar    1  LIG1        0.1851
     18 C           5.6317    0.3207    0.6125 C.ar    1  LIG1        0.1888
     19 C           5.7628    1.5641    0.0233 C.ar    1  LIG1        0.1106
     20 N           4.5115    1.9682   -0.3333 N.ar    1  LIG1       -0.3471
     21 H           4.3485    2.7542   -0.9440 H       1  LIG1        0.1662
     22 O           3.7127   -1.1199    1.1594 O.3     1  LIG1       -0.5019
     23 H           4.3684   -1.4911    1.7657 H       1  LIG1        0.2924
     24 O           6.5768   -0.4578    1.2019 O.3     1  LIG1       -0.4895
     25 C           7.0906   -1.4816    0.3348 C.3     1  LIG1        0.0791
     26 H           7.5479   -1.0302   -0.5435 H       1  LIG1        0.0660
     27 H           7.8413   -2.0157    0.9113 H       1  LIG1        0.0660
     28 H           6.2824   -2.1547    0.0398 H       1  LIG1        0.0660
     29 C           6.8056    2.5775   -0.0864 C.ar    1  LIG1        0.0859
     30 C           8.1495    2.5973   -0.3884 C.ar    1  LIG1        0.0945
     31 C           8.5729    3.9686   -0.4126 C.ar    1  LIG1        0.0693
     32 C           7.4589    4.7349   -0.1197 C.ar    1  LIG1        0.0802
     33 N           6.4168    3.8774    0.0774 N.ar    1  LIG1       -0.3498
     34 H           5.5109    4.1415    0.4470 H       1  LIG1        0.1661
     35 N           9.5800    0.5139   -0.9057 N.1     1  LIG1       -0.1908
     36 C           8.9510    1.4467   -0.6745 C.1     1  LIG1        0.1026
     37 C           9.8842    4.4460   -0.7185 C.1     1  LIG1       -0.0662
     38 C          10.9899    4.8366   -0.9796 C.1     1  LIG1       -0.1138
     39 H          11.9715    5.1751   -1.2176 H       1  LIG1        0.1232
     40 C           7.2640    6.1756   -0.0227 C.ar    1  LIG1        0.0653
     41 C           8.1638    7.1923    0.1919 C.ar    1  LIG1       -0.0195
     42 C           7.4185    8.4079    0.2091 C.ar    1  LIG1        0.0426
     43 C           6.0930    8.0783    0.0058 C.ar    1  LIG1        0.0177
     44 N           6.0094    6.7319   -0.1320 N.ar    1  LIG1       -0.3584
     45 H           5.1527    6.2341   -0.3399 H       1  LIG1        0.1654
     46 H           5.2252    8.7112   -0.0533 H       1  LIG1        0.0819
     47 H           9.2248    7.0805    0.3322 H       1  LIG1        0.0651
     48 C           7.9278    9.7343    0.4080 C.1     1  LIG1       -0.0682
     49 C           8.3571   10.8444    0.5766 C.1     1  LIG1       -0.1139
     50 H           8.7387   11.8270    0.7287 H       1  LIG1        0.1232
@<TRIPOS>BOND
     1    39    38    1
     2    12    10    1
     3    38    37    3
     4    21    20    1
     5    35    36    3
     6    37    31    1
     7    36    30    1
     8    26    25    1
     9    31    30   ar
    10    31    32   ar
    11     9     3    1
    12     8     6    1
    13    30    29   ar
    14    45    44    1
    15    20    19   ar
    16    20    16   ar
    17     3     6   ar
    18     3     1   ar
    19     6     7   ar
    20     7    15    1
    21     7     4   ar
    22     1    10    1
    23     1     2   ar
    24    10    11    1
    25    10    13    1
    26    15    14    3
    27    44    40   ar
    28    44    43   ar
    29    32    40    1
    30    32    33   ar
    31     4     2   ar
    32     4    16    1
    33     2     5    1
    34    29    19    1
    35    29    33   ar
    36    46    43    1
    37    40    41   ar
    38    43    42   ar
    39    19    18   ar
    40    16    17   ar
    41    28    25    1
    42    33    34    1
    43    41    42   ar
    44    41    47    1
    45    42    48    1
    46    25    27    1
    47    25    24    1
    48    48    49    3
    49    49    50    1
    50    17    18   ar
    51    17    22    1
    52    18    24    1
    53    22    23    1
