@<TRIPOS>MOLECULE
mol_data/opt/m06hf/geoms/mol2/4id12fh12hh13hd-12ld-4af-13ae13il-.out
 96 103 0 0 0
SMALL
GASTEIGER

@<TRIPOS>ATOM
      1 C          -0.1505    0.1801   -1.5071 C.ar    1  LIG1       -0.0497
      2 C           1.1856    0.1822   -1.1185 C.ar    1  LIG1       -0.0468
      3 C          -0.9470    1.2964   -1.2163 C.ar    1  LIG1       -0.0576
      4 C           1.7508    1.2580   -0.4173 C.ar    1  LIG1        0.0386
      5 H           1.8246   -0.6459   -1.4033 H       1  LIG1        0.0628
      6 C          -0.4077    2.3813   -0.5424 C.ar    1  LIG1       -0.0434
      7 C           0.9303    2.3587   -0.1325 C.ar    1  LIG1        0.0625
      8 H          -1.0156    3.2480   -0.3175 H       1  LIG1        0.0631
      9 H          -1.9846    1.3265   -1.5340 H       1  LIG1        0.0621
     10 C          -0.7403   -0.9874   -2.2742 C.3     1  LIG1       -0.0397
     11 H          -0.0231   -1.8026   -2.3571 H       1  LIG1        0.0278
     12 H          -1.0229   -0.6642   -3.2773 H       1  LIG1        0.0278
     13 H          -1.6358   -1.3508   -1.7687 H       1  LIG1        0.0278
     14 N           1.6927    4.4230    1.2448 N.1     1  LIG1       -0.1908
     15 C           1.4071    3.4973    0.6257 C.1     1  LIG1        0.0999
     16 C           3.1537    1.2047   -0.0197 C.ar    1  LIG1        0.1802
     17 C           3.9983    0.1625    0.2246 C.ar    1  LIG1        0.1846
     18 C           5.2775    0.7164    0.5524 C.ar    1  LIG1        0.1169
     19 C           5.1096    2.0757    0.5040 C.ar    1  LIG1        0.1967
     20 O           3.8401    2.3659    0.1656 O.2     1  LIG1       -0.4459
     21 O           3.7696   -1.1759    0.1967 O.3     1  LIG1       -0.5020
     22 H           2.8477   -1.3598    0.4143 H       1  LIG1        0.2924
     23 N           6.4675   -0.0043    0.8564 N.pl3   1  LIG1       -0.3521
     24 H           6.3052   -0.6342    1.6386 H       1  LIG1        0.1425
     25 H           6.7442   -0.5741    0.0605 H       1  LIG1        0.1425
     26 C           5.9946    3.1952    0.7235 C.ar    1  LIG1        0.1950
     27 C           7.3079    3.3023    1.0923 C.ar    1  LIG1        0.0958
     28 C           7.6052    4.7157    1.0768 C.ar    1  LIG1        0.0942
     29 C           6.4483    5.3496    0.7215 C.ar    1  LIG1        0.1761
     30 O           5.4755    4.4448    0.5085 O.2     1  LIG1       -0.4463
     31 N           8.1963    2.3256    1.4875 N.pl3   1  LIG1       -0.3535
     32 H           7.8769    1.3746    1.3029 H       1  LIG1        0.1425
     33 H           9.1594    2.5088    1.2452 H       1  LIG1        0.1425
     34 N           8.8592    5.3212    1.3725 N.pl3   1  LIG1       -0.3535
     35 H           9.1752    5.0656    2.3049 H       1  LIG1        0.1425
     36 H           9.5719    5.0516    0.6993 H       1  LIG1        0.1425
     37 C           6.0571    6.7270    0.5113 C.ar    1  LIG1        0.1067
     38 C           6.7427    7.9322    0.6015 C.ar    1  LIG1        0.0716
     39 C           5.8196    8.9419    0.1901 C.ar    1  LIG1        0.1014
     40 C           4.6151    8.3180   -0.1191 C.ar    1  LIG1        0.1058
     41 N           4.7736    7.0005    0.0867 N.ar    1  LIG1       -0.3467
     42 H           4.0556    6.2964   -0.0320 H       1  LIG1        0.1662
     43 N           8.0160    8.1567    1.0570 N.pl3   1  LIG1       -0.3552
     44 H           8.5933    7.3269    1.1695 H       1  LIG1        0.1424
     45 H           8.4664    8.9966    0.7264 H       1  LIG1        0.1424
     46 N           6.3661   11.4604    0.1765 N.1     1  LIG1       -0.1907
     47 C           6.0975   10.3422    0.1682 C.1     1  LIG1        0.1033
     48 C           3.3478    8.8404   -0.5927 C.ar    1  LIG1        0.1958
     49 C           2.9699    9.9386   -1.3017 C.ar    1  LIG1        0.1852
     50 C           1.5513    9.7782   -1.5439 C.ar    1  LIG1        0.1396
     51 C           1.1914    8.5855   -0.9788 C.ar    1  LIG1        0.1569
     52 O           2.2736    8.0317   -0.4085 O.2     1  LIG1       -0.4482
     53 O           3.7712   10.9200   -1.7472 O.3     1  LIG1       -0.4901
     54 C           3.5367   12.2093   -1.1591 C.3     1  LIG1        0.0790
     55 H           4.2954   12.8625   -1.5783 H       1  LIG1        0.0660
     56 H           2.5379   12.5620   -1.4204 H       1  LIG1        0.0660
     57 H           3.6606   12.1452   -0.0784 H       1  LIG1        0.0660
     58 N           0.0204   11.3885   -2.8529 N.1     1  LIG1       -0.1906
     59 C           0.6996   10.6717   -2.2671 C.1     1  LIG1        0.1067
     60 C          -1.0687    7.8767   -1.8262 C.ar    1  LIG1       -0.0502
     61 C          -2.1120    6.9639   -1.7646 C.ar    1  LIG1       -0.0485
     62 C          -0.0378    7.7898   -0.8874 C.ar    1  LIG1        0.0222
     63 C          -2.1558    5.9515   -0.7973 C.ar    1  LIG1        0.0398
     64 H          -2.9008    7.0110   -2.5032 H       1  LIG1        0.0625
     65 C          -0.1056    6.8514    0.1399 C.ar    1  LIG1       -0.0088
     66 C          -1.1585    5.9518    0.1894 C.ar    1  LIG1        0.1266
     67 H           0.6837    6.7923    0.8787 H       1  LIG1        0.0661
     68 H          -1.0384    8.6185   -2.6129 H       1  LIG1        0.0625
     69 O          -1.2161    5.0169    1.1893 O.3     1  LIG1       -0.5061
     70 H          -0.3581    4.9577    1.6344 H       1  LIG1        0.2922
     71 C          -3.1532    4.8720   -0.8988 C.ar    1  LIG1        0.0517
     72 C          -3.9232    4.4901   -1.9795 C.ar    1  LIG1       -0.0202
     73 C          -4.6213    3.3073   -1.6105 C.ar    1  LIG1        0.0519
     74 C          -4.2560    3.0030   -0.3049 C.ar    1  LIG1        0.0793
     75 N          -3.3792    3.9583    0.1006 N.ar    1  LIG1       -0.3519
     76 H          -2.9782    4.0350    1.0258 H       1  LIG1        0.1660
     77 H          -3.9577    4.9594   -2.9478 H       1  LIG1        0.0651
     78 C          -5.4823    2.5196   -2.4430 C.1     1  LIG1       -0.0675
     79 C          -6.1951    1.8662   -3.1583 C.1     1  LIG1       -0.1138
     80 H          -6.8254    1.2892   -3.7943 H       1  LIG1        0.1232
     81 C          -4.6148    1.8750    0.5527 C.ar    1  LIG1        0.0706
     82 C          -5.8466    1.3361    0.8554 C.ar    1  LIG1        0.0179
     83 C          -5.5856    0.2711    1.7670 C.ar    1  LIG1        0.1408
     84 C          -4.2316    0.1949    1.9857 C.ar    1  LIG1        0.0447
     85 N          -3.6504    1.1854    1.2468 N.ar    1  LIG1       -0.3562
     86 H          -2.6586    1.3232    1.1276 H       1  LIG1        0.1655
     87 H          -3.6650   -0.4688    2.6145 H       1  LIG1        0.0844
     88 C          -7.2036    1.8042    0.3989 C.3     1  LIG1       -0.0342
     89 H          -7.9319    1.6082    1.1869 H       1  LIG1        0.0279
     90 H          -7.5122    1.2881   -0.5117 H       1  LIG1        0.0279
     91 H          -7.1804    2.8731    0.1852 H       1  LIG1        0.0279
     92 O          -6.5330   -0.5169    2.3610 O.3     1  LIG1       -0.4933
     93 C          -7.0459   -1.5237    1.4979 C.3     1  LIG1        0.0789
     94 H          -7.7985   -2.0666    2.0656 H       1  LIG1        0.0660
     95 H          -7.5004   -1.0770    0.6111 H       1  LIG1        0.0660
     96 H          -6.2446   -2.2006    1.1922 H       1  LIG1        0.0660
@<TRIPOS>BOND
     1    80    79    1
     2    12    10    1
     3    79    78    3
     4    77    72    1
     5    58    59    3
     6    68    60    1
     7    64    61    1
     8    78    73    1
     9    11    10    1
    10    10    13    1
    11    10     1    1
    12    59    50    1
    13    72    73   ar
    14    72    71   ar
    15    60    61   ar
    16    60    62   ar
    17    61    63   ar
    18    53    49    1
    19    53    54    1
    20    73    74   ar
    21    55    54    1
    22    50    49   ar
    23    50    51   ar
    24     9     3    1
    25     1     3   ar
    26     1     2   ar
    27    56    54    1
    28     5     2    1
    29    49    48   ar
    30     3     6   ar
    31    54    57    1
    32     2     4   ar
    33    51    62    1
    34    51    52   ar
    35    71    63    1
    36    71    75   ar
    37    62    65   ar
    38    63    66   ar
    39    48    52   ar
    40    48    40    1
    41     6     8    1
    42     6     7   ar
    43    90    88    1
    44     4     7   ar
    45     4    16    1
    46    74    75   ar
    47    74    81    1
    48     7    15    1
    49    40    41   ar
    50    40    39   ar
    51    42    41    1
    52    16    20   ar
    53    16    17   ar
    54    25    23    1
    55    41    37   ar
    56    75    76    1
    57    65    66   ar
    58    65    67    1
    59    20    19   ar
    60    47    46    3
    61    47    39    1
    62    91    88    1
    63    66    69    1
    64    39    38   ar
    65    21    17    1
    66    21    22    1
    67    17    18   ar
    68    88    82    1
    69    88    89    1
    70    19    18   ar
    71    19    26    1
    72    30    29   ar
    73    30    26   ar
    74    37    38   ar
    75    37    29    1
    76    18    23    1
    77    81    82   ar
    78    81    85   ar
    79    38    43    1
    80    95    93    1
    81    15    14    3
    82    36    34    1
    83    29    28   ar
    84    26    27   ar
    85    45    43    1
    86    82    83   ar
    87    23    24    1
    88    43    44    1
    89    28    27   ar
    90    28    34    1
    91    27    31    1
    92    86    85    1
    93    69    70    1
    94    96    93    1
    95    33    31    1
    96    85    84   ar
    97    32    31    1
    98    34    35    1
    99    93    94    1
   100    93    92    1
   101    83    84   ar
   102    83    92    1
   103    84    87    1
