@<TRIPOS>MOLECULE
mol_data/opt/m06hf/geoms/mol2/4ie.out
 17 17 0 0 0
SMALL
GASTEIGER

@<TRIPOS>ATOM
      1 C           0.0960    0.0531    0.0155 C.ar    1  LIG1       -0.0504
      2 C           1.4923    0.0514    0.0128 C.ar    1  LIG1       -0.0577
      3 C          -0.5705    1.2801    0.0127 C.ar    1  LIG1       -0.0577
      4 C           2.2096    1.2413    0.0037 C.ar    1  LIG1       -0.0461
      5 H           2.0243   -0.8924    0.0198 H       1  LIG1        0.0621
      6 C           0.1343    2.4775    0.0035 C.ar    1  LIG1       -0.0461
      7 C           1.5320    2.4639   -0.0013 C.ar    1  LIG1        0.0247
      8 H          -0.3866    3.4253    0.0034 H       1  LIG1        0.0630
      9 H           3.2911    1.2347    0.0036 H       1  LIG1        0.0630
     10 H          -1.6537    1.2984    0.0195 H       1  LIG1        0.0621
     11 C          -0.6808   -1.2510   -0.0065 C.3     1  LIG1       -0.0397
     12 H          -0.1199   -2.0396    0.4945 H       1  LIG1        0.0278
     13 H          -0.8640   -1.5604   -1.0377 H       1  LIG1        0.0278
     14 H          -1.6420   -1.1330    0.4930 H       1  LIG1        0.0278
     15 C           2.2716    3.7055   -0.0075 C.1     1  LIG1       -0.0697
     16 C           2.8867    4.7381   -0.0128 C.1     1  LIG1       -0.1139
     17 H           3.4310    5.6538   -0.0184 H       1  LIG1        0.1232
@<TRIPOS>BOND
     1    13    11    1
     2    17    16    1
     3    16    15    3
     4    15     7    1
     5    11     1    1
     6    11    14    1
     7    11    12    1
     8     7     6   ar
     9     7     4   ar
    10     8     6    1
    11     6     3   ar
    12     9     4    1
    13     4     2   ar
    14     3     1   ar
    15     3    10    1
    16     2     1   ar
    17     2     5    1
