@<TRIPOS>MOLECULE
mol_data/opt/m06hf/geoms/mol2/4ie12df-4ii-4dh-.out
 55 58 0 0 0
SMALL
GASTEIGER

@<TRIPOS>ATOM
      1 C           0.0405   -0.1205    0.5673 C.ar    1  LIG1       -0.0497
      2 C           1.2752    0.0637   -0.0442 C.ar    1  LIG1       -0.0469
      3 C          -0.2976    0.7037    1.6440 C.ar    1  LIG1       -0.0576
      4 C           2.1736    1.0391    0.3997 C.ar    1  LIG1        0.0343
      5 H           1.5444   -0.5611   -0.8866 H       1  LIG1        0.0628
      6 C           0.5767    1.6825    2.0901 C.ar    1  LIG1       -0.0454
      7 C           1.8231    1.8695    1.4812 C.ar    1  LIG1        0.0354
      8 H           0.3129    2.3197    2.9231 H       1  LIG1        0.0630
      9 H          -1.2556    0.5768    2.1348 H       1  LIG1        0.0621
     10 C          -0.9276   -1.1782    0.0718 C.3     1  LIG1       -0.0397
     11 H          -0.4598   -1.8027   -0.6879 H       1  LIG1        0.0278
     12 H          -1.8119   -0.7052   -0.3586 H       1  LIG1        0.0278
     13 H          -1.2457   -1.8133    0.8996 H       1  LIG1        0.0278
     14 C           2.6803    2.9060    2.0117 C.1     1  LIG1       -0.0690
     15 C           3.3539    3.7841    2.4806 C.1     1  LIG1       -0.1139
     16 H           3.9761    4.5635    2.8617 H       1  LIG1        0.1232
     17 C           3.4742    1.1618   -0.2785 C.ar    1  LIG1        0.1579
     18 C           4.2234    0.2969   -1.0401 C.ar    1  LIG1        0.1394
     19 C           5.4198    1.0096   -1.3936 C.ar    1  LIG1        0.1810
     20 C           5.3278    2.2357   -0.8096 C.ar    1  LIG1        0.1785
     21 O           4.1321    2.3138   -0.1686 O.2     1  LIG1       -0.4497
     22 N           3.6441   -2.1163   -1.7400 N.1     1  LIG1       -0.1906
     23 C           3.9095   -1.0455   -1.4214 C.1     1  LIG1        0.1067
     24 O           6.3904    0.4875   -2.1763 O.3     1  LIG1       -0.5023
     25 H           6.9243    1.1979   -2.5500 H       1  LIG1        0.2923
     26 C           7.5564    3.3720   -0.5169 C.ar    1  LIG1       -0.0391
     27 C           8.2417    4.5811   -0.3866 C.ar    1  LIG1       -0.0501
     28 C           6.1764    3.4376   -0.7494 C.ar    1  LIG1        0.0242
     29 C           7.5926    5.8111   -0.4546 C.ar    1  LIG1       -0.0134
     30 H           9.3042    4.5663   -0.1708 H       1  LIG1        0.0627
     31 C           5.5298    4.6755   -0.8469 C.ar    1  LIG1       -0.0472
     32 C           6.2128    5.8753   -0.7029 C.ar    1  LIG1       -0.0420
     33 H           4.4602    4.6870   -1.0202 H       1  LIG1        0.0627
     34 C           8.3012    2.0621   -0.3266 C.3     1  LIG1       -0.0390
     35 H           9.1388    2.2182    0.3523 H       1  LIG1        0.0278
     36 H           8.7049    1.6839   -1.2691 H       1  LIG1        0.0278
     37 H           7.6431    1.3020    0.0944 H       1  LIG1        0.0278
     38 C           5.4682    7.1944   -0.8040 C.3     1  LIG1       -0.0391
     39 H           4.5846    7.0691   -1.4292 H       1  LIG1        0.0278
     40 H           6.1044    7.9652   -1.2394 H       1  LIG1        0.0278
     41 H           5.1488    7.5222    0.1871 H       1  LIG1        0.0278
     42 C           8.1736    7.7910    0.9803 C.ar    1  LIG1        0.0596
     43 C           8.9344    8.9338    1.2355 C.ar    1  LIG1       -0.0420
     44 C           8.3866    7.0513   -0.1930 C.ar    1  LIG1        0.0015
     45 C           9.9040    9.3447    0.3382 C.ar    1  LIG1       -0.0398
     46 H           8.7637    9.4925    2.1458 H       1  LIG1        0.0631
     47 C           9.3625    7.4663   -1.0872 C.ar    1  LIG1       -0.0321
     48 C          10.1346    8.6131   -0.8382 C.ar    1  LIG1        0.0252
     49 H           9.5180    6.8974   -1.9959 H       1  LIG1        0.0642
     50 H          10.4874   10.2339    0.5399 H       1  LIG1        0.0636
     51 N           6.3821    7.0239    2.6942 N.1     1  LIG1       -0.1909
     52 C           7.1803    7.3581    1.9385 C.1     1  LIG1        0.0998
     53 N          11.0702    9.0351   -1.7543 N.pl3   1  LIG1       -0.3579
     54 H          11.7712    9.6886   -1.4438 H       1  LIG1        0.1423
     55 H          11.3809    8.3740   -2.4480 H       1  LIG1        0.1423
@<TRIPOS>BOND
     1    25    24    1
     2    55    53    1
     3    24    19    1
     4    49    47    1
     5    53    54    1
     6    53    48    1
     7    22    23    3
     8    39    38    1
     9    23    18    1
    10    19    18   ar
    11    19    20   ar
    12    36    34    1
    13    40    38    1
    14    47    48   ar
    15    47    44   ar
    16    18    17   ar
    17    33    31    1
    18     5     2    1
    19    31    28   ar
    20    31    32   ar
    21    48    45   ar
    22    20    28    1
    23    20    21   ar
    24    38    32    1
    25    38    41    1
    26    28    26   ar
    27    32    29   ar
    28    11    10    1
    29    26    27   ar
    30    26    34    1
    31    29    27   ar
    32    29    44    1
    33    27    30    1
    34    12    10    1
    35    34    37    1
    36    34    35    1
    37    17    21   ar
    38    17     4    1
    39    44    42   ar
    40     2     4   ar
    41     2     1   ar
    42    10     1    1
    43    10    13    1
    44    45    50    1
    45    45    43   ar
    46     4     7   ar
    47     1     3   ar
    48    42    43   ar
    49    42    52    1
    50    43    46    1
    51     7    14    1
    52     7     6   ar
    53     3     6   ar
    54     3     9    1
    55    52    51    3
    56    14    15    3
    57     6     8    1
    58    15    16    1
