@<TRIPOS>MOLECULE
mol_data/opt/m06hf/geoms/mol2/4ie12ef-6ih4la.out
 55 58 0 0 0
SMALL
GASTEIGER

@<TRIPOS>ATOM
      1 C           0.0180   -0.1720    0.5774 C.ar    1  LIG1       -0.0497
      2 C           1.3913    0.0246    0.4870 C.ar    1  LIG1       -0.0469
      3 C          -0.8318    0.7900    0.0236 C.ar    1  LIG1       -0.0576
      4 C           1.9300    1.1473   -0.1494 C.ar    1  LIG1        0.0342
      5 H           2.0681   -0.6992    0.9231 H       1  LIG1        0.0628
      6 C          -0.3154    1.9112   -0.6066 C.ar    1  LIG1       -0.0454
      7 C           1.0674    2.1061   -0.7066 C.ar    1  LIG1        0.0354
      8 H          -0.9730    2.6525   -1.0395 H       1  LIG1        0.0630
      9 H          -1.9053    0.6570    0.0889 H       1  LIG1        0.0621
     10 C          -0.5553   -1.3976    1.2639 C.3     1  LIG1       -0.0397
     11 H           0.2389   -2.0005    1.7013 H       1  LIG1        0.0278
     12 H          -1.1019   -2.0088    0.5436 H       1  LIG1        0.0278
     13 H          -1.2453   -1.0996    2.0546 H       1  LIG1        0.0278
     14 C           1.5348    3.2789   -1.4094 C.1     1  LIG1       -0.0690
     15 C           1.8614    4.2647   -2.0153 C.1     1  LIG1       -0.1139
     16 H           2.1709    5.1335   -2.5495 H       1  LIG1        0.1232
     17 C           3.3934    1.2851   -0.2034 C.ar    1  LIG1        0.1559
     18 C           4.4022    0.3535   -0.2193 C.ar    1  LIG1        0.1124
     19 C           5.6214    1.1127   -0.2388 C.ar    1  LIG1        0.1791
     20 C           5.2703    2.4285   -0.2446 C.ar    1  LIG1        0.1799
     21 O           3.9167    2.5181   -0.2084 O.2     1  LIG1       -0.4497
     22 C           4.3085   -1.0730   -0.2346 C.1     1  LIG1       -0.0622
     23 C           4.2522   -2.2733   -0.2425 C.1     1  LIG1       -0.1137
     24 H           4.2112   -3.3378   -0.2594 H       1  LIG1        0.1232
     25 O           6.8561    0.5564   -0.2435 O.3     1  LIG1       -0.5024
     26 H           7.4974    1.1922    0.0994 H       1  LIG1        0.2923
     27 C           5.7652    4.8079    0.4286 C.ar    1  LIG1        0.0498
     28 C           6.1028    3.6355   -0.2714 C.ar    1  LIG1        0.0437
     29 C           7.2931    3.6032   -0.9933 C.ar    1  LIG1       -0.0264
     30 C           8.1529    4.7026   -0.9891 C.ar    1  LIG1        0.0517
     31 C           7.7545    5.8126   -0.2210 C.ar    1  LIG1        0.0953
     32 N           6.5908    5.8481    0.4268 N.ar    1  LIG1       -0.2492
     33 H           7.5413    2.7302   -1.5886 H       1  LIG1        0.0644
     34 C           4.4759    4.9518    1.2116 C.3     1  LIG1       -0.0216
     35 H           4.3540    4.1166    1.9035 H       1  LIG1        0.0293
     36 H           3.6148    4.9588    0.5420 H       1  LIG1        0.0293
     37 H           4.5291    5.8869    1.7642 H       1  LIG1        0.0293
     38 N           9.3353    4.6742   -1.7199 N.pl3   1  LIG1       -0.3563
     39 H           9.2730    4.1666   -2.5914 H       1  LIG1        0.1424
     40 H           9.7812    5.5762   -1.8252 H       1  LIG1        0.1424
     41 C           9.9128    7.0331    0.2757 C.ar    1  LIG1        0.1293
     42 C          10.6574    8.2127    0.3280 C.ar    1  LIG1       -0.0193
     43 C           8.5763    7.0599   -0.1552 C.ar    1  LIG1        0.0438
     44 C          10.0575    9.4209   -0.0219 C.ar    1  LIG1       -0.0583
     45 H          11.6870    8.2011    0.6556 H       1  LIG1        0.0654
     46 C           7.9934    8.2828   -0.4743 C.ar    1  LIG1       -0.0490
     47 C           8.7256    9.4657   -0.4159 C.ar    1  LIG1       -0.0609
     48 H           6.9510    8.2867   -0.7658 H       1  LIG1        0.0625
     49 H          10.6406   10.3314    0.0271 H       1  LIG1        0.0619
     50 O          10.3969    5.8203    0.6370 O.3     1  LIG1       -0.4945
     51 C          11.7594    5.7162    0.9955 C.3     1  LIG1        0.0788
     52 H          11.9345    4.6618    1.1879 H       1  LIG1        0.0660
     53 H          12.4020    6.0543    0.1779 H       1  LIG1        0.0660
     54 H          11.9676    6.2975    1.8971 H       1  LIG1        0.0660
     55 H           8.2616   10.4075   -0.6742 H       1  LIG1        0.0618
@<TRIPOS>BOND
     1    39    38    1
     2    16    15    1
     3    15    14    3
     4    40    38    1
     5    38    30    1
     6    33    29    1
     7    14     7    1
     8     8     6    1
     9    29    30   ar
    10    29    28   ar
    11    30    31   ar
    12    48    46    1
    13     7     6   ar
    14     7     4   ar
    15    55    47    1
    16     6     3   ar
    17    46    47   ar
    18    46    43   ar
    19    47    44   ar
    20    28    20    1
    21    28    27   ar
    22    24    23    1
    23    20    19   ar
    24    20    21   ar
    25    25    19    1
    26    25    26    1
    27    23    22    3
    28    19    18   ar
    29    22    18    1
    30    31    43    1
    31    31    32   ar
    32    18    17   ar
    33    21    17   ar
    34    17     4    1
    35    43    41   ar
    36     4     2   ar
    37    44    49    1
    38    44    42   ar
    39     3     9    1
    40     3     1   ar
    41    53    51    1
    42    41    42   ar
    43    41    50    1
    44    42    45    1
    45    32    27   ar
    46    27    34    1
    47     2     1   ar
    48     2     5    1
    49    36    34    1
    50    12    10    1
    51     1    10    1
    52    50    51    1
    53    51    52    1
    54    51    54    1
    55    34    37    1
    56    34    35    1
    57    10    11    1
    58    10    13    1
