@<TRIPOS>MOLECULE
mol_data/opt/m06hf/geoms/mol2/4ie13fh6ae-13hl.out
 53 56 0 0 0
SMALL
GASTEIGER

@<TRIPOS>ATOM
      1 C          -0.2214    0.0302    0.1921 C.ar    1  LIG1       -0.0498
      2 C           1.1549    0.0457    0.0143 C.ar    1  LIG1       -0.0484
      3 C          -0.8923    1.2385    0.4162 C.ar    1  LIG1       -0.0576
      4 C           1.8980    1.2373    0.0442 C.ar    1  LIG1        0.0176
      5 H           1.6839   -0.8827   -0.1579 H       1  LIG1        0.0627
      6 C          -0.1850    2.4256    0.4521 C.ar    1  LIG1       -0.0454
      7 C           1.2049    2.4421    0.2650 C.ar    1  LIG1        0.0339
      8 H          -0.6919    3.3661    0.6230 H       1  LIG1        0.0630
      9 H          -1.9658    1.2425    0.5602 H       1  LIG1        0.0621
     10 C          -0.9963   -1.2740    0.1537 C.3     1  LIG1       -0.0397
     11 H          -0.3309   -2.1101   -0.0547 H       1  LIG1        0.0278
     12 H          -1.7620   -1.2326   -0.6227 H       1  LIG1        0.0278
     13 H          -1.4888   -1.4464    1.1121 H       1  LIG1        0.0278
     14 C           1.8411    3.7413    0.3032 C.1     1  LIG1       -0.0690
     15 C           2.3091    4.8508    0.3499 C.1     1  LIG1       -0.1139
     16 H           2.7024    5.8409    0.3854 H       1  LIG1        0.1232
     17 C           3.3496    1.1463   -0.1558 C.ar    1  LIG1        0.0920
     18 C           4.1303    0.0625   -0.5248 C.ar    1  LIG1        0.1635
     19 C           5.4824    0.4687   -0.5627 C.ar    1  LIG1        0.0929
     20 C           5.5092    1.8126   -0.2212 C.ar    1  LIG1        0.0730
     21 N           4.2277    2.1930    0.0129 N.ar    1  LIG1       -0.3497
     22 H           3.9467    3.1008    0.3553 H       1  LIG1        0.1661
     23 O           3.7390   -1.1962   -0.8440 O.3     1  LIG1       -0.5031
     24 H           4.5433   -1.6416   -1.1577 H       1  LIG1        0.2923
     25 N           6.4931   -0.4442   -0.9801 N.pl3   1  LIG1       -0.3535
     26 H           7.0687   -0.0722   -1.7288 H       1  LIG1        0.1425
     27 H           7.0899   -0.7479   -0.2181 H       1  LIG1        0.1425
     28 C           6.4463    4.1087   -0.5343 C.ar    1  LIG1        0.0376
     29 C           6.6231    2.7670   -0.1684 C.ar    1  LIG1        0.0195
     30 C           7.8931    2.4032    0.2651 C.ar    1  LIG1       -0.0336
     31 C           8.9240    3.3435    0.2937 C.ar    1  LIG1        0.0527
     32 C           8.6606    4.6537   -0.1582 C.ar    1  LIG1        0.1043
     33 N           7.4169    5.0049   -0.5252 N.ar    1  LIG1       -0.2516
     34 H           8.0857    1.4026    0.6279 H       1  LIG1        0.0637
     35 H           5.4737    4.4555   -0.8682 H       1  LIG1        0.0836
     36 C          10.1811    2.9676    0.8854 C.1     1  LIG1       -0.0675
     37 C          11.2103    2.6368    1.4112 C.1     1  LIG1       -0.1138
     38 H          12.1297    2.3791    1.8841 H       1  LIG1        0.1232
     39 C           9.6407    5.7386   -0.2409 C.ar    1  LIG1        0.0907
     40 C          11.0201    5.8406   -0.4025 C.ar    1  LIG1        0.0940
     41 C          11.3064    7.2296   -0.5077 C.ar    1  LIG1        0.1585
     42 C          10.1240    7.9283   -0.4249 C.ar    1  LIG1        0.0463
     43 N           9.1353    7.0214   -0.2673 N.ar    1  LIG1       -0.3549
     44 H           8.1393    7.1820   -0.2625 H       1  LIG1        0.1655
     45 H           9.9428    8.9871   -0.4809 H       1  LIG1        0.0845
     46 N          12.0469    4.8954   -0.5044 N.pl3   1  LIG1       -0.3535
     47 H          11.7342    3.9475   -0.6568 H       1  LIG1        0.1425
     48 H          12.7288    5.1925   -1.1944 H       1  LIG1        0.1425
     49 O          12.5641    7.7334   -0.6938 O.3     1  LIG1       -0.4918
     50 C          13.3330    7.7334    0.5092 C.3     1  LIG1        0.0789
     51 H          14.3216    8.1026    0.2447 H       1  LIG1        0.0660
     52 H          12.8694    8.3931    1.2455 H       1  LIG1        0.0660
     53 H          13.3997    6.7199    0.9093 H       1  LIG1        0.0660
@<TRIPOS>BOND
     1    26    25    1
     2    48    46    1
     3    24    23    1
     4    25    19    1
     5    25    27    1
     6    35    28    1
     7    23    18    1
     8    49    41    1
     9    49    50    1
    10    47    46    1
    11    12    10    1
    12    19    18   ar
    13    19    20   ar
    14    28    33   ar
    15    28    29   ar
    16    33    32   ar
    17    18    17   ar
    18    41    42   ar
    19    41    40   ar
    20    46    40    1
    21    45    42    1
    22    42    43   ar
    23    40    39   ar
    24    43    44    1
    25    43    39   ar
    26    39    32    1
    27    20    29    1
    28    20    21   ar
    29    29    30   ar
    30    32    31   ar
    31     5     2    1
    32    17    21   ar
    33    17     4    1
    34    11    10    1
    35    21    22    1
    36     2     4   ar
    37     2     1   ar
    38     4     7   ar
    39    10     1    1
    40    10    13    1
    41     1     3   ar
    42    51    50    1
    43     7    14    1
    44     7     6   ar
    45    30    31   ar
    46    30    34    1
    47    31    36    1
    48    14    15    3
    49    15    16    1
    50     3     6   ar
    51     3     9    1
    52     6     8    1
    53    50    53    1
    54    50    52    1
    55    36    37    3
    56    37    38    1
