@<TRIPOS>MOLECULE
mol_data/opt/m06hf/geoms/mol2/4ie4ie-4ie.out
 47 49 0 0 0
SMALL
GASTEIGER

@<TRIPOS>ATOM
      1 C          -0.0840    0.1494   -0.5888 C.ar    1  LIG1       -0.0498
      2 C           1.3088    0.1582   -0.5442 C.ar    1  LIG1       -0.0499
      3 C          -0.7729    1.2710   -0.1192 C.ar    1  LIG1       -0.0576
      4 C           2.0208    1.2521   -0.0494 C.ar    1  LIG1       -0.0020
      5 H           1.8654   -0.6986   -0.9057 H       1  LIG1        0.0627
      6 C          -0.0862    2.3661    0.3833 C.ar    1  LIG1       -0.0455
      7 C           1.3128    2.3648    0.4258 C.ar    1  LIG1        0.0324
      8 H          -0.6194    3.2296    0.7570 H       1  LIG1        0.0630
      9 H          -1.8564    1.2822   -0.1437 H       1  LIG1        0.0621
     10 C          -0.8441   -1.0412   -1.1439 C.3     1  LIG1       -0.0397
     11 H          -0.1686   -1.8736   -1.3373 H       1  LIG1        0.0278
     12 H          -1.3374   -0.7688   -2.0787 H       1  LIG1        0.0278
     13 H          -1.6070   -1.3665   -0.4354 H       1  LIG1        0.0278
     14 C           2.0074    3.5029    0.9830 C.1     1  LIG1       -0.0691
     15 C           2.5669    4.4592    1.4506 C.1     1  LIG1       -0.1139
     16 H           3.0659    5.3008    1.8728 H       1  LIG1        0.1232
     17 C           4.2852    1.9991   -0.8856 C.ar    1  LIG1       -0.0421
     18 C           5.6740    1.8950   -0.8199 C.ar    1  LIG1       -0.0494
     19 C           3.5166    1.2066   -0.0183 C.ar    1  LIG1       -0.0126
     20 C           6.3152    1.0337    0.0701 C.ar    1  LIG1       -0.0019
     21 H           6.2851    2.4917   -1.4877 H       1  LIG1        0.0627
     22 C           4.1407    0.3388    0.8722 C.ar    1  LIG1       -0.0377
     23 C           5.5341    0.2476    0.9289 C.ar    1  LIG1        0.0330
     24 H           3.5428   -0.2631    1.5445 H       1  LIG1        0.0636
     25 C           3.6302    2.9407   -1.8778 C.3     1  LIG1       -0.0391
     26 H           4.3587    3.2722   -2.6169 H       1  LIG1        0.0278
     27 H           3.2330    3.8121   -1.3539 H       1  LIG1        0.0278
     28 H           2.8047    2.4423   -2.3877 H       1  LIG1        0.0278
     29 C           6.1496   -0.6403    1.8884 C.1     1  LIG1       -0.0690
     30 C           6.6490   -1.3851    2.6894 C.1     1  LIG1       -0.1139
     31 H           7.0975   -2.0350    3.4046 H       1  LIG1        0.1232
     32 C           8.5054   -0.1397   -0.3848 C.ar    1  LIG1       -0.0426
     33 C           9.9002   -0.1228   -0.3441 C.ar    1  LIG1       -0.0571
     34 C           7.8107    0.9793    0.1006 C.ar    1  LIG1       -0.0126
     35 C          10.6003    0.9685    0.1560 C.ar    1  LIG1       -0.0461
     36 H          10.4474   -0.9788   -0.7193 H       1  LIG1        0.0621
     37 C           8.5054    2.0806    0.5929 C.ar    1  LIG1       -0.0383
     38 C           9.9025    2.0822    0.6266 C.ar    1  LIG1        0.0253
     39 H           7.9599    2.9394    0.9616 H       1  LIG1        0.0636
     40 H          11.6818    0.9691    0.1791 H       1  LIG1        0.0630
     41 C           7.7658   -1.3361   -0.9526 C.3     1  LIG1       -0.0391
     42 H           6.9657   -1.0070   -1.6170 H       1  LIG1        0.0278
     43 H           7.3216   -1.9182   -0.1432 H       1  LIG1        0.0278
     44 H           8.4537   -1.9710   -1.5103 H       1  LIG1        0.0278
     45 C          10.6132    3.2293    1.1441 C.1     1  LIG1       -0.0696
     46 C          11.2013    4.1856    1.5737 C.1     1  LIG1       -0.1139
     47 H          11.7192    5.0349    1.9548 H       1  LIG1        0.1232
@<TRIPOS>BOND
     1    26    25    1
     2    28    25    1
     3    12    10    1
     4    25    27    1
     5    25    17    1
     6    42    41    1
     7    44    41    1
     8    21    18    1
     9    11    10    1
    10    10     1    1
    11    10    13    1
    12    41    32    1
    13    41    43    1
    14     5     2    1
    15    17    18   ar
    16    17    19   ar
    17    18    20   ar
    18    36    33    1
    19     1     2   ar
    20     1     3   ar
    21     2     4   ar
    22    32    33   ar
    23    32    34   ar
    24    33    35   ar
    25     9     3    1
    26     3     6   ar
    27     4    19    1
    28     4     7   ar
    29    19    22   ar
    30    20    34    1
    31    20    23   ar
    32    34    37   ar
    33    35    40    1
    34    35    38   ar
    35     6     7   ar
    36     6     8    1
    37     7    14    1
    38    37    38   ar
    39    37    39    1
    40    38    45    1
    41    22    23   ar
    42    22    24    1
    43    23    29    1
    44    14    15    3
    45    45    46    3
    46    15    16    1
    47    46    47    1
    48    29    30    3
    49    30    31    1
