@<TRIPOS>MOLECULE
mol_data/opt/m06hf/geoms/mol2/4ie4ie-4ie-4ie-.out
 62 65 0 0 0
SMALL
GASTEIGER

@<TRIPOS>ATOM
      1 C          -0.1063    2.3212    0.8913 C.ar    1  LIG1       -0.0498
      2 C           1.2839    2.2062    0.8469 C.ar    1  LIG1       -0.0499
      3 C          -0.8692    1.4940    0.0653 C.ar    1  LIG1       -0.0576
      4 C           1.9160    1.2916    0.0062 C.ar    1  LIG1       -0.0020
      5 H           1.8978    2.8430    1.4740 H       1  LIG1        0.0627
      6 C          -0.2605    0.5716   -0.7753 C.ar    1  LIG1       -0.0455
      7 C           1.1327    0.4623   -0.8111 C.ar    1  LIG1        0.0324
      8 H          -0.8525   -0.0731   -1.4105 H       1  LIG1        0.0630
      9 H          -1.9498    1.5718    0.0813 H       1  LIG1        0.0621
     10 C          -0.7721    3.3044    1.8361 C.3     1  LIG1       -0.0397
     11 H          -0.1275    4.1652    2.0116 H       1  LIG1        0.0278
     12 H          -0.9727    2.8227    2.7953 H       1  LIG1        0.0278
     13 H          -1.7180    3.6522    1.4216 H       1  LIG1        0.0278
     14 C           1.7515   -0.5121   -1.6802 C.1     1  LIG1       -0.0691
     15 C           2.2548   -1.3249   -2.4089 C.1     1  LIG1       -0.1139
     16 H           2.7054   -2.0501   -3.0458 H       1  LIG1        0.1232
     17 C           4.1559    1.6941   -1.0867 C.ar    1  LIG1       -0.0421
     18 C           5.5453    1.5940   -1.0328 C.ar    1  LIG1       -0.0494
     19 C           3.4107    1.2003   -0.0044 C.ar    1  LIG1       -0.0126
     20 C           6.2079    1.0258    0.0549 C.ar    1  LIG1       -0.0019
     21 H           6.1399    1.9780   -1.8540 H       1  LIG1        0.0627
     22 C           4.0563    0.6325    1.0888 C.ar    1  LIG1       -0.0377
     23 C           5.4501    0.5354    1.1275 C.ar    1  LIG1        0.0330
     24 H           3.4750    0.2452    1.9156 H       1  LIG1        0.0636
     25 C           3.4722    2.3288   -2.2821 C.3     1  LIG1       -0.0391
     26 H           2.7334    3.0607   -1.9523 H       1  LIG1        0.0278
     27 H           2.9581    1.5624   -2.8653 H       1  LIG1        0.0278
     28 H           4.2074    2.8236   -2.9157 H       1  LIG1        0.0278
     29 C           6.0897   -0.0863    2.2644 C.1     1  LIG1       -0.0690
     30 C           6.6100   -0.6026    3.2172 C.1     1  LIG1       -0.1139
     31 H           7.0744   -1.0670    4.0557 H       1  LIG1        0.1232
     32 C           8.4763    1.7516    0.8967 C.ar    1  LIG1       -0.0421
     33 C           9.8646    1.6365    0.8343 C.ar    1  LIG1       -0.0494
     34 C           7.7024    0.9422    0.0507 C.ar    1  LIG1       -0.0126
     35 C          10.4992    0.7519   -0.0369 C.ar    1  LIG1       -0.0019
     36 H          10.4797    2.2518    1.4810 H       1  LIG1        0.0627
     37 C           8.3209    0.0684   -0.8379 C.ar    1  LIG1       -0.0377
     38 C           9.7135   -0.0341   -0.8913 C.ar    1  LIG1        0.0330
     39 H           7.7188   -0.5429   -1.4976 H       1  LIG1        0.0636
     40 C           7.8292    2.7386    1.8490 C.3     1  LIG1       -0.0391
     41 H           7.4005    2.2081    2.7010 H       1  LIG1        0.0278
     42 H           7.0282    3.2809    1.3447 H       1  LIG1        0.0278
     43 H           8.5704    3.4507    2.2103 H       1  LIG1        0.0278
     44 C          10.3245   -0.9328   -1.8435 C.1     1  LIG1       -0.0690
     45 C          10.8232   -1.6816   -2.6412 C.1     1  LIG1       -0.1139
     46 H          11.2720   -2.3357   -3.3522 H       1  LIG1        0.1232
     47 C          12.6675   -0.4464    0.4443 C.ar    1  LIG1       -0.0426
     48 C          14.0625   -0.4550    0.4070 C.ar    1  LIG1       -0.0571
     49 C          11.9943    0.6766   -0.0616 C.ar    1  LIG1       -0.0126
     50 C          14.7827    0.6141   -0.1115 C.ar    1  LIG1       -0.0461
     51 H          14.5935   -1.3143    0.7984 H       1  LIG1        0.0621
     52 C          12.7091    1.7561   -0.5724 C.ar    1  LIG1       -0.0383
     53 C          14.1060    1.7318   -0.6029 C.ar    1  LIG1        0.0253
     54 H          12.1804    2.6182   -0.9581 H       1  LIG1        0.0636
     55 H          15.8640    0.5950   -0.1334 H       1  LIG1        0.0630
     56 C          11.9060   -1.6219    1.0263 C.3     1  LIG1       -0.0391
     57 H          11.4673   -2.2163    0.2225 H       1  LIG1        0.0278
     58 H          11.0991   -1.2717    1.6713 H       1  LIG1        0.0278
     59 H          12.5791   -2.2528    1.6062 H       1  LIG1        0.0278
     60 C          14.8386    2.8562   -1.1393 C.1     1  LIG1       -0.0696
     61 C          15.4441    3.7925   -1.5874 C.1     1  LIG1       -0.1139
     62 H          15.9781    4.6226   -1.9871 H       1  LIG1        0.1232
@<TRIPOS>BOND
     1    46    45    1
     2    16    15    1
     3    28    25    1
     4    27    25    1
     5    45    44    3
     6    15    14    3
     7    25    26    1
     8    25    17    1
     9    62    61    1
    10    21    18    1
    11    44    38    1
    12    14     7    1
    13    61    60    3
    14    39    37    1
    15     8     6    1
    16    60    53    1
    17    17    18   ar
    18    17    19   ar
    19    18    20   ar
    20    54    52    1
    21    38    37   ar
    22    38    35   ar
    23    37    34   ar
    24     7     6   ar
    25     7     4   ar
    26     6     3   ar
    27    53    52   ar
    28    53    50   ar
    29    52    49   ar
    30    55    50    1
    31    50    48   ar
    32    49    35    1
    33    49    47   ar
    34    35    33   ar
    35    19     4    1
    36    19    22   ar
    37     4     2   ar
    38    34    20    1
    39    34    32   ar
    40    20    23   ar
    41     3     9    1
    42     3     1   ar
    43    57    56    1
    44    48    47   ar
    45    48    51    1
    46    47    56    1
    47    33    32   ar
    48    33    36    1
    49     2     1   ar
    50     2     5    1
    51     1    10    1
    52    32    40    1
    53    56    59    1
    54    56    58    1
    55    22    23   ar
    56    22    24    1
    57    23    29    1
    58    42    40    1
    59    13    10    1
    60    10    11    1
    61    10    12    1
    62    40    43    1
    63    40    41    1
    64    29    30    3
    65    30    31    1
