@<TRIPOS>MOLECULE
mol_data/opt/m06hf/geoms/mol2/4ie4ie-.out
 32 33 0 0 0
SMALL
GASTEIGER

@<TRIPOS>ATOM
      1 C          -0.0150    0.2889    0.6076 C.ar    1  LIG1       -0.0498
      2 C           1.3797    0.2877    0.6283 C.ar    1  LIG1       -0.0499
      3 C          -0.6692    1.2920   -0.1106 C.ar    1  LIG1       -0.0576
      4 C           2.1243    1.2551   -0.0457 C.ar    1  LIG1       -0.0020
      5 H           1.9108   -0.4763    1.1847 H       1  LIG1        0.0627
      6 C           0.0518    2.2621   -0.7928 C.ar    1  LIG1       -0.0455
      7 C           1.4501    2.2511   -0.7678 C.ar    1  LIG1        0.0324
      8 H          -0.4553    3.0351   -1.3541 H       1  LIG1        0.0630
      9 H          -1.7521    1.3117   -0.1370 H       1  LIG1        0.0621
     10 C          -0.8040   -0.7900    1.3261 C.3     1  LIG1       -0.0397
     11 H          -0.2182   -1.2183    2.1385 H       1  LIG1        0.0278
     12 H          -1.0641   -1.5891    0.6288 H       1  LIG1        0.0278
     13 H          -1.7261   -0.3789    1.7371 H       1  LIG1        0.0278
     14 C           2.1835    3.2584   -1.4996 C.1     1  LIG1       -0.0691
     15 C           2.7809    4.1046   -2.1098 C.1     1  LIG1       -0.1139
     16 H           3.3164    4.8470   -2.6543 H       1  LIG1        0.1232
     17 C           4.3529    2.1433    0.7422 C.ar    1  LIG1       -0.0426
     18 C           5.7436    2.0313    0.7630 C.ar    1  LIG1       -0.0571
     19 C           3.6200    1.2024    0.0015 C.ar    1  LIG1       -0.0126
     20 C           6.4022    1.0194    0.0752 C.ar    1  LIG1       -0.0461
     21 H           6.3209    2.7481    1.3341 H       1  LIG1        0.0621
     22 C           4.2719    0.1796   -0.6812 C.ar    1  LIG1       -0.0383
     23 C           5.6656    0.0814   -0.6506 C.ar    1  LIG1        0.0253
     24 H           3.6964   -0.5416   -1.2468 H       1  LIG1        0.0636
     25 H           7.4809    0.9450    0.1007 H       1  LIG1        0.0630
     26 C           3.6563    3.2506    1.5093 C.3     1  LIG1       -0.0391
     27 H           2.7946    2.8560    2.0494 H       1  LIG1        0.0278
     28 H           3.3042    4.0174    0.8166 H       1  LIG1        0.0278
     29 H           4.3455    3.7044    2.2207 H       1  LIG1        0.0278
     30 C           6.3347   -0.9827   -1.3637 C.1     1  LIG1       -0.0696
     31 C           6.8912   -1.8673   -1.9571 C.1     1  LIG1       -0.1139
     32 H           7.3836   -2.6506   -2.4847 H       1  LIG1        0.1232
@<TRIPOS>BOND
     1    16    15    1
     2    32    31    1
     3    15    14    3
     4    31    30    3
     5    14     7    1
     6    30    23    1
     7     8     6    1
     8    24    22    1
     9     6     7   ar
    10     6     3   ar
    11     7     4   ar
    12    22    23   ar
    13    22    19   ar
    14    23    20   ar
    15     9     3    1
    16     3     1   ar
    17     4    19    1
    18     4     2   ar
    19    19    17   ar
    20    20    25    1
    21    20    18   ar
    22     1     2   ar
    23     1    10    1
    24     2     5    1
    25    12    10    1
    26    17    18   ar
    27    17    26    1
    28    18    21    1
    29    28    26    1
    30    10    13    1
    31    10    11    1
    32    26    27    1
    33    26    29    1
