@<TRIPOS>MOLECULE
mol_data/opt/m06hf/geoms/mol2/4ie4ie-4ie4ie.out
 62 65 0 0 0
SMALL
GASTEIGER

@<TRIPOS>ATOM
      1 C          -0.1897    0.3818   -0.9088 C.ar    1  LIG1       -0.0498
      2 C           1.2048    0.3814   -0.8687 C.ar    1  LIG1       -0.0499
      3 C          -0.8804    1.2360   -0.0467 C.ar    1  LIG1       -0.0576
      4 C           1.9125    1.2111    0.0002 C.ar    1  LIG1       -0.0020
      5 H           1.7630   -0.2743   -1.5275 H       1  LIG1        0.0627
      6 C          -0.1961    2.0657    0.8309 C.ar    1  LIG1       -0.0455
      7 C           1.2018    2.0600    0.8620 C.ar    1  LIG1        0.0324
      8 H          -0.7317    2.7201    1.5052 H       1  LIG1        0.0630
      9 H          -1.9638    1.2482   -0.0603 H       1  LIG1        0.0621
     10 C          -0.9389   -0.5036   -1.8871 C.3     1  LIG1       -0.0397
     11 H          -0.3374   -1.3702   -2.1597 H       1  LIG1        0.0278
     12 H          -1.1699    0.0559   -2.7959 H       1  LIG1        0.0278
     13 H          -1.8752   -0.8493   -1.4493 H       1  LIG1        0.0278
     14 C           1.8994    2.9138    1.7958 C.1     1  LIG1       -0.0691
     15 C           2.4684    3.6301    2.5757 C.1     1  LIG1       -0.1139
     16 H           2.9772    4.2558    3.2715 H       1  LIG1        0.1232
     17 C           4.1636    2.2250   -0.5268 C.ar    1  LIG1       -0.0421
     18 C           5.5537    2.1238   -0.5005 C.ar    1  LIG1       -0.0494
     19 C           3.4094    1.1711    0.0126 C.ar    1  LIG1       -0.0126
     20 C           6.2084    1.0162    0.0378 C.ar    1  LIG1       -0.0019
     21 H           6.1545    2.9223   -0.9208 H       1  LIG1        0.0627
     22 C           4.0468    0.0587    0.5517 C.ar    1  LIG1       -0.0377
     23 C           5.4418   -0.0276    0.5743 C.ar    1  LIG1        0.0330
     24 H           3.4593   -0.7461    0.9744 H       1  LIG1        0.0636
     25 C           3.4886    3.4403   -1.1321 C.3     1  LIG1       -0.0391
     26 H           3.0359    4.0446   -0.3436 H       1  LIG1        0.0278
     27 H           2.7014    3.1329   -1.8221 H       1  LIG1        0.0278
     28 H           4.2178    4.0458   -1.6691 H       1  LIG1        0.0278
     29 C           6.0746   -1.1834    1.1672 C.1     1  LIG1       -0.0690
     30 C           6.5890   -2.1518    1.6601 C.1     1  LIG1       -0.1139
     31 H           7.0488   -3.0042    2.1034 H       1  LIG1        0.1232
     32 C           8.4044    0.0953   -0.8052 C.ar    1  LIG1       -0.0421
     33 C           9.7982    0.1115   -0.7664 C.ar    1  LIG1       -0.0494
     34 C           7.7045    0.9695    0.0408 C.ar    1  LIG1       -0.0126
     35 C          10.5088    0.9639    0.0778 C.ar    1  LIG1       -0.0019
     36 H          10.3569   -0.5573   -1.4112 H       1  LIG1        0.0627
     37 C           8.3991    1.8395    0.8753 C.ar    1  LIG1       -0.0377
     38 C           9.7962    1.8463    0.9015 C.ar    1  LIG1        0.0330
     39 H           7.8537    2.5210    1.5151 H       1  LIG1        0.0636
     40 C           7.6728   -0.8378   -1.7505 C.3     1  LIG1       -0.0391
     41 H           8.3614   -1.2267   -2.4998 H       1  LIG1        0.0278
     42 H           6.8609   -0.3084   -2.2512 H       1  LIG1        0.0278
     43 H           7.2450   -1.6728   -1.1929 H       1  LIG1        0.0278
     44 C          10.4870    2.7799    1.7612 C.1     1  LIG1       -0.0690
     45 C          11.0526    3.5623    2.4779 C.1     1  LIG1       -0.1139
     46 H          11.5602    4.2595    3.1032 H       1  LIG1        0.1232
     47 C          12.7228    0.4129    1.1567 C.ar    1  LIG1       -0.0426
     48 C          14.1165    0.4041    1.0887 C.ar    1  LIG1       -0.0571
     49 C          12.0058    0.9393    0.0708 C.ar    1  LIG1       -0.0126
     50 C          14.7935    0.8976   -0.0198 C.ar    1  LIG1       -0.0461
     51 H          14.6808   -0.0037    1.9186 H       1  LIG1        0.0621
     52 C          12.6767    1.4253   -1.0476 C.ar    1  LIG1       -0.0383
     53 C          14.0730    1.4100   -1.1000 C.ar    1  LIG1        0.0253
     54 H          12.1143    1.8274   -1.8804 H       1  LIG1        0.0636
     55 H          15.8744    0.8839   -0.0601 H       1  LIG1        0.0630
     56 C          12.0080   -0.1421    2.3739 C.3     1  LIG1       -0.0391
     57 H          12.6956   -0.7415    2.9700 H       1  LIG1        0.0278
     58 H          11.1635   -0.7621    2.0703 H       1  LIG1        0.0278
     59 H          11.6275    0.6765    2.9878 H       1  LIG1        0.0278
     60 C          14.7599    1.9210   -2.2643 C.1     1  LIG1       -0.0696
     61 C          15.3277    2.3482   -3.2334 C.1     1  LIG1       -0.1139
     62 H          15.8282    2.7294   -4.0926 H       1  LIG1        0.1232
@<TRIPOS>BOND
     1    62    61    1
     2    61    60    3
     3    12    10    1
     4    41    40    1
     5    60    53    1
     6    42    40    1
     7    11    10    1
     8    10    13    1
     9    10     1    1
    10    54    52    1
    11    27    25    1
    12    40    43    1
    13    40    32    1
    14    28    25    1
    15     5     2    1
    16    36    33    1
    17    25    17    1
    18    25    26    1
    19    53    52   ar
    20    53    50   ar
    21    52    49   ar
    22    21    18    1
    23     1     2   ar
    24     1     3   ar
    25     2     4   ar
    26    32    33   ar
    27    32    34   ar
    28    33    35   ar
    29    17    18   ar
    30    17    19   ar
    31    18    20   ar
    32     9     3    1
    33    55    50    1
    34     3     6   ar
    35    50    48   ar
    36     4    19    1
    37     4     7   ar
    38    19    22   ar
    39    20    34    1
    40    20    23   ar
    41    34    37   ar
    42    49    35    1
    43    49    47   ar
    44    35    38   ar
    45    22    23   ar
    46    22    24    1
    47    23    29    1
    48     6     7   ar
    49     6     8    1
    50     7    14    1
    51    37    38   ar
    52    37    39    1
    53    38    44    1
    54    48    47   ar
    55    48    51    1
    56    47    56    1
    57    29    30    3
    58    30    31    1
    59    44    45    3
    60    14    15    3
    61    58    56    1
    62    56    57    1
    63    56    59    1
    64    45    46    1
    65    15    16    1
