@<TRIPOS>MOLECULE
mol_data/opt/m06hf/geoms/mol2/4ie4ie4ie4ie-.out
 62 65 0 0 0
SMALL
GASTEIGER

@<TRIPOS>ATOM
      1 C          -0.1816    1.6472   -0.9884 C.ar    1  LIG1       -0.0498
      2 C           1.2116    1.6292   -0.9594 C.ar    1  LIG1       -0.0499
      3 C          -0.8778    1.0436    0.0628 C.ar    1  LIG1       -0.0576
      4 C           1.9158    1.0262    0.0842 C.ar    1  LIG1       -0.0020
      5 H           1.7742    2.0875   -1.7645 H       1  LIG1        0.0627
      6 C          -0.1987    0.4437    1.1127 C.ar    1  LIG1       -0.0455
      7 C           1.2008    0.4312    1.1334 C.ar    1  LIG1        0.0324
      8 H          -0.7373   -0.0152    1.9305 H       1  LIG1        0.0630
      9 H          -1.9616    1.0480    0.0580 H       1  LIG1        0.0621
     10 C          -0.9353    2.2948   -2.1353 C.3     1  LIG1       -0.0397
     11 H          -0.2480    2.8028   -2.8103 H       1  LIG1        0.0278
     12 H          -1.6526    3.0226   -1.7533 H       1  LIG1        0.0278
     13 H          -1.4825    1.5378   -2.6995 H       1  LIG1        0.0278
     14 C           1.8905   -0.1770    2.2481 C.1     1  LIG1       -0.0691
     15 C           2.4461   -0.6901    3.1826 C.1     1  LIG1       -0.1139
     16 H           2.9418   -1.1365    4.0131 H       1  LIG1        0.1232
     17 C           4.1517   -0.1246   -0.1629 C.ar    1  LIG1       -0.0421
     18 C           5.5432   -0.0372   -0.1714 C.ar    1  LIG1       -0.0494
     19 C           3.4127    1.0448    0.0734 C.ar    1  LIG1       -0.0126
     20 C           6.2138    1.1664    0.0442 C.ar    1  LIG1       -0.0019
     21 H           6.1325   -0.9295   -0.3492 H       1  LIG1        0.0627
     22 C           4.0666    2.2571    0.2701 C.ar    1  LIG1       -0.0377
     23 C           5.4621    2.3295    0.2588 C.ar    1  LIG1        0.0330
     24 H           3.4903    3.1574    0.4402 H       1  LIG1        0.0636
     25 C           3.4634   -1.4531   -0.4112 C.3     1  LIG1       -0.0391
     26 H           4.1720   -2.1705   -0.8237 H       1  LIG1        0.0278
     27 H           2.6347   -1.3263   -1.1091 H       1  LIG1        0.0278
     28 H           3.0645   -1.8455    0.5260 H       1  LIG1        0.0278
     29 C           6.1105    3.6064    0.4521 C.1     1  LIG1       -0.0690
     30 C           6.6346    4.6763    0.6144 C.1     1  LIG1       -0.1139
     31 H           7.1022    5.6237    0.7509 H       1  LIG1        0.1232
     32 C           8.4410    1.3763    1.2121 C.ar    1  LIG1       -0.0421
     33 C           9.8333    1.3771    1.1362 C.ar    1  LIG1       -0.0494
     34 C           7.7100    1.1955    0.0279 C.ar    1  LIG1       -0.0126
     35 C          10.5127    1.2049   -0.0693 C.ar    1  LIG1       -0.0019
     36 H          10.4164    1.5170    2.0393 H       1  LIG1        0.0627
     37 C           8.3726    1.0039   -1.1804 C.ar    1  LIG1       -0.0377
     38 C           9.7685    1.0058   -1.2408 C.ar    1  LIG1        0.0330
     39 H           7.8028    0.8515   -2.0879 H       1  LIG1        0.0636
     40 C           7.7423    1.5621    2.5453 C.3     1  LIG1       -0.0391
     41 H           8.4430    1.3931    3.3623 H       1  LIG1        0.0278
     42 H           6.9079    0.8655    2.6372 H       1  LIG1        0.0278
     43 H           7.3485    2.5778    2.6186 H       1  LIG1        0.0278
     44 C          10.4252    0.7769   -2.5075 C.1     1  LIG1       -0.0690
     45 C          10.9584    0.5838   -3.5680 C.1     1  LIG1       -0.1139
     46 H          11.4365    0.4034   -4.5031 H       1  LIG1        0.1232
     47 C          12.7179    2.2838   -0.6550 C.ar    1  LIG1       -0.0426
     48 C          14.1125    2.2456   -0.6251 C.ar    1  LIG1       -0.0571
     49 C          12.0097    1.2133   -0.0856 C.ar    1  LIG1       -0.0126
     50 C          14.7985    1.1842   -0.0471 C.ar    1  LIG1       -0.0461
     51 H          14.6705    3.0673   -1.0573 H       1  LIG1        0.0621
     52 C          12.6899    0.1519    0.5045 C.ar    1  LIG1       -0.0383
     53 C          14.0870    0.1284    0.5262 C.ar    1  LIG1        0.0253
     54 H          12.1340   -0.6667    0.9430 H       1  LIG1        0.0636
     55 H          15.8799    1.1681   -0.0292 H       1  LIG1        0.0630
     56 C          11.9909    3.4595   -1.2794 C.3     1  LIG1       -0.0391
     57 H          11.1647    3.7773   -0.6417 H       1  LIG1        0.0278
     58 H          11.5817    3.1711   -2.2495 H       1  LIG1        0.0278
     59 H          12.6779    4.2940   -1.4174 H       1  LIG1        0.0278
     60 C          14.7846   -0.9788    1.1391 C.1     1  LIG1       -0.0696
     61 C          15.3611   -1.9013    1.6502 C.1     1  LIG1       -0.1139
     62 H          15.8685   -2.7207    2.1033 H       1  LIG1        0.1232
@<TRIPOS>BOND
     1    46    45    1
     2    45    44    3
     3    11    10    1
     4    13    10    1
     5    44    38    1
     6    58    56    1
     7    10    12    1
     8    10     1    1
     9    39    37    1
    10     5     2    1
    11    59    56    1
    12    56    47    1
    13    56    57    1
    14    38    37   ar
    15    38    35   ar
    16    37    34   ar
    17    27    25    1
    18    51    48    1
    19     1     2   ar
    20     1     3   ar
    21     2     4   ar
    22    26    25    1
    23    47    48   ar
    24    47    49   ar
    25    48    50   ar
    26    25    17    1
    27    25    28    1
    28    21    18    1
    29    18    17   ar
    30    18    20   ar
    31    17    19   ar
    32    49    35    1
    33    49    52   ar
    34    35    33   ar
    35    50    55    1
    36    50    53   ar
    37    34    20    1
    38    34    32   ar
    39    20    23   ar
    40     9     3    1
    41     3     6   ar
    42    19     4    1
    43    19    22   ar
    44     4     7   ar
    45    23    22   ar
    46    23    29    1
    47    22    24    1
    48    29    30    3
    49    52    53   ar
    50    52    54    1
    51    53    60    1
    52    30    31    1
    53     6     7   ar
    54     6     8    1
    55     7    14    1
    56    33    32   ar
    57    33    36    1
    58    60    61    3
    59    32    40    1
    60    61    62    1
    61    14    15    3
    62    40    43    1
    63    40    42    1
    64    40    41    1
    65    15    16    1
