@<TRIPOS>MOLECULE
mol_data/opt/m06hf/geoms/mol2/4ie4ie4ie-4ie.out
 62 65 0 0 0
SMALL
GASTEIGER

@<TRIPOS>ATOM
      1 C          -0.1651    1.3288   -1.2587 C.ar    1  LIG1       -0.0498
      2 C           1.2287    1.3194   -1.2025 C.ar    1  LIG1       -0.0499
      3 C          -0.8803    1.1466   -0.0733 C.ar    1  LIG1       -0.0576
      4 C           1.9115    1.1322   -0.0014 C.ar    1  LIG1       -0.0020
      5 H           1.8070    1.4525   -2.1098 H       1  LIG1        0.0627
      6 C          -0.2206    0.9649    1.1345 C.ar    1  LIG1       -0.0455
      7 C           1.1768    0.9553    1.1803 C.ar    1  LIG1        0.0324
      8 H          -0.7760    0.8284    2.0525 H       1  LIG1        0.0630
      9 H          -1.9636    1.1481   -0.0965 H       1  LIG1        0.0621
     10 C          -0.8889    1.5577   -2.5729 C.3     1  LIG1       -0.0397
     11 H          -0.2644    1.2556   -3.4131 H       1  LIG1        0.0278
     12 H          -1.1320    2.6161   -2.6861 H       1  LIG1        0.0278
     13 H          -1.8167    0.9866   -2.6018 H       1  LIG1        0.0278
     14 C           1.8518    0.7689    2.4443 C.1     1  LIG1       -0.0691
     15 C           2.4032    0.6109    3.5010 C.1     1  LIG1       -0.1139
     16 H           2.8978    0.4823    4.4359 H       1  LIG1        0.1232
     17 C           4.1183   -0.0775    0.1581 C.ar    1  LIG1       -0.0421
     18 C           5.5114   -0.0287    0.1457 C.ar    1  LIG1       -0.0494
     19 C           3.4087    1.1239    0.0108 C.ar    1  LIG1       -0.0126
     20 C           6.2117    1.1677   -0.0066 C.ar    1  LIG1       -0.0019
     21 H           6.0784   -0.9467    0.2485 H       1  LIG1        0.0627
     22 C           4.0918    2.3255   -0.1439 C.ar    1  LIG1       -0.0377
     23 C           5.4891    2.3603   -0.1487 C.ar    1  LIG1        0.0330
     24 H           3.5377    3.2494   -0.2471 H       1  LIG1        0.0636
     25 C           3.3924   -1.3980    0.3280 C.3     1  LIG1       -0.0391
     26 H           4.0826   -2.2283    0.1830 H       1  LIG1        0.0278
     27 H           2.5765   -1.4794   -0.3916 H       1  LIG1        0.0278
     28 H           2.9691   -1.4585    1.3327 H       1  LIG1        0.0278
     29 C           6.1682    3.6290   -0.2802 C.1     1  LIG1       -0.0690
     30 C           6.7191    4.6921   -0.3883 C.1     1  LIG1       -0.1139
     31 H           7.2128    5.6324   -0.4719 H       1  LIG1        0.1232
     32 C           8.4412    1.3936   -1.1744 C.ar    1  LIG1       -0.0421
     33 C           9.8333    1.3530   -1.1044 C.ar    1  LIG1       -0.0494
     34 C           7.7084    1.1568   -0.0011 C.ar    1  LIG1       -0.0126
     35 C          10.5107    1.0790    0.0833 C.ar    1  LIG1       -0.0019
     36 H          10.4179    1.5261   -2.0007 H       1  LIG1        0.0627
     37 C           8.3695    0.8767    1.1910 C.ar    1  LIG1       -0.0377
     38 C           9.7652    0.8384    1.2457 C.ar    1  LIG1        0.0330
     39 H           7.7978    0.6991    2.0927 H       1  LIG1        0.0636
     40 C           7.7455    1.6763   -2.4923 C.3     1  LIG1       -0.0391
     41 H           7.3664    2.6999   -2.4996 H       1  LIG1        0.0278
     42 H           6.9023    0.9979   -2.6284 H       1  LIG1        0.0278
     43 H           8.4437    1.5504   -3.3191 H       1  LIG1        0.0278
     44 C          10.4219    0.5630    2.5031 C.1     1  LIG1       -0.0690
     45 C          10.9566    0.3280    3.5544 C.1     1  LIG1       -0.1139
     46 H          11.4361    0.1299    4.4853 H       1  LIG1        0.1232
     47 C          12.7057   -0.1599    0.1992 C.ar    1  LIG1       -0.0426
     48 C          14.1005   -0.1251    0.1870 C.ar    1  LIG1       -0.0571
     49 C          12.0076    1.0532    0.0962 C.ar    1  LIG1       -0.0126
     50 C          14.7967    1.0723    0.0753 C.ar    1  LIG1       -0.0461
     51 H          14.6511   -1.0549    0.2612 H       1  LIG1        0.0621
     52 C          12.6977    2.2558   -0.0248 C.ar    1  LIG1       -0.0383
     53 C          14.0950    2.2743   -0.0334 C.ar    1  LIG1        0.0253
     54 H          12.1484    3.1849   -0.1050 H       1  LIG1        0.0636
     55 H          15.8783    1.0850    0.0657 H       1  LIG1        0.0630
     56 C          11.9663   -1.4789    0.3168 C.3     1  LIG1       -0.0391
     57 H          12.6477   -2.3090    0.1329 H       1  LIG1        0.0278
     58 H          11.1477   -1.5220   -0.4029 H       1  LIG1        0.0278
     59 H          11.5458   -1.5795    1.3195 H       1  LIG1        0.0278
     60 C          14.8049    3.5271   -0.1568 C.1     1  LIG1       -0.0696
     61 C          15.3973    4.5677   -0.2596 C.1     1  LIG1       -0.1139
     62 H          15.9216    5.4904   -0.3493 H       1  LIG1        0.1232
@<TRIPOS>BOND
     1    11    10    1
     2    43    40    1
     3    12    10    1
     4    42    40    1
     5    13    10    1
     6    10     1    1
     7    41    40    1
     8    40    32    1
     9     5     2    1
    10    36    33    1
    11     1     2   ar
    12     1     3   ar
    13     2     4   ar
    14    32    33   ar
    15    32    34   ar
    16    33    35   ar
    17    31    30    1
    18    58    56    1
    19    27    25    1
    20    30    29    3
    21    62    61    1
    22    29    23    1
    23    61    60    3
    24    24    22    1
    25    60    53    1
    26    23    22   ar
    27    23    20   ar
    28    22    19   ar
    29    54    52    1
    30     9     3    1
    31     3     6   ar
    32    53    52   ar
    33    53    50   ar
    34    52    49   ar
    35    20    34    1
    36    20    18   ar
    37     4    19    1
    38     4     7   ar
    39    34    37   ar
    40    19    17   ar
    41    55    50    1
    42    50    48   ar
    43    35    49    1
    44    35    38   ar
    45    49    47   ar
    46    57    56    1
    47    18    17   ar
    48    18    21    1
    49    17    25    1
    50    26    25    1
    51    48    47   ar
    52    48    51    1
    53    47    56    1
    54    56    59    1
    55    25    28    1
    56     6     7   ar
    57     6     8    1
    58     7    14    1
    59    37    38   ar
    60    37    39    1
    61    38    44    1
    62    14    15    3
    63    44    45    3
    64    15    16    1
    65    45    46    1
