@<TRIPOS>MOLECULE
mol_data/opt/m06hf/geoms/mol2/4ie4ie4ie4ie.out
 62 65 0 0 0
SMALL
GASTEIGER

@<TRIPOS>ATOM
      1 C          -0.1975    2.1124   -0.3230 C.ar    1  LIG1       -0.0498
      2 C           1.1966    2.0989   -0.3170 C.ar    1  LIG1       -0.0499
      3 C          -0.8764    0.9312   -0.0127 C.ar    1  LIG1       -0.0576
      4 C           1.9173    0.9444   -0.0091 C.ar    1  LIG1       -0.0020
      5 H           1.7460    3.0006   -0.5624 H       1  LIG1        0.0627
      6 C          -0.1801   -0.2267    0.3026 C.ar    1  LIG1       -0.0455
      7 C           1.2190   -0.2297    0.3090 C.ar    1  LIG1        0.0324
      8 H          -0.7059   -1.1388    0.5500 H       1  LIG1        0.0630
      9 H          -1.9600    0.9206   -0.0169 H       1  LIG1        0.0621
     10 C          -0.9657    3.3826   -0.6385 C.3     1  LIG1       -0.0397
     11 H          -0.3218    4.1093   -1.1324 H       1  LIG1        0.0278
     12 H          -1.3476    3.8268    0.2826 H       1  LIG1        0.0278
     13 H          -1.8119    3.1629   -1.2901 H       1  LIG1        0.0278
     14 C           1.9266   -1.4398    0.6602 C.1     1  LIG1       -0.0691
     15 C           2.4970   -2.4570    0.9525 C.1     1  LIG1       -0.1139
     16 H           3.0055   -3.3541    1.2192 H       1  LIG1        0.1232
     17 C           4.1580    0.3387   -1.0071 C.ar    1  LIG1       -0.0421
     18 C           5.5488    0.4227   -0.9546 C.ar    1  LIG1       -0.0494
     19 C           3.4138    0.9845   -0.0079 C.ar    1  LIG1       -0.0126
     20 C           6.2135    1.1238    0.0510 C.ar    1  LIG1       -0.0019
     21 H           6.1421   -0.0717   -1.7152 H       1  LIG1        0.0627
     22 C           4.0616    1.7053    0.9904 C.ar    1  LIG1       -0.0377
     23 C           5.4565    1.7805    1.0306 C.ar    1  LIG1        0.0330
     24 H           3.4812    2.2108    1.7513 H       1  LIG1        0.0636
     25 C           3.4760   -0.4289   -2.1234 C.3     1  LIG1       -0.0391
     26 H           4.1831   -0.6265   -2.9282 H       1  LIG1        0.0278
     27 H           2.6347    0.1424   -2.5180 H       1  LIG1        0.0278
     28 H           3.0961   -1.3785   -1.7423 H       1  LIG1        0.0278
     29 C           6.0987    2.5479    2.0732 C.1     1  LIG1       -0.0690
     30 C           6.6179    3.1900    2.9471 C.1     1  LIG1       -0.1139
     31 H           7.0812    3.7636    3.7159 H       1  LIG1        0.1232
     32 C           8.4491    0.4620    1.0159 C.ar    1  LIG1       -0.0421
     33 C           9.8406    0.5304    0.9609 C.ar    1  LIG1       -0.0494
     34 C           7.7093    1.1720    0.0577 C.ar    1  LIG1       -0.0126
     35 C          10.5110    1.2757   -0.0085 C.ar    1  LIG1       -0.0019
     36 H          10.4304   -0.0095    1.6929 H       1  LIG1        0.0627
     37 C           8.3629    1.9057   -0.9272 C.ar    1  LIG1       -0.0377
     38 C           9.7583    1.9640   -0.9706 C.ar    1  LIG1        0.0330
     39 H           7.7865    2.4400   -1.6714 H       1  LIG1        0.0636
     40 C           7.7600   -0.3647    2.0845 C.3     1  LIG1       -0.0391
     41 H           8.4690   -1.0562    2.5386 H       1  LIG1        0.0278
     42 H           6.9327   -0.9297    1.6528 H       1  LIG1        0.0278
     43 H           7.3576    0.2918    2.8586 H       1  LIG1        0.0278
     44 C          10.4059    2.7133   -2.0228 C.1     1  LIG1       -0.0690
     45 C          10.9316    3.3396   -2.9047 C.1     1  LIG1       -0.1139
     46 H          11.4032    3.8846   -3.6896 H       1  LIG1        0.1232
     47 C          12.7053    2.4710    0.3468 C.ar    1  LIG1       -0.0426
     48 C          14.1003    2.4365    0.3377 C.ar    1  LIG1       -0.0571
     49 C          12.0077    1.3078   -0.0168 C.ar    1  LIG1       -0.0126
     50 C          14.7968    1.2873   -0.0161 C.ar    1  LIG1       -0.0461
     51 H          14.6501    3.3260    0.6202 H       1  LIG1        0.0621
     52 C          12.6986    0.1499   -0.3623 C.ar    1  LIG1       -0.0383
     53 C          14.0959    0.1316   -0.3666 C.ar    1  LIG1        0.0253
     54 H          12.1509   -0.7419   -0.6381 H       1  LIG1        0.0636
     55 H          15.8784    1.2738   -0.0173 H       1  LIG1        0.0630
     56 C          11.9666    3.7331    0.7494 C.3     1  LIG1       -0.0391
     57 H          12.6478    4.4229    1.2469 H       1  LIG1        0.0278
     58 H          11.1440    3.4927    1.4245 H       1  LIG1        0.0278
     59 H          11.5510    4.2190   -0.1353 H       1  LIG1        0.0278
     60 C          14.8047   -1.0744   -0.7289 C.1     1  LIG1       -0.0696
     61 C          15.3904   -2.0796   -1.0306 C.1     1  LIG1       -0.1139
     62 H          15.9061   -2.9719   -1.2992 H       1  LIG1        0.1232
@<TRIPOS>BOND
     1    46    45    1
     2    26    25    1
     3    45    44    3
     4    27    25    1
     5    25    28    1
     6    25    17    1
     7    44    38    1
     8    21    18    1
     9    39    37    1
    10    62    61    1
    11    13    10    1
    12    11    10    1
    13    61    60    3
    14    17    18   ar
    15    17    19   ar
    16    38    37   ar
    17    38    35   ar
    18    18    20   ar
    19    37    34   ar
    20    60    53    1
    21    10     1    1
    22    10    12    1
    23    54    52    1
    24     5     2    1
    25    53    52   ar
    26    53    50   ar
    27    52    49   ar
    28     1     2   ar
    29     1     3   ar
    30     2     4   ar
    31    59    56    1
    32    55    50    1
    33     9     3    1
    34    49    35    1
    35    49    47   ar
    36    50    48   ar
    37     3     6   ar
    38     4    19    1
    39     4     7   ar
    40    35    33   ar
    41    19    22   ar
    42    20    34    1
    43    20    23   ar
    44    34    32   ar
    45     6     7   ar
    46     6     8    1
    47     7    14    1
    48    48    47   ar
    49    48    51    1
    50    47    56    1
    51    14    15    3
    52    56    57    1
    53    56    58    1
    54    15    16    1
    55    33    32   ar
    56    33    36    1
    57    22    23   ar
    58    22    24    1
    59    32    40    1
    60    23    29    1
    61    42    40    1
    62    29    30    3
    63    40    41    1
    64    40    43    1
    65    30    31    1
