@<TRIPOS>MOLECULE
mol_data/opt/m06hf/geoms/mol2/4ie4ie4ie-4ie-.out
 62 65 0 0 0
SMALL
GASTEIGER

@<TRIPOS>ATOM
      1 C          -0.1861    0.1182   -0.3817 C.ar    1  LIG1       -0.0498
      2 C           1.2069    0.1397   -0.3544 C.ar    1  LIG1       -0.0499
      3 C          -0.8778    1.2704    0.0024 C.ar    1  LIG1       -0.0576
      4 C           1.9153    1.2737    0.0458 C.ar    1  LIG1       -0.0020
      5 H           1.7666   -0.7427   -0.6436 H       1  LIG1        0.0627
      6 C          -0.1941    2.4102    0.3981 C.ar    1  LIG1       -0.0455
      7 C           1.2053    2.4223    0.4210 C.ar    1  LIG1        0.0324
      8 H          -0.7290    3.3046    0.6878 H       1  LIG1        0.0630
      9 H          -1.9617    1.2726   -0.0126 H       1  LIG1        0.0621
     10 C          -0.9444   -1.1187   -0.8262 C.3     1  LIG1       -0.0397
     11 H          -0.2616   -1.9512   -0.9904 H       1  LIG1        0.0278
     12 H          -1.4782   -0.9174   -1.7566 H       1  LIG1        0.0278
     13 H          -1.6738   -1.4086   -0.0686 H       1  LIG1        0.0278
     14 C           1.9028    3.6246    0.8164 C.1     1  LIG1       -0.0691
     15 C           2.4715    4.6293    1.1515 C.1     1  LIG1       -0.1139
     16 H           2.9801    5.5194    1.4406 H       1  LIG1        0.1232
     17 C           4.1336    1.2074    1.2522 C.ar    1  LIG1       -0.0421
     18 C           5.5259    1.1659    1.1872 C.ar    1  LIG1       -0.0494
     19 C           3.4122    1.2468    0.0491 C.ar    1  LIG1       -0.0126
     20 C           6.2134    1.1628   -0.0259 C.ar    1  LIG1       -0.0019
     21 H           6.1017    1.1360    2.1051 H       1  LIG1        0.0627
     22 C           4.0827    1.2260   -1.1696 C.ar    1  LIG1       -0.0377
     23 C           5.4787    1.1845   -1.2194 C.ar    1  LIG1        0.0330
     24 H           3.5197    1.2445   -2.0936 H       1  LIG1        0.0636
     25 C           3.4242    1.2016    2.5924 C.3     1  LIG1       -0.0391
     26 H           4.1180    0.9177    3.3829 H       1  LIG1        0.0278
     27 H           2.5911    0.4974    2.5771 H       1  LIG1        0.0278
     28 H           3.0280    2.1957    2.8068 H       1  LIG1        0.0278
     29 C           6.1444    1.1438   -2.5010 C.1     1  LIG1       -0.0690
     30 C           6.6868    1.1085   -3.5733 C.1     1  LIG1       -0.1139
     31 H           7.1714    1.0675   -4.5211 H       1  LIG1        0.1232
     32 C           8.4636    2.2412   -0.4042 C.ar    1  LIG1       -0.0421
     33 C           9.8542    2.1429   -0.3769 C.ar    1  LIG1       -0.0494
     34 C           7.7094    1.1176   -0.0327 C.ar    1  LIG1       -0.0126
     35 C          10.5100    0.9740    0.0072 C.ar    1  LIG1       -0.0019
     36 H          10.4545    3.0027   -0.6522 H       1  LIG1        0.0627
     37 C           8.3482   -0.0546    0.3581 C.ar    1  LIG1       -0.0377
     38 C           9.7432   -0.1393    0.3778 C.ar    1  LIG1        0.0330
     39 H           7.7612   -0.9203    0.6366 H       1  LIG1        0.0636
     40 C           7.7927    3.5370   -0.8172 C.3     1  LIG1       -0.0391
     41 H           6.9744    3.7754   -0.1364 H       1  LIG1        0.0278
     42 H           7.3816    3.4375   -1.8236 H       1  LIG1        0.0278
     43 H           8.5158    4.3518   -0.8085 H       1  LIG1        0.0278
     44 C          10.3737   -1.3819    0.7601 C.1     1  LIG1       -0.0690
     45 C          10.8839   -2.4221    1.0808 C.1     1  LIG1       -0.1139
     46 H          11.3410   -3.3447    1.3531 H       1  LIG1        0.1232
     47 C          12.7331    0.9008    1.2041 C.ar    1  LIG1       -0.0426
     48 C          14.1265    0.8750    1.1351 C.ar    1  LIG1       -0.0571
     49 C          12.0065    0.9277    0.0031 C.ar    1  LIG1       -0.0126
     50 C          14.7941    0.8788   -0.0838 C.ar    1  LIG1       -0.0461
     51 H          14.6987    0.8586    2.0545 H       1  LIG1        0.0621
     52 C          12.6685    0.9425   -1.2213 C.ar    1  LIG1       -0.0383
     53 C          14.0648    0.9158   -1.2735 C.ar    1  LIG1        0.0253
     54 H          12.0980    0.9657   -2.1406 H       1  LIG1        0.0636
     55 H          15.8749    0.8605   -0.1231 H       1  LIG1        0.0630
     56 C          12.0264    0.9097    2.5461 C.3     1  LIG1       -0.0391
     57 H          11.5623   -0.0615    2.7292 H       1  LIG1        0.0278
     58 H          11.2444    1.6703    2.5585 H       1  LIG1        0.0278
     59 H          12.7391    1.1186    3.3433 H       1  LIG1        0.0278
     60 C          14.7439    0.9296   -2.5490 C.1     1  LIG1       -0.0696
     61 C          15.3069    0.9427   -3.6109 C.1     1  LIG1       -0.1139
     62 H          15.8024    0.9529   -4.5536 H       1  LIG1        0.1232
@<TRIPOS>BOND
     1    62    61    1
     2    31    30    1
     3    61    60    3
     4    30    29    3
     5    60    53    1
     6    29    23    1
     7    54    52    1
     8    24    22    1
     9    42    40    1
    10    12    10    1
    11    53    52   ar
    12    53    50   ar
    13    52    49   ar
    14    23    22   ar
    15    23    20   ar
    16    22    19   ar
    17    11    10    1
    18    10     1    1
    19    10    13    1
    20    40    43    1
    21    40    32    1
    22    40    41    1
    23    36    33    1
    24     5     2    1
    25    32    33   ar
    26    32    34   ar
    27     1     2   ar
    28     1     3   ar
    29    33    35   ar
    30     2     4   ar
    31    55    50    1
    32    50    48   ar
    33    34    20    1
    34    34    37   ar
    35    20    18   ar
    36     9     3    1
    37     3     6   ar
    38    49    35    1
    39    49    47   ar
    40    35    38   ar
    41     4    19    1
    42     4     7   ar
    43    19    17   ar
    44    37    38   ar
    45    37    39    1
    46    38    44    1
    47     6     7   ar
    48     6     8    1
    49     7    14    1
    50    44    45    3
    51    14    15    3
    52    45    46    1
    53    48    47   ar
    54    48    51    1
    55    15    16    1
    56    18    17   ar
    57    18    21    1
    58    47    56    1
    59    17    25    1
    60    56    58    1
    61    56    57    1
    62    56    59    1
    63    27    25    1
    64    25    28    1
    65    25    26    1
