@<TRIPOS>MOLECULE
mol_data/opt/m06hf/geoms/mol2/4ie4ie-4ie4ie-.out
 62 65 0 0 0
SMALL
GASTEIGER

@<TRIPOS>ATOM
      1 C          -0.1988    0.3213   -0.7907 C.ar    1  LIG1       -0.0498
      2 C           1.1950    0.3066   -0.7462 C.ar    1  LIG1       -0.0499
      3 C          -0.8779    1.3002   -0.0616 C.ar    1  LIG1       -0.0576
      4 C           1.9137    1.2447   -0.0058 C.ar    1  LIG1       -0.0020
      5 H           1.7456   -0.4443   -1.3015 H       1  LIG1        0.0627
      6 C          -0.1826    2.2393    0.6872 C.ar    1  LIG1       -0.0455
      7 C           1.2154    2.2207    0.7198 C.ar    1  LIG1        0.0324
      8 H          -0.7100    2.9922    1.2571 H       1  LIG1        0.0630
      9 H          -1.9611    1.3243   -0.0784 H       1  LIG1        0.0621
     10 C          -0.9618   -0.6829   -1.6346 C.3     1  LIG1       -0.0397
     11 H          -0.3531   -1.5660   -1.8256 H       1  LIG1        0.0278
     12 H          -1.2319   -0.2352   -2.5930 H       1  LIG1        0.0278
     13 H          -1.8773   -0.9902   -1.1290 H       1  LIG1        0.0278
     14 C           1.9276    3.1987    1.5099 C.1     1  LIG1       -0.0691
     15 C           2.5105    4.0186    2.1685 C.1     1  LIG1       -0.1139
     16 H           3.0324    4.7356    2.7588 H       1  LIG1        0.1232
     17 C           4.1675    2.1286   -0.7105 C.ar    1  LIG1       -0.0421
     18 C           5.5570    2.0220   -0.6763 C.ar    1  LIG1       -0.0494
     19 C           3.4101    1.1926    0.0096 C.ar    1  LIG1       -0.0126
     20 C           6.2081    1.0229    0.0466 C.ar    1  LIG1       -0.0019
     21 H           6.1603    2.7291   -1.2341 H       1  LIG1        0.0627
     22 C           4.0437    0.1893    0.7350 C.ar    1  LIG1       -0.0377
     23 C           5.4382    0.0980    0.7654 C.ar    1  LIG1        0.0330
     24 H           3.4531   -0.5230    1.2965 H       1  LIG1        0.0636
     25 C           3.4959    3.2306   -1.5069 C.3     1  LIG1       -0.0391
     26 H           3.0994    3.9870   -0.8264 H       1  LIG1        0.0278
     27 H           2.6667    2.8278   -2.0901 H       1  LIG1        0.0278
     28 H           4.2131    3.6994   -2.1797 H       1  LIG1        0.0278
     29 C           6.0659   -0.9371    1.5543 C.1     1  LIG1       -0.0690
     30 C           6.5736   -1.8021    2.2171 C.1     1  LIG1       -0.1139
     31 H           7.0295   -2.5591    2.8121 H       1  LIG1        0.1232
     32 C           8.3950   -0.0503   -0.6252 C.ar    1  LIG1       -0.0421
     33 C           9.7890   -0.0350   -0.5962 C.ar    1  LIG1       -0.0494
     34 C           7.7038    0.9666    0.0515 C.ar    1  LIG1       -0.0126
     35 C          10.5085    0.9553    0.0718 C.ar    1  LIG1       -0.0019
     36 H          10.3420   -0.8072   -1.1187 H       1  LIG1        0.0627
     37 C           8.4072    1.9650    0.7186 C.ar    1  LIG1       -0.0377
     38 C           9.8044    1.9677    0.7383 C.ar    1  LIG1        0.0330
     39 H           7.8675    2.7437    1.2417 H       1  LIG1        0.0636
     40 C           7.6536   -1.1362   -1.3815 C.3     1  LIG1       -0.0391
     41 H           8.3327   -1.6496   -2.0614 H       1  LIG1        0.0278
     42 H           6.8312   -0.7052   -1.9537 H       1  LIG1        0.0278
     43 H           7.2390   -1.8611   -0.6784 H       1  LIG1        0.0278
     44 C          10.5047    3.0079    1.4564 C.1     1  LIG1       -0.0690
     45 C          11.0759    3.8818    2.0535 C.1     1  LIG1       -0.1139
     46 H          11.5871    4.6483    2.5891 H       1  LIG1        0.1232
     47 C          12.7484    1.8298   -0.6928 C.ar    1  LIG1       -0.0426
     48 C          14.1402    1.7336   -0.6714 C.ar    1  LIG1       -0.0571
     49 C          12.0051    0.9157    0.0698 C.ar    1  LIG1       -0.0126
     50 C          14.7901    0.7620    0.0800 C.ar    1  LIG1       -0.0461
     51 H          14.7253    2.4302   -1.2592 H       1  LIG1        0.0621
     52 C          12.6485   -0.0659    0.8180 C.ar    1  LIG1       -0.0383
     53 C          14.0435   -0.1480    0.8305 C.ar    1  LIG1        0.0253
     54 H          12.0646   -0.7663    1.4009 H       1  LIG1        0.0636
     55 H          15.8698    0.6976    0.0865 H       1  LIG1        0.0630
     56 C          12.0601    2.8947   -1.5249 C.3     1  LIG1       -0.0391
     57 H          11.6721    3.6805   -0.8735 H       1  LIG1        0.0278
     58 H          11.2234    2.4647   -2.0771 H       1  LIG1        0.0278
     59 H          12.7651    3.3343   -2.2299 H       1  LIG1        0.0278
     60 C          14.7048   -1.1684    1.6117 C.1     1  LIG1       -0.0696
     61 C          15.2572   -2.0162    2.2601 C.1     1  LIG1       -0.1139
     62 H          15.7459   -2.7670    2.8362 H       1  LIG1        0.1232
@<TRIPOS>BOND
     1    12    10    1
     2    59    56    1
     3    28    25    1
     4    27    25    1
     5    58    56    1
     6    41    40    1
     7    42    40    1
     8    11    10    1
     9    10    13    1
    10    10     1    1
    11    56    57    1
    12    56    47    1
    13    25    26    1
    14    25    17    1
    15    40    43    1
    16    40    32    1
    17     5     2    1
    18    51    48    1
    19    21    18    1
    20    36    33    1
    21     1     2   ar
    22     1     3   ar
    23     2     4   ar
    24    17    18   ar
    25    17    19   ar
    26    47    48   ar
    27    47    49   ar
    28    18    20   ar
    29    48    50   ar
    30    32    33   ar
    31    32    34   ar
    32    33    35   ar
    33     9     3    1
    34     3     6   ar
    35     4    19    1
    36     4     7   ar
    37    19    22   ar
    38    20    34    1
    39    20    23   ar
    40    34    37   ar
    41    49    35    1
    42    49    52   ar
    43    35    38   ar
    44    50    55    1
    45    50    53   ar
    46     6     7   ar
    47     6     8    1
    48    37    38   ar
    49    37    39    1
    50     7    14    1
    51    22    23   ar
    52    22    24    1
    53    38    44    1
    54    23    29    1
    55    52    53   ar
    56    52    54    1
    57    53    60    1
    58    44    45    3
    59    14    15    3
    60    29    30    3
    61    60    61    3
    62    45    46    1
    63    15    16    1
    64    30    31    1
    65    61    62    1
