@<TRIPOS>MOLECULE
mol_data/opt/m06hf/geoms/mol2/4ie4ie4ie.out
 47 49 0 0 0
SMALL
GASTEIGER

@<TRIPOS>ATOM
      1 C          -0.0818    1.2562   -1.1730 C.ar    1  LIG1       -0.0498
      2 C           1.3098    1.3230   -1.1268 C.ar    1  LIG1       -0.0499
      3 C          -0.7660    0.8160   -0.0366 C.ar    1  LIG1       -0.0576
      4 C           2.0236    0.9657    0.0177 C.ar    1  LIG1       -0.0020
      5 H           1.8639    1.6520   -1.9985 H       1  LIG1        0.0627
      6 C          -0.0773    0.4650    1.1149 C.ar    1  LIG1       -0.0455
      7 C           1.3194    0.5395    1.1531 C.ar    1  LIG1        0.0324
      8 H          -0.6075    0.1336    1.9975 H       1  LIG1        0.0630
      9 H          -1.8478    0.7526   -0.0555 H       1  LIG1        0.0621
     10 C          -0.8463    1.6652   -2.4182 C.3     1  LIG1       -0.0397
     11 H          -0.1707    1.7844   -3.2642 H       1  LIG1        0.0278
     12 H          -1.3594    2.6131   -2.2464 H       1  LIG1        0.0278
     13 H          -1.5934    0.9115   -2.6693 H       1  LIG1        0.0278
     14 C           2.0192    0.1922    2.3689 C.1     1  LIG1       -0.0691
     15 C           2.5895   -0.0983    3.3868 C.1     1  LIG1       -0.1139
     16 H           3.0999   -0.3453    4.2885 H       1  LIG1        0.1232
     17 C           4.3050   -0.1126    0.0121 C.ar    1  LIG1       -0.0421
     18 C           5.6921    0.0285    0.0075 C.ar    1  LIG1       -0.0494
     19 C           3.5181    1.0495    0.0179 C.ar    1  LIG1       -0.0126
     20 C           6.3125    1.2772    0.0085 C.ar    1  LIG1       -0.0019
     21 H           6.3178   -0.8567    0.0083 H       1  LIG1        0.0627
     22 C           4.1212    2.3028   -0.0055 C.ar    1  LIG1       -0.0377
     23 C           5.5133    2.4287   -0.0102 C.ar    1  LIG1        0.0330
     24 H           3.5087    3.1950   -0.0144 H       1  LIG1        0.0636
     25 C           3.6736   -1.4914    0.0080 C.3     1  LIG1       -0.0391
     26 H           4.4158   -2.2411   -0.2642 H       1  LIG1        0.0278
     27 H           2.8483   -1.5298   -0.7044 H       1  LIG1        0.0278
     28 H           3.2810   -1.7233    0.9999 H       1  LIG1        0.0278
     29 C           6.1089    3.7445   -0.0506 C.1     1  LIG1       -0.0690
     30 C           6.5923    4.8445   -0.0861 C.1     1  LIG1       -0.1139
     31 H           7.0257    5.8165   -0.1263 H       1  LIG1        0.1232
     32 C           8.4894    1.7918    1.1708 C.ar    1  LIG1       -0.0426
     33 C           9.8841    1.8287    1.1383 C.ar    1  LIG1       -0.0571
     34 C           7.8069    1.3618    0.0219 C.ar    1  LIG1       -0.0126
     35 C          10.5949    1.4492    0.0064 C.ar    1  LIG1       -0.0461
     36 H          10.4222    2.1537    2.0201 H       1  LIG1        0.0621
     37 C           8.5124    0.9704   -1.1125 C.ar    1  LIG1       -0.0383
     38 C           9.9091    1.0145   -1.1294 C.ar    1  LIG1        0.0253
     39 H           7.9765    0.6375   -1.9917 H       1  LIG1        0.0636
     40 H          11.6762    1.4801   -0.0048 H       1  LIG1        0.0630
     41 C           7.7380    2.2019    2.4233 C.3     1  LIG1       -0.0391
     42 H           8.4142    2.2142    3.2777 H       1  LIG1        0.0278
     43 H           6.9207    1.5075    2.6234 H       1  LIG1        0.0278
     44 H           7.3134    3.1990    2.2912 H       1  LIG1        0.0278
     45 C          10.6340    0.6106   -2.3127 C.1     1  LIG1       -0.0696
     46 C          11.2360    0.2724   -3.2967 C.1     1  LIG1       -0.1139
     47 H          11.7662   -0.0286   -4.1703 H       1  LIG1        0.1232
@<TRIPOS>BOND
     1    47    46    1
     2    46    45    3
     3    11    10    1
     4    13    10    1
     5    10    12    1
     6    10     1    1
     7    45    38    1
     8     5     2    1
     9    39    37    1
    10     1     2   ar
    11     1     3   ar
    12    38    37   ar
    13    38    35   ar
    14     2     4   ar
    15    37    34   ar
    16    27    25    1
    17    26    25    1
    18    31    30    1
    19    30    29    3
    20     9     3    1
    21    29    23    1
    22     3     6   ar
    23    24    22    1
    24    23    22   ar
    25    23    20   ar
    26    22    19   ar
    27    40    35    1
    28    35    33   ar
    29    18    21    1
    30    18    20   ar
    31    18    17   ar
    32    25    17    1
    33    25    28    1
    34    20    34    1
    35    17    19   ar
    36     4    19    1
    37     4     7   ar
    38    34    32   ar
    39     6     7   ar
    40     6     8    1
    41    33    32   ar
    42    33    36    1
    43     7    14    1
    44    32    41    1
    45    44    41    1
    46    14    15    3
    47    41    43    1
    48    41    42    1
    49    15    16    1
