@<TRIPOS>MOLECULE
mol_data/opt/m06hf/geoms/mol2/4ie4ie.out
 32 33 0 0 0
SMALL
GASTEIGER

@<TRIPOS>ATOM
      1 C           0.0873    0.3281   -1.0106 C.ar    1  LIG1       -0.0498
      2 C           1.4778    0.4205   -0.9486 C.ar    1  LIG1       -0.0499
      3 C          -0.6682    1.0057   -0.0514 C.ar    1  LIG1       -0.0576
      4 C           2.1202    1.1670    0.0387 C.ar    1  LIG1       -0.0020
      5 H           2.0867   -0.1023   -1.6774 H       1  LIG1        0.0627
      6 C          -0.0501    1.7585    0.9373 C.ar    1  LIG1       -0.0455
      7 C           1.3447    1.8468    0.9897 C.ar    1  LIG1        0.0324
      8 H          -0.6359    2.2883    1.6762 H       1  LIG1        0.0630
      9 H          -1.7495    0.9446   -0.0809 H       1  LIG1        0.0621
     10 C          -0.5905   -0.4679   -2.1103 C.3     1  LIG1       -0.0397
     11 H           0.0778   -1.2366   -2.4967 H       1  LIG1        0.0278
     12 H          -0.8684    0.1939   -2.9332 H       1  LIG1        0.0278
     13 H          -1.4947   -0.9462   -1.7336 H       1  LIG1        0.0278
     14 C           1.9695    2.6505    2.0152 C.1     1  LIG1       -0.0691
     15 C           2.4761    3.3196    2.8760 C.1     1  LIG1       -0.1139
     16 H           2.9312    3.9167    3.6316 H       1  LIG1        0.1232
     17 C           4.3613    0.5755    1.0408 C.ar    1  LIG1       -0.0426
     18 C           5.7528    0.6657    0.9919 C.ar    1  LIG1       -0.0571
     19 C           3.6157    1.2403    0.0543 C.ar    1  LIG1       -0.0126
     20 C           6.4003    1.3895   -0.0019 C.ar    1  LIG1       -0.0461
     21 H           6.3402    0.1539    1.7445 H       1  LIG1        0.0621
     22 C           4.2574    1.9583   -0.9506 C.ar    1  LIG1       -0.0383
     23 C           5.6521    2.0393   -0.9854 C.ar    1  LIG1        0.0253
     24 H           3.6724    2.4647   -1.7073 H       1  LIG1        0.0636
     25 H           7.4798    1.4504   -0.0272 H       1  LIG1        0.0630
     26 C           3.6779   -0.2290    2.1296 C.3     1  LIG1       -0.0391
     27 H           4.4003   -0.8753    2.6273 H       1  LIG1        0.0278
     28 H           2.8817   -0.8432    1.7067 H       1  LIG1        0.0278
     29 H           3.2359    0.4442    2.8667 H       1  LIG1        0.0278
     30 C           6.3105    2.7883   -2.0313 C.1     1  LIG1       -0.0696
     31 C           6.8579    3.4115   -2.9009 C.1     1  LIG1       -0.1139
     32 H           7.3421    3.9656   -3.6710 H       1  LIG1        0.1232
@<TRIPOS>BOND
     1    32    31    1
     2    12    10    1
     3    31    30    3
     4    11    10    1
     5    10    13    1
     6    10     1    1
     7    30    23    1
     8    24    22    1
     9     5     2    1
    10     1     2   ar
    11     1     3   ar
    12    23    22   ar
    13    23    20   ar
    14    22    19   ar
    15     2     4   ar
    16     9     3    1
    17     3     6   ar
    18    25    20    1
    19    20    18   ar
    20     4    19    1
    21     4     7   ar
    22    19    17   ar
    23     6     7   ar
    24     6     8    1
    25     7    14    1
    26    18    17   ar
    27    18    21    1
    28    17    26    1
    29    28    26    1
    30    14    15    3
    31    26    27    1
    32    26    29    1
    33    15    16    1
