@<TRIPOS>MOLECULE
mol_data/opt/m06hf/geoms/mol2/4ie4ie-4ie-4ie.out
 62 65 0 0 0
SMALL
GASTEIGER

@<TRIPOS>ATOM
      1 C          -0.2131    0.1888    0.4333 C.ar    1  LIG1       -0.0498
      2 C           1.1808    0.1728    0.3961 C.ar    1  LIG1       -0.0499
      3 C          -0.8752    1.3637    0.0700 C.ar    1  LIG1       -0.0576
      4 C           1.9165    1.2900    0.0015 C.ar    1  LIG1       -0.0020
      5 H           1.7177   -0.7271    0.6748 H       1  LIG1        0.0627
      6 C          -0.1629    2.4890   -0.3203 C.ar    1  LIG1       -0.0455
      7 C           1.2350    2.4625   -0.3560 C.ar    1  LIG1        0.0324
      8 H          -0.6755    3.4020   -0.5917 H       1  LIG1        0.0630
      9 H          -1.9580    1.3980    0.0983 H       1  LIG1        0.0621
     10 C          -0.9964   -1.0472    0.8352 C.3     1  LIG1       -0.0397
     11 H          -0.3767   -1.7189    1.4283 H       1  LIG1        0.0278
     12 H          -1.3331   -1.5821   -0.0551 H       1  LIG1        0.0278
     13 H          -1.8730   -0.7687    1.4205 H       1  LIG1        0.0278
     14 C           1.9626    3.6503   -0.7408 C.1     1  LIG1       -0.0691
     15 C           2.5563    4.6435   -1.0669 C.1     1  LIG1       -0.1139
     16 H           3.0870    5.5231   -1.3480 H       1  LIG1        0.1232
     17 C           4.1256    1.1845   -1.2187 C.ar    1  LIG1       -0.0421
     18 C           5.5169    1.1112   -1.1627 C.ar    1  LIG1       -0.0494
     19 C           3.4122    1.2254   -0.0109 C.ar    1  LIG1       -0.0126
     20 C           6.2112    1.0776    0.0460 C.ar    1  LIG1       -0.0019
     21 H           6.0866    1.0805   -2.0844 H       1  LIG1        0.0627
     22 C           4.0892    1.1733    1.2033 C.ar    1  LIG1       -0.0377
     23 C           5.4841    1.0996    1.2442 C.ar    1  LIG1        0.0330
     24 H           3.5320    1.1930    2.1309 H       1  LIG1        0.0636
     25 C           3.4087    1.2116   -2.5547 C.3     1  LIG1       -0.0391
     26 H           3.0358    2.2174   -2.7556 H       1  LIG1        0.0278
     27 H           2.5588    0.5277   -2.5426 H       1  LIG1        0.0278
     28 H           4.0911    0.9199   -3.3523 H       1  LIG1        0.0278
     29 C           6.1561    1.0269    2.5211 C.1     1  LIG1       -0.0690
     30 C           6.7037    0.9649    3.5896 C.1     1  LIG1       -0.1139
     31 H           7.1926    0.9002    4.5338 H       1  LIG1        0.1232
     32 C           8.4852    2.1044    0.4253 C.ar    1  LIG1       -0.0421
     33 C           9.8733    1.9787    0.3865 C.ar    1  LIG1       -0.0494
     34 C           7.7061    1.0016    0.0426 C.ar    1  LIG1       -0.0126
     35 C          10.5028    0.8029   -0.0199 C.ar    1  LIG1       -0.0019
     36 H          10.4926    2.8220    0.6701 H       1  LIG1        0.0627
     37 C           8.3185   -0.1771   -0.3703 C.ar    1  LIG1       -0.0377
     38 C           9.7113   -0.2892   -0.4016 C.ar    1  LIG1        0.0330
     39 H           7.7123   -1.0265   -0.6576 H       1  LIG1        0.0636
     40 C           7.8436    3.4073    0.8616 C.3     1  LIG1       -0.0391
     41 H           7.4382    3.3020    1.8697 H       1  LIG1        0.0278
     42 H           7.0252    3.6716    0.1906 H       1  LIG1        0.0278
     43 H           8.5829    4.2075    0.8585 H       1  LIG1        0.0278
     44 C          10.3143   -1.5378   -0.8079 C.1     1  LIG1       -0.0690
     45 C          10.8015   -2.5826   -1.1485 C.1     1  LIG1       -0.1139
     46 H          11.2382   -3.5097   -1.4385 H       1  LIG1        0.1232
     47 C          12.7151    0.7065   -1.2349 C.ar    1  LIG1       -0.0426
     48 C          14.1082    0.6522   -1.1771 C.ar    1  LIG1       -0.0571
     49 C          11.9981    0.7269   -0.0279 C.ar    1  LIG1       -0.0126
     50 C          14.7847    0.6217    0.0365 C.ar    1  LIG1       -0.0461
     51 H          14.6731    0.6406   -2.1010 H       1  LIG1        0.0621
     52 C          12.6692    0.7073    1.1913 C.ar    1  LIG1       -0.0383
     53 C          14.0651    0.6522    1.2322 C.ar    1  LIG1        0.0253
     54 H          12.1062    0.7257    2.1153 H       1  LIG1        0.0636
     55 H          15.8652    0.5815    0.0671 H       1  LIG1        0.0630
     56 C          11.9985    0.7522   -2.5708 C.3     1  LIG1       -0.0391
     57 H          12.7092    0.9592   -3.3703 H       1  LIG1        0.0278
     58 H          11.2325    1.5290   -2.5645 H       1  LIG1        0.0278
     59 H          11.5127   -0.2060   -2.7658 H       1  LIG1        0.0278
     60 C          14.7538    0.6303    2.5025 C.1     1  LIG1       -0.0696
     61 C          15.3247    0.6135    3.5601 C.1     1  LIG1       -0.1139
     62 H          15.8273    0.5972    4.4990 H       1  LIG1        0.1232
@<TRIPOS>BOND
     1    57    56    1
     2    28    25    1
     3    59    56    1
     4    26    25    1
     5    56    58    1
     6    56    47    1
     7    25    27    1
     8    25    17    1
     9    51    48    1
    10    21    18    1
    11    46    45    1
    12    16    15    1
    13    47    48   ar
    14    47    49   ar
    15    17    18   ar
    16    17    19   ar
    17    48    50   ar
    18    18    20   ar
    19    45    44    3
    20    15    14    3
    21    44    38    1
    22    14     7    1
    23    39    37    1
    24     8     6    1
    25    38    37   ar
    26    38    35   ar
    27    37    34   ar
    28     7     6   ar
    29     7     4   ar
    30     6     3   ar
    31    12    10    1
    32    49    35    1
    33    49    52   ar
    34    35    33   ar
    35    19     4    1
    36    19    22   ar
    37     4     2   ar
    38    50    55    1
    39    50    53   ar
    40    34    20    1
    41    34    32   ar
    42    20    23   ar
    43     3     9    1
    44     3     1   ar
    45    42    40    1
    46    33    32   ar
    47    33    36    1
    48     2     1   ar
    49     2     5    1
    50    32    40    1
    51     1    10    1
    52    10    13    1
    53    10    11    1
    54    43    40    1
    55    40    41    1
    56    52    53   ar
    57    52    54    1
    58    22    23   ar
    59    22    24    1
    60    53    60    1
    61    23    29    1
    62    60    61    3
    63    29    30    3
    64    61    62    1
    65    30    31    1
