@<TRIPOS>MOLECULE
mol_data/opt/m06hf/geoms/mol2/4ie6fd-6hd-13fh-.out
 51 54 0 0 0
SMALL
GASTEIGER

@<TRIPOS>ATOM
      1 C          -0.1833    0.1034   -0.4034 C.ar    1  LIG1       -0.0498
      2 C           1.2077    0.1586   -0.3989 C.ar    1  LIG1       -0.0498
      3 C          -0.8970    1.2170    0.0524 C.ar    1  LIG1       -0.0576
      4 C           1.8951    1.2876    0.0542 C.ar    1  LIG1        0.0029
      5 H           1.7815   -0.6856   -0.7635 H       1  LIG1        0.0627
      6 C          -0.2376    2.3481    0.5063 C.ar    1  LIG1       -0.0455
      7 C           1.1625    2.3915    0.5196 C.ar    1  LIG1        0.0326
      8 H          -0.7892    3.2051    0.8681 H       1  LIG1        0.0630
      9 H          -1.9804    1.1923    0.0521 H       1  LIG1        0.0621
     10 C          -0.9192   -1.1247   -0.9054 C.3     1  LIG1       -0.0397
     11 H          -0.2196   -1.9262   -1.1375 H       1  LIG1        0.0278
     12 H          -1.4819   -0.8797   -1.8076 H       1  LIG1        0.0278
     13 H          -1.6199   -1.4784   -0.1481 H       1  LIG1        0.0278
     14 C           1.8380    3.5652    1.0244 C.1     1  LIG1       -0.0691
     15 C           2.4033    4.5488    1.4218 C.1     1  LIG1       -0.1139
     16 H           2.9082    5.4184    1.7759 H       1  LIG1        0.1232
     17 C           4.1586    2.2046   -0.6723 C.ar    1  LIG1        0.2209
     18 C           3.3865    1.2766    0.0609 C.ar    1  LIG1        0.0459
     19 C           4.0918    0.3223    0.7699 C.ar    1  LIG1       -0.0294
     20 C           5.4889    0.2923    0.7363 C.ar    1  LIG1        0.0786
     21 C           6.1695    1.2301   -0.0609 C.ar    1  LIG1        0.0954
     22 N           5.4758    2.1603   -0.7234 N.ar    1  LIG1       -0.2111
     23 H           3.5587   -0.3979    1.3780 H       1  LIG1        0.0639
     24 O           3.6093    3.1827   -1.3978 O.3     1  LIG1       -0.4920
     25 H           2.6575    3.2380   -1.2434 H       1  LIG1        0.2937
     26 N           6.6382   -1.4560    2.2642 N.1     1  LIG1       -0.1908
     27 C           6.1587   -0.6714    1.5768 C.1     1  LIG1        0.1013
     28 C           8.3671    2.4648   -0.4441 C.ar    1  LIG1        0.1262
     29 C           7.6429    1.2530   -0.2047 C.ar    1  LIG1        0.0425
     30 C           8.3907    0.0863   -0.1603 C.ar    1  LIG1       -0.0297
     31 C           9.7821    0.1111   -0.2371 C.ar    1  LIG1        0.0800
     32 C          10.4119    1.3673   -0.3124 C.ar    1  LIG1        0.1102
     33 N           9.7029    2.4876   -0.4505 N.ar    1  LIG1       -0.2289
     34 H           7.9018   -0.8765   -0.0905 H       1  LIG1        0.0639
     35 N           7.7541    3.6465   -0.6391 N.pl3   1  LIG1       -0.3426
     36 H           8.3488    4.4343   -0.8365 H       1  LIG1        0.1437
     37 H           6.7719    3.6503   -0.8814 H       1  LIG1        0.1437
     38 N          10.9752   -2.1654   -0.5249 N.1     1  LIG1       -0.1908
     39 C          10.4866   -1.1391   -0.3655 C.1     1  LIG1        0.1014
     40 C          11.8550    1.5572   -0.2883 C.ar    1  LIG1        0.1101
     41 C          12.9238    0.8409    0.2230 C.ar    1  LIG1        0.1644
     42 C          14.0999    1.6029    0.0116 C.ar    1  LIG1        0.0849
     43 C          13.7149    2.7771   -0.6102 C.ar    1  LIG1        0.0267
     44 N          12.3768    2.7378   -0.7728 N.ar    1  LIG1       -0.3549
     45 H          11.7738    3.4573   -1.1420 H       1  LIG1        0.1655
     46 H          14.3027    3.6181   -0.9374 H       1  LIG1        0.0827
     47 O          12.9171   -0.3350    0.8720 O.3     1  LIG1       -0.5031
     48 H          13.8434   -0.5169    1.0993 H       1  LIG1        0.2923
     49 N          15.3602    1.1006    0.4456 N.pl3   1  LIG1       -0.3540
     50 H          15.9872    0.9001   -0.3258 H       1  LIG1        0.1425
     51 H          15.8227    1.7166    1.1044 H       1  LIG1        0.1425
@<TRIPOS>BOND
     1    12    10    1
     2    24    25    1
     3    24    17    1
     4    45    44    1
     5    11    10    1
     6    46    43    1
     7    10     1    1
     8    10    13    1
     9    37    35    1
    10    36    35    1
    11    44    43   ar
    12    44    40   ar
    13     5     2    1
    14    22    17   ar
    15    22    21   ar
    16    17    18   ar
    17    35    28    1
    18    43    42   ar
    19    38    39    3
    20    33    28   ar
    21    33    32   ar
    22    28    29   ar
    23     1     2   ar
    24     1     3   ar
    25     2     4   ar
    26    39    31    1
    27    50    49    1
    28    32    40    1
    29    32    31   ar
    30    40    41   ar
    31    31    30   ar
    32    29    30   ar
    33    29    21    1
    34    30    34    1
    35    21    20   ar
    36    42    41   ar
    37    42    49    1
    38     9     3    1
    39     3     6   ar
    40     4    18    1
    41     4     7   ar
    42    18    19   ar
    43    41    47    1
    44    49    51    1
    45     6     7   ar
    46     6     8    1
    47     7    14    1
    48    20    19   ar
    49    20    27    1
    50    19    23    1
    51    47    48    1
    52    14    15    3
    53    15    16    1
    54    27    26    3
