@<TRIPOS>MOLECULE
mol_data/opt/m06hf/geoms/mol2/4if.out
 16 16 0 0 0
SMALL
GASTEIGER

@<TRIPOS>ATOM
      1 C           0.0948    0.0697    0.0086 C.ar    1  LIG1       -0.0502
      2 C           1.4931    0.0847   -0.0340 C.ar    1  LIG1       -0.0554
      3 C          -0.5697    1.2920    0.0446 C.ar    1  LIG1       -0.0554
      4 C           2.2050    1.2751   -0.0429 C.ar    1  LIG1       -0.0199
      5 H           2.0334   -0.8546   -0.0592 H       1  LIG1        0.0621
      6 C           0.1285    2.4988    0.0362 C.ar    1  LIG1       -0.0199
      7 C           1.5181    2.4886   -0.0078 C.ar    1  LIG1        0.1169
      8 H          -0.4089    3.4400    0.0666 H       1  LIG1        0.0654
      9 H           3.2858    1.2926   -0.0736 H       1  LIG1        0.0654
     10 H          -1.6523    1.3114    0.0810 H       1  LIG1        0.0621
     11 C          -0.6645   -1.2453   -0.0014 C.3     1  LIG1       -0.0397
     12 H          -0.2271   -1.9442    0.7128 H       1  LIG1        0.0278
     13 H          -0.6275   -1.7007   -0.9927 H       1  LIG1        0.0278
     14 H          -1.7090   -1.0870    0.2658 H       1  LIG1        0.0278
     15 O           2.2646    3.6299   -0.0160 O.3     1  LIG1       -0.5068
     16 H           1.6948    4.4051    0.0119 H       1  LIG1        0.2921
@<TRIPOS>BOND
     1    13    11    1
     2     9     4    1
     3     5     2    1
     4     4     2   ar
     5     4     7   ar
     6     2     1   ar
     7    15     7    1
     8    15    16    1
     9     7     6   ar
    10    11     1    1
    11    11    14    1
    12    11    12    1
    13     1     3   ar
    14     6     3   ar
    15     6     8    1
    16     3    10    1
