@<TRIPOS>MOLECULE
mol_data/opt/m06hf/geoms/mol2/4if12fh13fa12fl.out
 47 50 0 0 0
SMALL
GASTEIGER

@<TRIPOS>ATOM
      1 C          -0.0941    0.1189    0.0198 C.ar    1  LIG1       -0.0495
      2 C           1.2957    0.1267    0.0265 C.ar    1  LIG1       -0.0445
      3 C          -0.7594    1.3343   -0.1471 C.ar    1  LIG1       -0.0554
      4 C           2.0376    1.3047   -0.1366 C.ar    1  LIG1        0.0626
      5 H           1.8398   -0.8007    0.1606 H       1  LIG1        0.0628
      6 C          -0.0472    2.5136   -0.3133 C.ar    1  LIG1       -0.0192
      7 C           1.3466    2.5108   -0.3168 C.ar    1  LIG1        0.1276
      8 H          -0.5735    3.4530   -0.4452 H       1  LIG1        0.0654
      9 H          -1.8429    1.3618   -0.1488 H       1  LIG1        0.0621
     10 C          -0.8743   -1.1729    0.1866 C.3     1  LIG1       -0.0397
     11 H          -0.1987   -2.0027    0.3901 H       1  LIG1        0.0278
     12 H          -1.4353   -1.3980   -0.7221 H       1  LIG1        0.0278
     13 H          -1.5807   -1.0891    1.0141 H       1  LIG1        0.0278
     14 O           2.0500    3.6683   -0.4972 O.3     1  LIG1       -0.5061
     15 H           1.4355    4.3936   -0.6478 H       1  LIG1        0.2922
     16 C           3.4976    1.2161   -0.1156 C.ar    1  LIG1        0.1824
     17 C           4.3525    0.1539   -0.1558 C.ar    1  LIG1        0.1846
     18 C           5.6899    0.6645   -0.0984 C.ar    1  LIG1        0.1153
     19 C           5.5559    2.0163   -0.0005 C.ar    1  LIG1        0.1796
     20 O           4.2513    2.3493   -0.0088 O.2     1  LIG1       -0.4474
     21 O           4.0843   -1.1701   -0.2335 O.3     1  LIG1       -0.5020
     22 H           4.9417   -1.6142   -0.1274 H       1  LIG1        0.2924
     23 N           6.8105   -0.2066   -0.1428 N.pl3   1  LIG1       -0.3521
     24 H           7.2002   -0.2359   -1.0822 H       1  LIG1        0.1425
     25 H           7.5442    0.1303    0.4750 H       1  LIG1        0.1425
     26 C           6.4783    3.1265    0.1087 C.ar    1  LIG1        0.1265
     27 C           7.8297    3.1959    0.3828 C.ar    1  LIG1        0.1458
     28 C           8.2134    4.5579    0.3775 C.ar    1  LIG1        0.0091
     29 C           7.0627    5.2797    0.1074 C.ar    1  LIG1        0.0900
     30 N           6.0352    4.4106   -0.0561 N.ar    1  LIG1       -0.3463
     31 H           5.0716    4.6507   -0.2483 H       1  LIG1        0.1662
     32 O           8.6152    2.0965    0.6175 O.3     1  LIG1       -0.5045
     33 H           9.4290    2.3746    1.0494 H       1  LIG1        0.2922
     34 H           9.1902    4.9789    0.5482 H       1  LIG1        0.0677
     35 C           6.8652    6.7115   -0.0052 C.ar    1  LIG1        0.1960
     36 C           7.7068    7.7645    0.1381 C.ar    1  LIG1        0.2068
     37 C           6.9167    8.9430   -0.0923 C.ar    1  LIG1        0.2002
     38 C           5.6548    8.5202   -0.3581 C.ar    1  LIG1        0.1380
     39 O           5.6203    7.1635   -0.3070 O.2     1  LIG1       -0.4539
     40 H           4.7347    9.0233   -0.5904 H       1  LIG1        0.1069
     41 O           9.0291    7.7352    0.4346 O.3     1  LIG1       -0.5008
     42 H           9.3460    8.6446    0.5019 H       1  LIG1        0.2924
     43 O           7.4722   10.1736   -0.0188 O.3     1  LIG1       -0.4888
     44 C           6.5704   11.2456   -0.2425 C.3     1  LIG1        0.0791
     45 H           7.1448   12.1620   -0.1413 H       1  LIG1        0.0660
     46 H           6.1489   11.1743   -1.2480 H       1  LIG1        0.0660
     47 H           5.7704   11.2189    0.5016 H       1  LIG1        0.0660
@<TRIPOS>BOND
     1    46    44    1
     2    24    23    1
     3    12    10    1
     4    15    14    1
     5    40    38    1
     6    14     7    1
     7     8     6    1
     8    38    39   ar
     9    38    37   ar
    10     7     6   ar
    11     7     4   ar
    12     6     3   ar
    13    39    35   ar
    14    31    30    1
    15    44    45    1
    16    44    43    1
    17    44    47    1
    18    21    17    1
    19    21    22    1
    20    17    16   ar
    21    17    18   ar
    22     9     3    1
    23     3     1   ar
    24    23    18    1
    25    23    25    1
    26     4    16    1
    27     4     2   ar
    28    16    20   ar
    29    18    19   ar
    30    37    43    1
    31    37    36   ar
    32    30    29   ar
    33    30    26   ar
    34    20    19   ar
    35    35    29    1
    36    35    36   ar
    37    19    26    1
    38     1     2   ar
    39     1    10    1
    40     2     5    1
    41    29    28   ar
    42    26    27   ar
    43    36    41    1
    44    10    11    1
    45    10    13    1
    46    28    27   ar
    47    28    34    1
    48    27    32    1
    49    41    42    1
    50    32    33    1
