@<TRIPOS>MOLECULE
mol_data/opt/m06hf/geoms/mol2/4if4if-.out
 30 31 0 0 0
SMALL
GASTEIGER

@<TRIPOS>ATOM
      1 C           0.0038    0.2134    0.3608 C.ar    1  LIG1       -0.0496
      2 C           1.4001    0.2429    0.3766 C.ar    1  LIG1       -0.0476
      3 C          -0.6607    1.2460   -0.2949 C.ar    1  LIG1       -0.0554
      4 C           2.1324    1.2588   -0.2335 C.ar    1  LIG1        0.0242
      5 H           1.9483   -0.5418    0.8869 H       1  LIG1        0.0627
      6 C           0.0445    2.2713   -0.9190 C.ar    1  LIG1       -0.0193
      7 C           1.4353    2.2778   -0.8953 C.ar    1  LIG1        0.1246
      8 H          -0.4881    3.0663   -1.4295 H       1  LIG1        0.0654
      9 H          -1.7439    1.2565   -0.3233 H       1  LIG1        0.0621
     10 C          -0.7540   -0.9245    1.0210 C.3     1  LIG1       -0.0397
     11 H          -0.2854   -1.1974    1.9668 H       1  LIG1        0.0278
     12 H          -0.7589   -1.8045    0.3748 H       1  LIG1        0.0278
     13 H          -1.7862   -0.6348    1.2168 H       1  LIG1        0.0278
     14 O           2.1638    3.2543   -1.5077 O.3     1  LIG1       -0.5062
     15 H           1.5789    3.8726   -1.9577 H       1  LIG1        0.2922
     16 C           4.3501    2.2338    0.4869 C.ar    1  LIG1       -0.0424
     17 C           5.7372    2.1252    0.5165 C.ar    1  LIG1       -0.0548
     18 C           3.6284    1.2372   -0.1927 C.ar    1  LIG1       -0.0080
     19 C           6.4085    1.0701   -0.0972 C.ar    1  LIG1       -0.0199
     20 H           6.3135    2.8794    1.0389 H       1  LIG1        0.0622
     21 C           4.2878    0.1742   -0.8022 C.ar    1  LIG1       -0.0121
     22 C           5.6776    0.0903   -0.7583 C.ar    1  LIG1        0.1175
     23 H           3.7341   -0.5927   -1.3279 H       1  LIG1        0.0660
     24 H           7.4906    1.0113   -0.0551 H       1  LIG1        0.0654
     25 C           3.6484    3.3855    1.1809 C.3     1  LIG1       -0.0391
     26 H           2.7981    3.0198    1.7588 H       1  LIG1        0.0278
     27 H           3.2784    4.0943    0.4390 H       1  LIG1        0.0278
     28 H           4.3387    3.8957    1.8526 H       1  LIG1        0.0278
     29 O           6.2623   -0.9749   -1.3797 O.3     1  LIG1       -0.5067
     30 H           7.2198   -0.9256   -1.2942 H       1  LIG1        0.2921
@<TRIPOS>BOND
     1    15    14    1
     2    14     7    1
     3     8     6    1
     4    29    30    1
     5    29    22    1
     6    23    21    1
     7     6     7   ar
     8     6     3   ar
     9     7     4   ar
    10    21    22   ar
    11    21    18   ar
    12    22    19   ar
    13     9     3    1
    14     3     1   ar
    15     4    18    1
    16     4     2   ar
    17    18    16   ar
    18    19    24    1
    19    19    17   ar
    20     1     2   ar
    21     1    10    1
    22    12    10    1
    23     2     5    1
    24    27    25    1
    25    16    17   ar
    26    16    25    1
    27    17    20    1
    28    10    13    1
    29    10    11    1
    30    25    26    1
    31    25    28    1
