@<TRIPOS>MOLECULE
mol_data/opt/m06hf/geoms/mol2/4if4if4if-4if.out
 58 61 0 0 0
SMALL
GASTEIGER

@<TRIPOS>ATOM
      1 C          -0.2004    0.0970   -0.5492 C.ar    1  LIG1       -0.0496
      2 C           1.1934    0.1394   -0.5467 C.ar    1  LIG1       -0.0476
      3 C          -0.8853    1.1710    0.0155 C.ar    1  LIG1       -0.0554
      4 C           1.9099    1.2051   -0.0020 C.ar    1  LIG1        0.0242
      5 H           1.7529   -0.6784   -0.9877 H       1  LIG1        0.0627
      6 C          -0.1998    2.2546    0.5533 C.ar    1  LIG1       -0.0193
      7 C           1.1927    2.2763    0.5445 C.ar    1  LIG1        0.1246
      8 H          -0.7462    3.0853    0.9863 H       1  LIG1        0.0654
      9 H          -1.9688    1.1673    0.0348 H       1  LIG1        0.0621
     10 C          -0.9445   -1.0694   -1.1751 C.3     1  LIG1       -0.0397
     11 H          -0.3559   -1.9837   -1.0984 H       1  LIG1        0.0278
     12 H          -1.1404   -0.8742   -2.2311 H       1  LIG1        0.0278
     13 H          -1.8985   -1.2286   -0.6723 H       1  LIG1        0.0278
     14 O           1.8988    3.3227    1.0611 O.3     1  LIG1       -0.5062
     15 H           1.3049    3.9391    1.5022 H       1  LIG1        0.2922
     16 C           4.1294    0.1473    0.5753 C.ar    1  LIG1       -0.0418
     17 C           5.5233    0.1988    0.5056 C.ar    1  LIG1       -0.0470
     18 C           3.4058    1.1990   -0.0014 C.ar    1  LIG1       -0.0080
     19 C           6.2136    1.2472   -0.0963 C.ar    1  LIG1        0.0242
     20 H           6.1059   -0.5989    0.9537 H       1  LIG1        0.0628
     21 C           4.0811    2.2631   -0.6035 C.ar    1  LIG1       -0.0115
     22 C           5.4680    2.2904   -0.6564 C.ar    1  LIG1        0.1251
     23 H           3.5060    3.0773   -1.0307 H       1  LIG1        0.0660
     24 C           3.4637   -1.0139    1.2971 C.3     1  LIG1       -0.0391
     25 H           4.1249   -1.3790    2.0831 H       1  LIG1        0.0278
     26 H           3.2615   -1.8416    0.6137 H       1  LIG1        0.0278
     27 H           2.5207   -0.7014    1.7444 H       1  LIG1        0.0278
     28 O           6.1470    3.3120   -1.2536 O.3     1  LIG1       -0.5061
     29 H           5.5268    3.9319   -1.6517 H       1  LIG1        0.2922
     30 C           8.4632    2.1977    0.5541 C.ar    1  LIG1       -0.0418
     31 C           9.8504    2.0951    0.5066 C.ar    1  LIG1       -0.0470
     32 C           7.7089    1.2371   -0.1404 C.ar    1  LIG1       -0.0080
     33 C          10.5001    1.0775   -0.1956 C.ar    1  LIG1        0.0242
     34 H          10.4593    2.8113    1.0472 H       1  LIG1        0.0628
     35 C           8.3397    0.2182   -0.8493 C.ar    1  LIG1       -0.0115
     36 C           9.7285    0.1396   -0.8846 C.ar    1  LIG1        0.1251
     37 H           7.7612   -0.5141   -1.3970 H       1  LIG1        0.0660
     38 C           7.7942    3.3025    1.3497 C.3     1  LIG1       -0.0391
     39 H           6.9776    2.8964    1.9490 H       1  LIG1        0.0278
     40 H           7.3794    4.0484    0.6702 H       1  LIG1        0.0278
     41 H           8.5169    3.7794    2.0118 H       1  LIG1        0.0278
     42 O          10.2930   -0.8710   -1.6029 O.3     1  LIG1       -0.5061
     43 H          11.2502   -0.7383   -1.6414 H       1  LIG1        0.2922
     44 C          12.6504   -0.0991    0.3864 C.ar    1  LIG1       -0.0424
     45 C          14.0454   -0.1452    0.3053 C.ar    1  LIG1       -0.0548
     46 C          11.9931    0.9784   -0.2294 C.ar    1  LIG1       -0.0080
     47 C          14.7767    0.8364   -0.3489 C.ar    1  LIG1       -0.0199
     48 H          14.5714   -0.9667    0.7767 H       1  LIG1        0.0622
     49 C          12.7215    1.9725   -0.8878 C.ar    1  LIG1       -0.0121
     50 C          14.1099    1.9066   -0.9421 C.ar    1  LIG1        0.1175
     51 H          12.1881    2.7908   -1.3598 H       1  LIG1        0.0660
     52 H          15.8561    0.7993   -0.4073 H       1  LIG1        0.0654
     53 C          11.8755   -1.1575    1.1543 C.3     1  LIG1       -0.0391
     54 H          12.5665   -1.8064    1.6915 H       1  LIG1        0.0278
     55 H          11.2704   -1.7669    0.4801 H       1  LIG1        0.0278
     56 H          11.2044   -0.6810    1.8703 H       1  LIG1        0.0278
     57 O          14.8661    2.8512   -1.5676 O.3     1  LIG1       -0.5067
     58 H          14.3069    3.5492   -1.9240 H       1  LIG1        0.2921
@<TRIPOS>BOND
     1    12    10    1
     2    58    57    1
     3    29    28    1
     4    43    42    1
     5    42    36    1
     6    57    50    1
     7    37    35    1
     8    51    49    1
     9    28    22    1
    10    10    11    1
    11    10    13    1
    12    10     1    1
    13    23    21    1
    14     5     2    1
    15    50    49   ar
    16    50    47   ar
    17    49    46   ar
    18    36    35   ar
    19    36    33   ar
    20    35    32   ar
    21    22    21   ar
    22    22    19   ar
    23    21    18   ar
    24     1     2   ar
    25     1     3   ar
    26     2     4   ar
    27    52    47    1
    28    47    45   ar
    29    46    33    1
    30    46    44   ar
    31    33    31   ar
    32    32    19    1
    33    32    30   ar
    34    19    17   ar
    35     4    18    1
    36     4     7   ar
    37    18    16   ar
    38     3     9    1
    39     3     6   ar
    40    45    44   ar
    41    45    48    1
    42    44    53    1
    43    55    53    1
    44    17    16   ar
    45    17    20    1
    46    31    30   ar
    47    31    34    1
    48     7     6   ar
    49     7    14    1
    50     6     8    1
    51    30    38    1
    52    16    24    1
    53    26    24    1
    54    40    38    1
    55    14    15    1
    56    53    54    1
    57    53    56    1
    58    24    27    1
    59    24    25    1
    60    38    39    1
    61    38    41    1
