@<TRIPOS>MOLECULE
mol_data/opt/m06hf/geoms/mol2/4if4if4if4if.out
 58 61 0 0 0
SMALL
GASTEIGER

@<TRIPOS>ATOM
      1 C          -0.2761    1.1624   -0.7786 C.ar    1  LIG1       -0.0496
      2 C           1.1192    1.1380   -0.8393 C.ar    1  LIG1       -0.0476
      3 C          -0.8761    0.9774    0.4636 C.ar    1  LIG1       -0.0554
      4 C           1.9091    0.9389    0.2898 C.ar    1  LIG1        0.0242
      5 H           1.6163    1.2846   -1.7924 H       1  LIG1        0.0627
      6 C          -0.1114    0.7811    1.6107 C.ar    1  LIG1       -0.0193
      7 C           1.2774    0.7638    1.5281 C.ar    1  LIG1        0.1246
      8 H          -0.5954    0.6393    2.5705 H       1  LIG1        0.0654
      9 H          -1.9565    0.9876    0.5452 H       1  LIG1        0.0621
     10 C          -1.0978    1.4008   -2.0328 C.3     1  LIG1       -0.0397
     11 H          -0.7865    0.7220   -2.8280 H       1  LIG1        0.0278
     12 H          -0.9656    2.4251   -2.3856 H       1  LIG1        0.0278
     13 H          -2.1566    1.2378   -1.8337 H       1  LIG1        0.0278
     14 O           2.0681    0.5753    2.6219 O.3     1  LIG1       -0.5062
     15 H           1.5281    0.3805    3.3948 H       1  LIG1        0.2922
     16 C           4.0532   -0.1131   -0.5188 C.ar    1  LIG1       -0.0418
     17 C           5.4464   -0.0726   -0.5851 C.ar    1  LIG1       -0.0470
     18 C           3.4022    0.9053    0.1878 C.ar    1  LIG1       -0.0080
     19 C           6.2017    0.9297    0.0191 C.ar    1  LIG1        0.0242
     20 H           5.9738   -0.8504   -1.1265 H       1  LIG1        0.0628
     21 C           4.1397    1.9166    0.8014 C.ar    1  LIG1       -0.0115
     22 C           5.5272    1.9367    0.7176 C.ar    1  LIG1        0.1251
     23 H           3.6171    2.6888    1.3558 H       1  LIG1        0.0660
     24 C           3.2909   -1.2471   -1.1827 C.3     1  LIG1       -0.0391
     25 H           3.9482   -2.1067   -1.3130 H       1  LIG1        0.0278
     26 H           2.9186   -0.9492   -2.1651 H       1  LIG1        0.0278
     27 H           2.4365   -1.5422   -0.5735 H       1  LIG1        0.0278
     28 O           6.2717    2.9180    1.3022 O.3     1  LIG1       -0.5061
     29 H           5.7065    3.4913    1.8304 H       1  LIG1        0.2922
     30 C           8.4413   -0.1131    0.5243 C.ar    1  LIG1       -0.0418
     31 C           9.8309   -0.0566    0.4122 C.ar    1  LIG1       -0.0470
     32 C           7.6960    0.9216   -0.0550 C.ar    1  LIG1       -0.0080
     33 C          10.4972    0.9776   -0.2416 C.ar    1  LIG1        0.0242
     34 H          10.4292   -0.8471    0.8518 H       1  LIG1        0.0628
     35 C           8.3427    1.9643   -0.7176 C.ar    1  LIG1       -0.0115
     36 C           9.7288    1.9955   -0.8176 C.ar    1  LIG1        0.1251
     37 H           7.7490    2.7641   -1.1470 H       1  LIG1        0.0660
     38 C           7.7865   -1.2588    1.2777 C.3     1  LIG1       -0.0391
     39 H           8.4956   -1.6827    1.9889 H       1  LIG1        0.0278
     40 H           7.4735   -2.0518    0.5952 H       1  LIG1        0.0278
     41 H           6.9066   -0.9100    1.8177 H       1  LIG1        0.0278
     42 O          10.3807    3.0025   -1.4670 O.3     1  LIG1       -0.5061
     43 H           9.7537    3.6819   -1.7366 H       1  LIG1        0.2922
     44 C          12.7613    1.0423    0.8633 C.ar    1  LIG1       -0.0424
     45 C          14.1534    1.0407    0.7312 C.ar    1  LIG1       -0.0548
     46 C          11.9918    1.0076   -0.3064 C.ar    1  LIG1       -0.0080
     47 C          14.7756    1.0111   -0.5077 C.ar    1  LIG1       -0.0199
     48 H          14.7635    1.0733    1.6262 H       1  LIG1        0.0622
     49 C          12.6092    0.9916   -1.5594 C.ar    1  LIG1       -0.0121
     50 C          13.9942    0.9927   -1.6609 C.ar    1  LIG1        0.1175
     51 H          11.9926    0.9882   -2.4515 H       1  LIG1        0.0660
     52 H          15.8526    1.0139   -0.6068 H       1  LIG1        0.0654
     53 C          12.1356    1.1100    2.2472 C.3     1  LIG1       -0.0391
     54 H          12.8215    1.6063    2.9342 H       1  LIG1        0.0278
     55 H          11.9286    0.1109    2.6368 H       1  LIG1        0.0278
     56 H          11.1976    1.6640    2.2192 H       1  LIG1        0.0278
     57 O          14.6429    0.9768   -2.8618 O.3     1  LIG1       -0.5067
     58 H          14.0057    0.9715   -3.5834 H       1  LIG1        0.2921
@<TRIPOS>BOND
     1    58    57    1
     2    57    50    1
     3    11    10    1
     4    51    49    1
     5    12    10    1
     6    26    24    1
     7    10    13    1
     8    10     1    1
     9     5     2    1
    10    43    42    1
    11    50    49   ar
    12    50    47   ar
    13    49    46   ar
    14    42    36    1
    15    25    24    1
    16    24    27    1
    17    24    16    1
    18    37    35    1
    19    20    17    1
    20     2     1   ar
    21     2     4   ar
    22    36    35   ar
    23    36    33   ar
    24     1     3   ar
    25    35    32   ar
    26    52    47    1
    27    17    16   ar
    28    17    19   ar
    29    16    18   ar
    30    47    45   ar
    31    46    33    1
    32    46    44   ar
    33    33    31   ar
    34    32    19    1
    35    32    30   ar
    36    19    22   ar
    37    18     4    1
    38    18    21   ar
    39     4     7   ar
    40    31    30   ar
    41    31    34    1
    42     3     9    1
    43     3     6   ar
    44    30    38    1
    45    40    38    1
    46    22    21   ar
    47    22    28    1
    48    45    44   ar
    49    45    48    1
    50    21    23    1
    51    44    53    1
    52    38    41    1
    53    38    39    1
    54    28    29    1
    55     7     6   ar
    56     7    14    1
    57     6     8    1
    58    56    53    1
    59    53    55    1
    60    53    54    1
    61    14    15    1
