@<TRIPOS>MOLECULE
mol_data/opt/m06hf/geoms/mol2/4if4if-4if-4if.out
 58 61 0 0 0
SMALL
GASTEIGER

@<TRIPOS>ATOM
      1 C          -0.1576    0.5981    0.7998 C.ar    1  LIG1       -0.0496
      2 C           1.2372    0.6617    0.7643 C.ar    1  LIG1       -0.0476
      3 C          -0.8596    1.0957   -0.2940 C.ar    1  LIG1       -0.0554
      4 C           1.9323    1.1980   -0.3173 C.ar    1  LIG1        0.0242
      5 H           1.8133    0.2904    1.6051 H       1  LIG1        0.0627
      6 C          -0.1919    1.6335   -1.3914 C.ar    1  LIG1       -0.0193
      7 C           1.1980    1.6792   -1.4088 C.ar    1  LIG1        0.1246
      8 H          -0.7528    2.0137   -2.2381 H       1  LIG1        0.0654
      9 H          -1.9428    1.0655   -0.2969 H       1  LIG1        0.0621
     10 C          -0.8729   -0.0153    1.9903 C.3     1  LIG1       -0.0397
     11 H          -0.4190    0.3208    2.9229 H       1  LIG1        0.0278
     12 H          -0.8102   -1.1045    1.9515 H       1  LIG1        0.0278
     13 H          -1.9248    0.2698    1.9944 H       1  LIG1        0.0278
     14 O           1.8918    2.1808   -2.4704 O.3     1  LIG1       -0.5062
     15 H           1.2925    2.3862   -3.1956 H       1  LIG1        0.2922
     16 C           4.1383    2.4358   -0.3063 C.ar    1  LIG1       -0.0418
     17 C           5.5271    2.3761   -0.2612 C.ar    1  LIG1       -0.0470
     18 C           3.4288    1.2220   -0.3110 C.ar    1  LIG1       -0.0080
     19 C           6.2220    1.1657   -0.2187 C.ar    1  LIG1        0.0242
     20 H           6.1006    3.2965   -0.2605 H       1  LIG1        0.0628
     21 C           4.1043    0.0070   -0.2601 C.ar    1  LIG1       -0.0115
     22 C           5.4967   -0.0271   -0.2166 C.ar    1  LIG1        0.1251
     23 H           3.5616   -0.9290   -0.2654 H       1  LIG1        0.0660
     24 C           3.4208    3.7719   -0.3292 C.3     1  LIG1       -0.0391
     25 H           2.6291    3.7896    0.4220 H       1  LIG1        0.0278
     26 H           2.9684    3.9336   -1.3083 H       1  LIG1        0.0278
     27 H           4.1236    4.5784   -0.1203 H       1  LIG1        0.0278
     28 O           6.1029   -1.2431   -0.1632 O.3     1  LIG1       -0.5061
     29 H           7.0617   -1.1241   -0.1459 H       1  LIG1        0.2922
     30 C           8.3987    1.4994    1.0127 C.ar    1  LIG1       -0.0418
     31 C           9.7892    1.4158    1.0163 C.ar    1  LIG1       -0.0470
     32 C           7.7175    1.1148   -0.1552 C.ar    1  LIG1       -0.0080
     33 C          10.5096    0.9500   -0.0842 C.ar    1  LIG1        0.0242
     34 H          10.3414    1.6989    1.9054 H       1  LIG1        0.0628
     35 C           8.4228    0.6454   -1.2646 C.ar    1  LIG1       -0.0115
     36 C           9.8131    0.5657   -1.2330 C.ar    1  LIG1        0.1251
     37 H           7.9017    0.3617   -2.1705 H       1  LIG1        0.0660
     38 C           7.6462    1.9748    2.2429 C.3     1  LIG1       -0.0391
     39 H           6.7980    1.3192    2.4438 H       1  LIG1        0.0278
     40 H           7.2590    2.9846    2.0981 H       1  LIG1        0.0278
     41 H           8.3093    1.9773    3.1078 H       1  LIG1        0.0278
     42 O          10.4542    0.1083   -2.3405 O.3     1  LIG1       -0.5061
     43 H          11.4094    0.2074   -2.2221 H       1  LIG1        0.2922
     44 C          12.6401   -0.3914   -0.0556 C.ar    1  LIG1       -0.0424
     45 C          14.0383   -0.4118   -0.0523 C.ar    1  LIG1       -0.0548
     46 C          12.0040    0.8593   -0.0650 C.ar    1  LIG1       -0.0080
     47 C          14.7892    0.7552   -0.0569 C.ar    1  LIG1       -0.0199
     48 H          14.5491   -1.3668   -0.0387 H       1  LIG1        0.0622
     49 C          12.7511    2.0400   -0.0700 C.ar    1  LIG1       -0.0121
     50 C          14.1414    1.9889   -0.0631 C.ar    1  LIG1        0.1175
     51 H          12.2331    2.9928   -0.0856 H       1  LIG1        0.0660
     52 H          15.8706    0.7364   -0.0537 H       1  LIG1        0.0654
     53 C          11.8378   -1.6816   -0.0185 C.3     1  LIG1       -0.0391
     54 H          12.5052   -2.5299    0.1283 H       1  LIG1        0.0278
     55 H          11.2876   -1.8256   -0.9506 H       1  LIG1        0.0278
     56 H          11.1171   -1.6526    0.8000 H       1  LIG1        0.0278
     57 O          14.9181    3.1068   -0.0709 O.3     1  LIG1       -0.5067
     58 H          14.3720    3.8993   -0.0864 H       1  LIG1        0.2921
@<TRIPOS>BOND
     1    15    14    1
     2    14     7    1
     3    42    43    1
     4    42    36    1
     5     8     6    1
     6    37    35    1
     7     7     6   ar
     8     7     4   ar
     9     6     3   ar
    10    26    24    1
    11    35    36   ar
    12    35    32   ar
    13    36    33   ar
    14    55    53    1
    15    24    16    1
    16    24    27    1
    17    24    25    1
    18     4    18    1
    19     4     2   ar
    20    18    16   ar
    21    18    21   ar
    22    16    17   ar
    23     9     3    1
    24     3     1   ar
    25    23    21    1
    26    17    20    1
    27    17    19   ar
    28    21    22   ar
    29    19    22   ar
    30    19    32    1
    31    22    28    1
    32    28    29    1
    33    32    30   ar
    34    58    57    1
    35    51    49    1
    36    33    46    1
    37    33    31   ar
    38    57    50    1
    39    49    46   ar
    40    49    50   ar
    41    46    44   ar
    42    50    47   ar
    43    47    52    1
    44    47    45   ar
    45    44    45   ar
    46    44    53    1
    47    45    48    1
    48    53    54    1
    49    53    56    1
    50     2     1   ar
    51     2     5    1
    52     1    10    1
    53    30    31   ar
    54    30    38    1
    55    31    34    1
    56    12    10    1
    57    10    13    1
    58    10    11    1
    59    40    38    1
    60    38    39    1
    61    38    41    1
