@<TRIPOS>MOLECULE
mol_data/opt/m06hf/geoms/mol2/4if4if4if-4if-.out
 58 61 0 0 0
SMALL
GASTEIGER

@<TRIPOS>ATOM
      1 C          -0.1753   -0.1183   -0.0806 C.ar    1  LIG1       -0.0496
      2 C           1.2185   -0.0635   -0.1244 C.ar    1  LIG1       -0.0476
      3 C          -0.8702    1.0828    0.0455 C.ar    1  LIG1       -0.0554
      4 C           1.9179    1.1395   -0.0520 C.ar    1  LIG1        0.0242
      5 H           1.7889   -0.9807   -0.2252 H       1  LIG1        0.0627
      6 C          -0.1984    2.2990    0.1148 C.ar    1  LIG1       -0.0193
      7 C           1.1928    2.3309    0.0639 C.ar    1  LIG1        0.1246
      8 H          -0.7546    3.2245    0.2139 H       1  LIG1        0.0654
      9 H          -1.9530    1.0740    0.0890 H       1  LIG1        0.0621
     10 C          -0.9082   -1.4426   -0.1993 C.3     1  LIG1       -0.0397
     11 H          -0.3202   -2.2468    0.2432 H       1  LIG1        0.0278
     12 H          -1.0874   -1.6863   -1.2483 H       1  LIG1        0.0278
     13 H          -1.8703   -1.3952    0.3110 H       1  LIG1        0.0278
     14 O           1.8950    3.4967    0.1305 O.3     1  LIG1       -0.5062
     15 H           1.2986    4.2390    0.2726 H       1  LIG1        0.2922
     16 C           4.1694    0.6306    0.9611 C.ar    1  LIG1       -0.0418
     17 C           5.5603    0.6716    0.8513 C.ar    1  LIG1       -0.0470
     18 C           3.4145    1.1630   -0.0897 C.ar    1  LIG1       -0.0080
     19 C           6.2148    1.2187   -0.2505 C.ar    1  LIG1        0.0242
     20 H           6.1693    0.2790    1.6582 H       1  LIG1        0.0628
     21 C           4.0496    1.7171   -1.2006 C.ar    1  LIG1       -0.0115
     22 C           5.4361    1.7402   -1.2884 C.ar    1  LIG1        0.1251
     23 H           3.4465    2.1324   -2.0011 H       1  LIG1        0.0660
     24 C           3.5164    0.0428    2.2003 C.3     1  LIG1       -0.0391
     25 H           4.2295    0.0330    3.0244 H       1  LIG1        0.0278
     26 H           3.1860   -0.9825    2.0212 H       1  LIG1        0.0278
     27 H           2.6457    0.6313    2.4900 H       1  LIG1        0.0278
     28 O           6.0801    2.2563   -2.3747 O.3     1  LIG1       -0.5061
     29 H           5.4390    2.5273   -3.0399 H       1  LIG1        0.2922
     30 C           8.4223    2.4461   -0.3024 C.ar    1  LIG1       -0.0418
     31 C           9.8117    2.3829   -0.3072 C.ar    1  LIG1       -0.0470
     32 C           7.7100    1.2339   -0.3074 C.ar    1  LIG1       -0.0080
     33 C          10.5052    1.1707   -0.3132 C.ar    1  LIG1        0.0242
     34 H          10.3872    3.3022   -0.3052 H       1  LIG1        0.0628
     35 C           8.3837    0.0170   -0.3087 C.ar    1  LIG1       -0.0115
     36 C           9.7767   -0.0206   -0.3141 C.ar    1  LIG1        0.1251
     37 H           7.8388   -0.9178   -0.3140 H       1  LIG1        0.0660
     38 C           7.7096    3.7844   -0.2693 C.3     1  LIG1       -0.0391
     39 H           6.9189    3.7743    0.4830 H       1  LIG1        0.0278
     40 H           7.2555    3.9891   -1.2396 H       1  LIG1        0.0278
     41 H           8.4163    4.5786   -0.0285 H       1  LIG1        0.0278
     42 O          10.3791   -1.2400   -0.3078 O.3     1  LIG1       -0.5061
     43 H          11.3384   -1.1247   -0.3121 H       1  LIG1        0.2922
     44 C          12.7069    1.5067    0.8694 C.ar    1  LIG1       -0.0424
     45 C          14.0969    1.4243    0.8426 C.ar    1  LIG1       -0.0548
     46 C          12.0017    1.1198   -0.2845 C.ar    1  LIG1       -0.0080
     47 C          14.7863    0.9630   -0.2761 C.ar    1  LIG1       -0.0199
     48 H          14.6596    1.7159    1.7213 H       1  LIG1        0.0622
     49 C          12.6825    0.6478   -1.4067 C.ar    1  LIG1       -0.0121
     50 C          14.0750    0.5700   -1.4043 C.ar    1  LIG1        0.1175
     51 H          12.1427    0.3579   -2.2998 H       1  LIG1        0.0660
     52 H          15.8690    0.9048   -0.2654 H       1  LIG1        0.0654
     53 C          11.9821    1.9872    2.1143 C.3     1  LIG1       -0.0391
     54 H          11.1203    1.3519    2.3218 H       1  LIG1        0.0278
     55 H          11.6199    3.0083    1.9850 H       1  LIG1        0.0278
     56 H          12.6574    1.9643    2.9694 H       1  LIG1        0.0278
     57 O          14.6769    0.1046   -2.5337 O.3     1  LIG1       -0.5067
     58 H          15.6345    0.1096   -2.4338 H       1  LIG1        0.2921
@<TRIPOS>BOND
     1    29    28    1
     2    57    58    1
     3    57    50    1
     4    28    22    1
     5    51    49    1
     6    23    21    1
     7    49    50   ar
     8    49    46   ar
     9    50    47   ar
    10    22    21   ar
    11    22    19   ar
    12    12    10    1
    13    40    38    1
    14    21    18   ar
    15    36    33   ar
    16    36    35   ar
    17    36    42    1
    18    37    35    1
    19    33    31   ar
    20    33    46    1
    21    43    42    1
    22    35    32   ar
    23    32    30   ar
    24    32    19    1
    25    31    34    1
    26    31    30   ar
    27    30    38    1
    28    46    44   ar
    29    47    52    1
    30    47    45   ar
    31    38    41    1
    32    38    39    1
    33    19    17   ar
    34     5     2    1
    35    10     1    1
    36    10    11    1
    37    10    13    1
    38     2     1   ar
    39     2     4   ar
    40    18     4    1
    41    18    16   ar
    42     1     3   ar
    43     4     7   ar
    44     3     9    1
    45     3     6   ar
    46     7     6   ar
    47     7    14    1
    48     6     8    1
    49    14    15    1
    50    45    44   ar
    51    45    48    1
    52    17    16   ar
    53    17    20    1
    54    44    53    1
    55    16    24    1
    56    55    53    1
    57    26    24    1
    58    53    54    1
    59    53    56    1
    60    24    27    1
    61    24    25    1
