@<TRIPOS>MOLECULE
mol_data/opt/m06hf/geoms/mol2/4if4if-4if4if-.out
 58 61 0 0 0
SMALL
GASTEIGER

@<TRIPOS>ATOM
      1 C          -0.1696    0.0999    0.2849 C.ar    1  LIG1       -0.0496
      2 C           1.2255    0.1692    0.2851 C.ar    1  LIG1       -0.0476
      3 C          -0.8735    1.1689   -0.2611 C.ar    1  LIG1       -0.0554
      4 C           1.9188    1.2586   -0.2375 C.ar    1  LIG1        0.0242
      5 H           1.8032   -0.6432    0.7130 H       1  LIG1        0.0627
      6 C          -0.2077    2.2682   -0.7971 C.ar    1  LIG1       -0.0193
      7 C           1.1824    2.3127   -0.7931 C.ar    1  LIG1        0.1246
      8 H          -0.7706    3.0915   -1.2232 H       1  LIG1        0.0654
      9 H          -1.9568    1.1499   -0.2727 H       1  LIG1        0.0621
     10 C          -0.8823   -1.1150    0.8516 C.3     1  LIG1       -0.0397
     11 H          -0.4299   -1.4170    1.7965 H       1  LIG1        0.0278
     12 H          -0.8164   -1.9543    0.1567 H       1  LIG1        0.0278
     13 H          -1.9350   -0.8943    1.0267 H       1  LIG1        0.0278
     14 O           1.8730    3.3622   -1.3245 O.3     1  LIG1       -0.5062
     15 H           1.2665    3.9783   -1.7482 H       1  LIG1        0.2922
     16 C           4.1256    2.2361    0.5171 C.ar    1  LIG1       -0.0418
     17 C           5.5157    2.1618    0.5144 C.ar    1  LIG1       -0.0470
     18 C           3.4149    1.2739   -0.2200 C.ar    1  LIG1       -0.0080
     19 C           6.2085    1.1672   -0.1775 C.ar    1  LIG1        0.0242
     20 H           6.0916    2.8837    1.0829 H       1  LIG1        0.0628
     21 C           4.0903    0.2746   -0.9162 C.ar    1  LIG1       -0.0115
     22 C           5.4804    0.2187   -0.8989 C.ar    1  LIG1        0.1251
     23 H           3.5462   -0.4614   -1.4936 H       1  LIG1        0.0660
     24 C           3.4137    3.3142    1.3122 C.3     1  LIG1       -0.0391
     25 H           2.5660    2.8896    1.8525 H       1  LIG1        0.0278
     26 H           3.0374    4.0851    0.6386 H       1  LIG1        0.0278
     27 H           4.0994    3.7655    2.0292 H       1  LIG1        0.0278
     28 O           6.0906   -0.7792   -1.5957 O.3     1  LIG1       -0.5061
     29 H           7.0471   -0.6370   -1.5853 H       1  LIG1        0.2922
     30 C           8.3665    0.0574    0.5040 C.ar    1  LIG1       -0.0418
     31 C           9.7618    0.0443    0.4678 C.ar    1  LIG1       -0.0470
     32 C           7.7036    1.0969   -0.1667 C.ar    1  LIG1       -0.0080
     33 C          10.5102    1.0148   -0.1976 C.ar    1  LIG1        0.0242
     34 H          10.3003   -0.7390    0.9894 H       1  LIG1        0.0628
     35 C           8.4346    2.0741   -0.8442 C.ar    1  LIG1       -0.0115
     36 C           9.8254    2.0370   -0.8647 C.ar    1  LIG1        0.1251
     37 H           7.9007    2.8595   -1.3688 H       1  LIG1        0.0660
     38 C           7.5924   -0.9979    1.2762 C.3     1  LIG1       -0.0391
     39 H           8.2817   -1.6335    1.8308 H       1  LIG1        0.0278
     40 H           7.0046   -1.6214    0.5993 H       1  LIG1        0.0278
     41 H           6.9053   -0.5199    1.9758 H       1  LIG1        0.0278
     42 O          10.5584    2.9674   -1.5371 O.3     1  LIG1       -0.5061
     43 H           9.9763    3.5870   -1.9894 H       1  LIG1        0.2922
     44 C          12.7931    1.9331    0.3868 C.ar    1  LIG1       -0.0424
     45 C          14.1752    1.7671    0.3650 C.ar    1  LIG1       -0.0548
     46 C          12.0043    0.9343   -0.2091 C.ar    1  LIG1       -0.0080
     47 C          14.7767    0.6540   -0.2170 C.ar    1  LIG1       -0.0199
     48 H          14.8029    2.5226    0.8226 H       1  LIG1        0.0622
     49 C          12.5939   -0.1879   -0.7843 C.ar    1  LIG1       -0.0121
     50 C          13.9794   -0.3293   -0.7908 C.ar    1  LIG1        0.1175
     51 H          11.9887   -0.9580   -1.2448 H       1  LIG1        0.0660
     52 H          15.8562    0.5515   -0.2158 H       1  LIG1        0.0654
     53 C          12.1723    3.1471    1.0512 C.3     1  LIG1       -0.0391
     54 H          11.3092    2.8531    1.6507 H       1  LIG1        0.0278
     55 H          11.8372    3.8553    0.2928 H       1  LIG1        0.0278
     56 H          12.9017    3.6328    1.6994 H       1  LIG1        0.0278
     57 O          14.4924   -1.4518   -1.3721 O.3     1  LIG1       -0.5067
     58 H          15.4544   -1.4366   -1.3372 H       1  LIG1        0.2921
@<TRIPOS>BOND
     1    43    42    1
     2    15    14    1
     3    28    29    1
     4    28    22    1
     5    42    36    1
     6    23    21    1
     7    57    58    1
     8    57    50    1
     9    37    35    1
    10    14     7    1
    11    51    49    1
    12     8     6    1
    13    21    22   ar
    14    21    18   ar
    15    22    19   ar
    16    36    35   ar
    17    36    33   ar
    18    35    32   ar
    19     6     7   ar
    20     6     3   ar
    21     7     4   ar
    22    50    49   ar
    23    50    47   ar
    24    49    46   ar
    25     9     3    1
    26     3     1   ar
    27     4    18    1
    28     4     2   ar
    29    18    16   ar
    30    47    52    1
    31    47    45   ar
    32    46    33    1
    33    46    44   ar
    34    33    31   ar
    35    19    32    1
    36    19    17   ar
    37    32    30   ar
    38    12    10    1
    39     1     2   ar
    40     1    10    1
    41     2     5    1
    42    55    53    1
    43    45    44   ar
    44    45    48    1
    45    44    53    1
    46    31    30   ar
    47    31    34    1
    48    30    38    1
    49    17    16   ar
    50    17    20    1
    51    16    24    1
    52    40    38    1
    53    26    24    1
    54    10    13    1
    55    10    11    1
    56    53    54    1
    57    53    56    1
    58    38    39    1
    59    38    41    1
    60    24    25    1
    61    24    27    1
