@<TRIPOS>MOLECULE
mol_data/opt/m06hf/geoms/mol2/4if4if4if4if-.out
 58 61 0 0 0
SMALL
GASTEIGER

@<TRIPOS>ATOM
      1 C          -0.2375    0.5694   -0.9101 C.ar    1  LIG1       -0.0496
      2 C           1.1586    0.5665   -0.9146 C.ar    1  LIG1       -0.0476
      3 C          -0.8829    1.0857    0.2103 C.ar    1  LIG1       -0.0554
      4 C           1.9084    1.0605    0.1500 C.ar    1  LIG1        0.0242
      5 H           1.6898    0.1764   -1.7766 H       1  LIG1        0.0627
      6 C          -0.1601    1.5932    1.2861 C.ar    1  LIG1       -0.0193
      7 C           1.2312    1.5861    1.2577 C.ar    1  LIG1        0.1246
      8 H          -0.6781    1.9923    2.1512 H       1  LIG1        0.0654
      9 H          -1.9656    1.0975    0.2491 H       1  LIG1        0.0621
     10 C          -1.0158    0.0451   -2.1036 C.3     1  LIG1       -0.0397
     11 H          -0.5782   -0.8854   -2.4664 H       1  LIG1        0.0278
     12 H          -0.9997    0.7716   -2.9182 H       1  LIG1        0.0278
     13 H          -2.0537   -0.1437   -1.8306 H       1  LIG1        0.0278
     14 O           1.9804    2.0762    2.2855 O.3     1  LIG1       -0.5062
     15 H           1.4111    2.3593    3.0085 H       1  LIG1        0.2922
     16 C           4.1012   -0.1838    0.0675 C.ar    1  LIG1       -0.0418
     17 C           5.4952   -0.1338    0.0217 C.ar    1  LIG1       -0.0470
     18 C           3.4045    1.0301    0.1170 C.ar    1  LIG1       -0.0080
     19 C           6.2079    1.0631    0.0257 C.ar    1  LIG1        0.0242
     20 H           6.0572   -1.0604   -0.0186 H       1  LIG1        0.0628
     21 C           4.0993    2.2391    0.1247 C.ar    1  LIG1       -0.0115
     22 C           5.4885    2.2619    0.0761 C.ar    1  LIG1        0.1251
     23 H           3.5420    3.1679    0.1791 H       1  LIG1        0.0660
     24 C           3.3891   -1.5260    0.0859 C.3     1  LIG1       -0.0391
     25 H           4.0726   -2.2999    0.4349 H       1  LIG1        0.0278
     26 H           3.0417   -1.8030   -0.9114 H       1  LIG1        0.0278
     27 H           2.5237   -1.4920    0.7478 H       1  LIG1        0.0278
     28 O           6.1913    3.4302    0.0762 O.3     1  LIG1       -0.5061
     29 H           5.5963    4.1743    0.2149 H       1  LIG1        0.2922
     30 C           8.4493    0.5199    1.0451 C.ar    1  LIG1       -0.0418
     31 C           9.8415    0.5485    0.9414 C.ar    1  LIG1       -0.0470
     32 C           7.7039    1.0699   -0.0041 C.ar    1  LIG1       -0.0080
     33 C          10.5063    1.1011   -0.1506 C.ar    1  LIG1        0.0242
     34 H          10.4429    0.1420    1.7471 H       1  LIG1        0.0628
     35 C           8.3508    1.6315   -1.1050 C.ar    1  LIG1       -0.0115
     36 C           9.7375    1.6441   -1.1852 C.ar    1  LIG1        0.1251
     37 H           7.7557    2.0638   -1.9023 H       1  LIG1        0.0660
     38 C           7.7918   -0.0704    2.2812 C.3     1  LIG1       -0.0391
     39 H           8.4887   -0.0389    3.1186 H       1  LIG1        0.0278
     40 H           7.5039   -1.1107    2.1150 H       1  LIG1        0.0278
     41 H           6.8947    0.4904    2.5432 H       1  LIG1        0.0278
     42 O          10.3924    2.1714   -2.2600 O.3     1  LIG1       -0.5061
     43 H           9.7572    2.4615   -2.9228 H       1  LIG1        0.2922
     44 C          12.7248    2.3078   -0.1693 C.ar    1  LIG1       -0.0424
     45 C          14.1145    2.2326   -0.1842 C.ar    1  LIG1       -0.0548
     46 C          12.0018    1.1026   -0.2037 C.ar    1  LIG1       -0.0080
     47 C          14.7867    1.0131   -0.2282 C.ar    1  LIG1       -0.0199
     48 H          14.6919    3.1489   -0.1524 H       1  LIG1        0.0622
     49 C          12.6627   -0.1213   -0.2380 C.ar    1  LIG1       -0.0121
     50 C          14.0551   -0.1680   -0.2529 C.ar    1  LIG1        0.1175
     51 H          12.1077   -1.0498   -0.2670 H       1  LIG1        0.0660
     52 H          15.8708    0.9855   -0.2369 H       1  LIG1        0.0654
     53 C          12.0211    3.6493   -0.1005 C.3     1  LIG1       -0.0391
     54 H          11.2306    3.6254    0.6516 H       1  LIG1        0.0278
     55 H          11.5675    3.8810   -1.0651 H       1  LIG1        0.0278
     56 H          12.7329    4.4328    0.1596 H       1  LIG1        0.0278
     57 O          14.6421   -1.4005   -0.2904 O.3     1  LIG1       -0.5067
     58 H          15.6003   -1.3110   -0.3146 H       1  LIG1        0.2921
@<TRIPOS>BOND
     1    43    42    1
     2    12    10    1
     3    11    10    1
     4    42    36    1
     5    10    13    1
     6    10     1    1
     7    37    35    1
     8     5     2    1
     9    36    35   ar
    10    36    33   ar
    11    35    32   ar
    12    55    53    1
    13     2     1   ar
    14     2     4   ar
    15    26    24    1
    16     1     3   ar
    17    58    57    1
    18    57    50    1
    19    51    49    1
    20    50    49   ar
    21    50    47   ar
    22    49    46   ar
    23    52    47    1
    24    47    45   ar
    25    46    44   ar
    26    46    33    1
    27    45    44   ar
    28    45    48    1
    29    44    53    1
    30    33    31   ar
    31    53    56    1
    32    53    54    1
    33    20    17    1
    34    32    19    1
    35    32    30   ar
    36    17    19   ar
    37    17    16   ar
    38    19    22   ar
    39    16    24    1
    40    16    18   ar
    41    22    28    1
    42    22    21   ar
    43    28    29    1
    44    24    25    1
    45    24    27    1
    46    18    21   ar
    47    18     4    1
    48    21    23    1
    49     4     7   ar
    50     3     9    1
    51     3     6   ar
    52    31    30   ar
    53    31    34    1
    54    30    38    1
    55     7     6   ar
    56     7    14    1
    57     6     8    1
    58    40    38    1
    59    38    41    1
    60    38    39    1
    61    14    15    1
