@<TRIPOS>MOLECULE
mol_data/opt/m06hf/geoms/mol2/4if4if-4if4if.out
 58 61 0 0 0
SMALL
GASTEIGER

@<TRIPOS>ATOM
      1 C          -0.2189    0.1880   -0.1929 C.ar    1  LIG1       -0.0496
      2 C           1.1782    0.1859   -0.1608 C.ar    1  LIG1       -0.0476
      3 C          -0.8680    1.4182   -0.1689 C.ar    1  LIG1       -0.0554
      4 C           1.9232    1.3608   -0.1040 C.ar    1  LIG1        0.0242
      5 H           1.7139   -0.7573   -0.1720 H       1  LIG1        0.0627
      6 C          -0.1488    2.6100   -0.1184 C.ar    1  LIG1       -0.0193
      7 C           1.2409    2.5846   -0.0908 C.ar    1  LIG1        0.1246
      8 H          -0.6699    3.5608   -0.1044 H       1  LIG1        0.0654
      9 H          -1.9507    1.4554   -0.1909 H       1  LIG1        0.0621
     10 C          -0.9890   -1.1186   -0.2636 C.3     1  LIG1       -0.0397
     11 H          -0.6463   -1.8056    0.5111 H       1  LIG1        0.0278
     12 H          -0.8413   -1.5954   -1.2341 H       1  LIG1        0.0278
     13 H          -2.0553   -0.9427   -0.1236 H       1  LIG1        0.0278
     14 O           1.9850    3.7274   -0.0532 O.3     1  LIG1       -0.5062
     15 H           1.4160    4.4990   -0.1414 H       1  LIG1        0.2922
     16 C           4.1486    1.7473    1.0291 C.ar    1  LIG1       -0.0418
     17 C           5.5354    1.6416    0.9835 C.ar    1  LIG1       -0.0470
     18 C           3.4189    1.3074   -0.0879 C.ar    1  LIG1       -0.0080
     19 C           6.2075    1.1120   -0.1198 C.ar    1  LIG1        0.0242
     20 H           6.1246    1.9609    1.8361 H       1  LIG1        0.0628
     21 C           4.0717    0.7764   -1.1965 C.ar    1  LIG1       -0.0115
     22 C           5.4603    0.6838   -1.2188 C.ar    1  LIG1        0.1251
     23 H           3.5136    0.4512   -2.0647 H       1  LIG1        0.0660
     24 C           3.4552    2.3032    2.2581 C.3     1  LIG1       -0.0391
     25 H           2.6368    1.6479    2.5610 H       1  LIG1        0.0278
     26 H           3.0424    3.2886    2.0376 H       1  LIG1        0.0278
     27 H           4.1633    2.3863    3.0825 H       1  LIG1        0.0278
     28 O           6.0488    0.1727   -2.3363 O.3     1  LIG1       -0.5061
     29 H           7.0071    0.2867   -2.2732 H       1  LIG1        0.2922
     30 C           8.3415   -0.2342   -0.1645 C.ar    1  LIG1       -0.0418
     31 C           9.7367   -0.2493   -0.2038 C.ar    1  LIG1       -0.0470
     32 C           7.7005    1.0148   -0.1519 C.ar    1  LIG1       -0.0080
     33 C          10.5047    0.9141   -0.2209 C.ar    1  LIG1        0.0242
     34 H          10.2560   -1.2009   -0.2186 H       1  LIG1        0.0628
     35 C           8.4517    2.1908   -0.1764 C.ar    1  LIG1       -0.0115
     36 C           9.8428    2.1470   -0.2079 C.ar    1  LIG1        0.1251
     37 H           7.9349    3.1447   -0.1772 H       1  LIG1        0.0660
     38 C           7.5468   -1.5279   -0.0966 C.3     1  LIG1       -0.0391
     39 H           8.2226   -2.3743    0.0206 H       1  LIG1        0.0278
     40 H           6.9545   -1.6705   -1.0025 H       1  LIG1        0.0278
     41 H           6.8613   -1.4988    0.7517 H       1  LIG1        0.0278
     42 O          10.5986    3.2789   -0.2353 O.3     1  LIG1       -0.5061
     43 H          10.0404    4.0564   -0.1300 H       1  LIG1        0.2922
     44 C          12.7064    0.2642    0.8157 C.ar    1  LIG1       -0.0424
     45 C          14.1000    0.2055    0.7165 C.ar    1  LIG1       -0.0548
     46 C          11.9999    0.8454   -0.2435 C.ar    1  LIG1       -0.0080
     47 C          14.7807    0.7032   -0.3841 C.ar    1  LIG1       -0.0199
     48 H          14.6647   -0.2352    1.5299 H       1  LIG1        0.0622
     49 C          12.6760    1.3615   -1.3512 C.ar    1  LIG1       -0.0121
     50 C          14.0612    1.2906   -1.4226 C.ar    1  LIG1        0.1175
     51 H          12.1072    1.8232   -2.1510 H       1  LIG1        0.0660
     52 H          15.8589    0.6596   -0.4567 H       1  LIG1        0.0654
     53 C          12.0122   -0.2743    2.0558 C.3     1  LIG1       -0.0391
     54 H          12.6982   -0.2435    2.9024 H       1  LIG1        0.0278
     55 H          11.6943   -1.3093    1.9123 H       1  LIG1        0.0278
     56 H          11.1306    0.3205    2.2936 H       1  LIG1        0.0278
     57 O          14.7688    1.7759   -2.4827 O.3     1  LIG1       -0.5067
     58 H          14.1780    2.1989   -3.1144 H       1  LIG1        0.2921
@<TRIPOS>BOND
     1    58    57    1
     2    57    50    1
     3    28    29    1
     4    28    22    1
     5    51    49    1
     6    23    21    1
     7    50    49   ar
     8    50    47   ar
     9    49    46   ar
    10    12    10    1
    11    22    21   ar
    12    22    19   ar
    13    21    18   ar
    14    40    38    1
    15    52    47    1
    16    47    45   ar
    17    10     1    1
    18    10    13    1
    19    10    11    1
    20    46    33    1
    21    46    44   ar
    22    42    36    1
    23    42    43    1
    24    33    36   ar
    25    33    31   ar
    26    34    31    1
    27    36    35   ar
    28    31    30   ar
    29     1     3   ar
    30     1     2   ar
    31     9     3    1
    32    37    35    1
    33    35    32   ar
    34     5     2    1
    35     3     6   ar
    36    30    32   ar
    37    30    38    1
    38     2     4   ar
    39    32    19    1
    40    15    14    1
    41    19    17   ar
    42     6     8    1
    43     6     7   ar
    44     4     7   ar
    45     4    18    1
    46    38    39    1
    47    38    41    1
    48     7    14    1
    49    18    16   ar
    50    45    44   ar
    51    45    48    1
    52    44    53    1
    53    17    16   ar
    54    17    20    1
    55    16    24    1
    56    55    53    1
    57    26    24    1
    58    53    56    1
    59    53    54    1
    60    24    25    1
    61    24    27    1
