@<TRIPOS>MOLECULE
mol_data/opt/m06hf/geoms/mol2/4if4if4if.out
 44 46 0 0 0
SMALL
GASTEIGER

@<TRIPOS>ATOM
      1 C          -0.1524    0.5323   -0.8052 C.ar    1  LIG1       -0.0496
      2 C           1.2422    0.5248   -0.8183 C.ar    1  LIG1       -0.0476
      3 C          -0.7893    1.1329    0.2786 C.ar    1  LIG1       -0.0554
      4 C           2.0038    1.0906    0.2038 C.ar    1  LIG1        0.0242
      5 H           1.7666    0.0720   -1.6530 H       1  LIG1        0.0627
      6 C          -0.0570    1.7146    1.3080 C.ar    1  LIG1       -0.0193
      7 C           1.3351    1.6993    1.2725 C.ar    1  LIG1        0.1246
      8 H          -0.5676    2.1810    2.1434 H       1  LIG1        0.0654
      9 H          -1.8719    1.1527    0.3229 H       1  LIG1        0.0621
     10 C          -0.9460   -0.0655   -1.9532 C.3     1  LIG1       -0.0397
     11 H          -0.4216   -0.9227   -2.3754 H       1  LIG1        0.0278
     12 H          -1.0877    0.6735   -2.7441 H       1  LIG1        0.0278
     13 H          -1.9270   -0.3943   -1.6102 H       1  LIG1        0.0278
     14 O           2.0863    2.2654    2.2599 O.3     1  LIG1       -0.5062
     15 H           1.5191    2.5584    2.9805 H       1  LIG1        0.2922
     16 C           4.1936   -0.1602    0.0699 C.ar    1  LIG1       -0.0418
     17 C           5.5853   -0.1094   -0.0264 C.ar    1  LIG1       -0.0470
     18 C           3.4983    1.0531    0.1488 C.ar    1  LIG1       -0.0080
     19 C           6.3021    1.0844   -0.0396 C.ar    1  LIG1        0.0242
     20 H           6.1424   -1.0369   -0.0999 H       1  LIG1        0.0628
     21 C           4.1983    2.2604    0.1482 C.ar    1  LIG1       -0.0115
     22 C           5.5842    2.2827    0.0512 C.ar    1  LIG1        0.1251
     23 H           3.6454    3.1896    0.2306 H       1  LIG1        0.0660
     24 C           3.4945   -1.5099    0.1028 C.3     1  LIG1       -0.0391
     25 H           4.1636   -2.2566    0.5307 H       1  LIG1        0.0278
     26 H           3.2202   -1.8370   -0.9024 H       1  LIG1        0.0278
     27 H           2.5876   -1.4608    0.7045 H       1  LIG1        0.0278
     28 O           6.2854    3.4522    0.0373 O.3     1  LIG1       -0.5061
     29 H           5.6890    4.1948    0.1775 H       1  LIG1        0.2922
     30 C           8.5998    0.4341    0.7837 C.ar    1  LIG1       -0.0424
     31 C           9.9833    0.4423    0.5769 C.ar    1  LIG1       -0.0548
     32 C           7.7935    1.0848   -0.1582 C.ar    1  LIG1       -0.0080
     33 C          10.5620    1.0710   -0.5150 C.ar    1  LIG1       -0.0199
     34 H          10.6223   -0.0529    1.2988 H       1  LIG1        0.0622
     35 C           8.3688    1.7354   -1.2529 C.ar    1  LIG1       -0.0121
     36 C           9.7454    1.7291   -1.4324 C.ar    1  LIG1        0.1175
     37 H           7.7257    2.2512   -1.9576 H       1  LIG1        0.0660
     38 H          11.6325    1.0759   -0.6708 H       1  LIG1        0.0654
     39 C           8.0277   -0.2476    2.0158 C.3     1  LIG1       -0.0391
     40 H           8.7588   -0.2140    2.8239 H       1  LIG1        0.0278
     41 H           7.7926   -1.2954    1.8151 H       1  LIG1        0.0278
     42 H           7.1149    0.2486    2.3444 H       1  LIG1        0.0278
     43 O          10.3500    2.3467   -2.4884 O.3     1  LIG1       -0.5067
     44 H           9.6908    2.7795   -3.0407 H       1  LIG1        0.2921
@<TRIPOS>BOND
     1    44    43    1
     2    12    10    1
     3    43    36    1
     4    11    10    1
     5    37    35    1
     6    10    13    1
     7    10     1    1
     8     5     2    1
     9    36    35   ar
    10    36    33   ar
    11    35    32   ar
    12    26    24    1
    13     2     1   ar
    14     2     4   ar
    15     1     3   ar
    16    38    33    1
    17    33    31   ar
    18    32    19    1
    19    32    30   ar
    20    20    17    1
    21    19    17   ar
    22    19    22   ar
    23    17    16   ar
    24    28    22    1
    25    28    29    1
    26    22    21   ar
    27    16    24    1
    28    16    18   ar
    29    24    25    1
    30    24    27    1
    31    21    18   ar
    32    21    23    1
    33    18     4    1
    34     4     7   ar
    35     3     9    1
    36     3     6   ar
    37    31    30   ar
    38    31    34    1
    39    30    39    1
    40     7     6   ar
    41     7    14    1
    42     6     8    1
    43    41    39    1
    44    39    42    1
    45    39    40    1
    46    14    15    1
