@<TRIPOS>MOLECULE
mol_data/opt/m06hf/geoms/mol2/4if4if.out
 30 31 0 0 0
SMALL
GASTEIGER

@<TRIPOS>ATOM
      1 C          -0.0426    0.1788   -0.4886 C.ar    1  LIG1       -0.0496
      2 C           1.3506    0.2048   -0.5645 C.ar    1  LIG1       -0.0476
      3 C          -0.6728    1.1809    0.2456 C.ar    1  LIG1       -0.0554
      4 C           2.1138    1.1892    0.0604 C.ar    1  LIG1        0.0242
      5 H           1.8712   -0.5597   -1.1315 H       1  LIG1        0.0627
      6 C           0.0624    2.1805    0.8745 C.ar    1  LIG1       -0.0193
      7 C           1.4519    2.1896    0.7816 C.ar    1  LIG1        0.1246
      8 H          -0.4435    2.9551    1.4403 H       1  LIG1        0.0654
      9 H          -1.7532    1.1873    0.3293 H       1  LIG1        0.0621
     10 C          -0.8417   -0.8913   -1.2106 C.3     1  LIG1       -0.0397
     11 H          -0.3068   -1.8411   -1.1988 H       1  LIG1        0.0278
     12 H          -1.0095   -0.6048   -2.2508 H       1  LIG1        0.0278
     13 H          -1.8109   -1.0332   -0.7326 H       1  LIG1        0.0278
     14 O           2.2112    3.1511    1.3792 O.3     1  LIG1       -0.5062
     15 H           1.6585    3.7238    1.9209 H       1  LIG1        0.2922
     16 C           4.3547    0.1265    0.5093 C.ar    1  LIG1       -0.0424
     17 C           5.7434    0.1599    0.3494 C.ar    1  LIG1       -0.0548
     18 C           3.6075    1.1759   -0.0378 C.ar    1  LIG1       -0.0080
     19 C           6.3821    1.1909   -0.3233 C.ar    1  LIG1       -0.0199
     20 H           6.3388   -0.6416    0.7704 H       1  LIG1        0.0622
     21 C           4.2415    2.2255   -0.7056 C.ar    1  LIG1       -0.0121
     22 C           5.6230    2.2338   -0.8495 C.ar    1  LIG1        0.1175
     23 H           3.6421    3.0358   -1.1056 H       1  LIG1        0.0660
     24 H           7.4565    1.2145   -0.4437 H       1  LIG1        0.0654
     25 C           3.7054   -1.0150    1.2737 C.3     1  LIG1       -0.0391
     26 H           4.4238   -1.4447    1.9720 H       1  LIG1        0.0278
     27 H           3.3745   -1.8055    0.5966 H       1  LIG1        0.0278
     28 H           2.8380   -0.6618    1.8308 H       1  LIG1        0.0278
     29 O           6.2867    3.2349   -1.4970 O.3     1  LIG1       -0.5067
     30 H           5.6660    3.9117   -1.7851 H       1  LIG1        0.2921
@<TRIPOS>BOND
     1    12    10    1
     2    30    29    1
     3    29    22    1
     4    10    11    1
     5    10    13    1
     6    10     1    1
     7     5     2    1
     8    23    21    1
     9    22    21   ar
    10    22    19   ar
    11    21    18   ar
    12     2     1   ar
    13     2     4   ar
    14     1     3   ar
    15    24    19    1
    16    19    17   ar
    17    18     4    1
    18    18    16   ar
    19     4     7   ar
    20     3     9    1
    21     3     6   ar
    22    17    16   ar
    23    17    20    1
    24    16    25    1
    25    27    25    1
    26     7     6   ar
    27     7    14    1
    28     6     8    1
    29    25    28    1
    30    25    26    1
    31    14    15    1
