@<TRIPOS>MOLECULE
mol_data/opt/m06hf/geoms/mol2/4if4if-4if.out
 44 46 0 0 0
SMALL
GASTEIGER

@<TRIPOS>ATOM
      1 C          -0.0874    0.1355    0.1756 C.ar    1  LIG1       -0.0496
      2 C           1.3077    0.1746    0.1922 C.ar    1  LIG1       -0.0476
      3 C          -0.7649    1.2782   -0.2431 C.ar    1  LIG1       -0.0554
      4 C           2.0277    1.3050   -0.1916 C.ar    1  LIG1        0.0242
      5 H           1.8654   -0.6951    0.5218 H       1  LIG1        0.0627
      6 C          -0.0731    2.4192   -0.6373 C.ar    1  LIG1       -0.0193
      7 C           1.3186    2.4338   -0.6188 C.ar    1  LIG1        0.1246
      8 H          -0.6150    3.3000   -0.9634 H       1  LIG1        0.0654
      9 H          -1.8485    1.2833   -0.2638 H       1  LIG1        0.0621
     10 C          -0.8372   -1.1226    0.5759 C.3     1  LIG1       -0.0397
     11 H          -0.2804   -1.6753    1.3327 H       1  LIG1        0.0278
     12 H          -0.9784   -1.7729   -0.2896 H       1  LIG1        0.0278
     13 H          -1.8176   -0.8716    0.9808 H       1  LIG1        0.0278
     14 O           2.0341    3.5265   -1.0121 O.3     1  LIG1       -0.5062
     15 H           1.4432    4.2028   -1.3594 H       1  LIG1        0.2922
     16 C           4.2539    2.1310    0.6810 C.ar    1  LIG1       -0.0418
     17 C           5.6423    2.0293    0.6656 C.ar    1  LIG1       -0.0470
     18 C           3.5239    1.2857   -0.1711 C.ar    1  LIG1       -0.0080
     19 C           6.3156    1.1200   -0.1520 C.ar    1  LIG1        0.0242
     20 H           6.2322    2.6590    1.3225 H       1  LIG1        0.0628
     21 C           4.1789    0.3730   -0.9939 C.ar    1  LIG1       -0.0115
     22 C           5.5677    0.2909   -0.9910 C.ar    1  LIG1        0.1251
     23 H           3.6201   -0.2687   -1.6625 H       1  LIG1        0.0660
     24 C           3.5638    3.1137    1.6074 C.3     1  LIG1       -0.0391
     25 H           2.7036    2.6441    2.0871 H       1  LIG1        0.0278
     26 H           3.2096    3.9741    1.0385 H       1  LIG1        0.0278
     27 H           4.2564    3.4523    2.3777 H       1  LIG1        0.0278
     28 O           6.1565   -0.6128   -1.8230 O.3     1  LIG1       -0.5061
     29 H           7.1143   -0.4788   -1.8128 H       1  LIG1        0.2922
     30 C           8.4546   -0.1263    0.3171 C.ar    1  LIG1       -0.0424
     31 C           9.8514   -0.1617    0.2640 C.ar    1  LIG1       -0.0548
     32 C           7.8094    1.0262   -0.1576 C.ar    1  LIG1       -0.0080
     33 C          10.5948    0.9016   -0.2292 C.ar    1  LIG1       -0.0199
     34 H          10.3682   -1.0409    0.6292 H       1  LIG1        0.0622
     35 C           8.5500    2.1028   -0.6540 C.ar    1  LIG1       -0.0121
     36 C           9.9394    2.0437   -0.6844 C.ar    1  LIG1        0.1175
     37 H           8.0253    2.9779   -1.0222 H       1  LIG1        0.0660
     38 H          11.6753    0.8730   -0.2658 H       1  LIG1        0.0654
     39 C           7.6639   -1.2824    0.9078 C.3     1  LIG1       -0.0391
     40 H           8.3425   -2.0052    1.3595 H       1  LIG1        0.0278
     41 H           7.0728   -1.7850    0.1395 H       1  LIG1        0.0278
     42 H           6.9779   -0.9124    1.6712 H       1  LIG1        0.0278
     43 O          10.7071    3.0646   -1.1572 O.3     1  LIG1       -0.5067
     44 H          10.1547    3.8133   -1.4049 H       1  LIG1        0.2921
@<TRIPOS>BOND
     1    28    29    1
     2    28    22    1
     3    23    21    1
     4    44    43    1
     5    15    14    1
     6    43    36    1
     7    37    35    1
     8    14     7    1
     9    21    22   ar
    10    21    18   ar
    11    22    19   ar
    12     8     6    1
    13    36    35   ar
    14    36    33   ar
    15    35    32   ar
    16     6     7   ar
    17     6     3   ar
    18     7     4   ar
    19    12    10    1
    20    38    33    1
    21     9     3    1
    22     3     1   ar
    23    33    31   ar
    24     4    18    1
    25     4     2   ar
    26    18    16   ar
    27    32    19    1
    28    32    30   ar
    29    19    17   ar
    30    41    39    1
    31     1     2   ar
    32     1    10    1
    33     2     5    1
    34    31    30   ar
    35    31    34    1
    36    30    39    1
    37    10    13    1
    38    10    11    1
    39    17    16   ar
    40    17    20    1
    41    16    24    1
    42    39    40    1
    43    39    42    1
    44    26    24    1
    45    24    25    1
    46    24    27    1
