@<TRIPOS>MOLECULE
mol_data/opt/m06hf/geoms/mol2/4if4if-4if-4if-.out
 58 61 0 0 0
SMALL
GASTEIGER

@<TRIPOS>ATOM
      1 C          -0.1129    1.1333    1.1020 C.ar    1  LIG1       -0.0496
      2 C           1.2792    1.1782    0.9924 C.ar    1  LIG1       -0.0476
      3 C          -0.8513    0.9709   -0.0662 C.ar    1  LIG1       -0.0554
      4 C           1.9355    1.0666   -0.2310 C.ar    1  LIG1        0.0242
      5 H           1.8836    1.3131    1.8831 H       1  LIG1        0.0627
      6 C          -0.2228    0.8500   -1.3030 C.ar    1  LIG1       -0.0193
      7 C           1.1648    0.8918   -1.3881 C.ar    1  LIG1        0.1246
      8 H          -0.8127    0.7180   -2.2035 H       1  LIG1        0.0654
      9 H          -1.9333    0.9352   -0.0181 H       1  LIG1        0.0621
     10 C          -0.7845    1.2404    2.4594 C.3     1  LIG1       -0.0397
     11 H          -0.3371    2.0446    3.0442 H       1  LIG1        0.0278
     12 H          -0.6699    0.3077    3.0150 H       1  LIG1        0.0278
     13 H          -1.8487    1.4452    2.3452 H       1  LIG1        0.0278
     14 O           1.8209    0.7606   -2.5763 O.3     1  LIG1       -0.5062
     15 H           1.1931    0.5954   -3.2873 H       1  LIG1        0.2922
     16 C           4.1041    2.1548   -0.9424 C.ar    1  LIG1       -0.0418
     17 C           5.4945    2.1483   -0.9161 C.ar    1  LIG1       -0.0470
     18 C           3.4306    1.1092   -0.2877 C.ar    1  LIG1       -0.0080
     19 C           6.2255    1.1505   -0.2679 C.ar    1  LIG1        0.0242
     20 H           6.0417    2.9400   -1.4162 H       1  LIG1        0.0628
     21 C           4.1419    0.1111    0.3704 C.ar    1  LIG1       -0.0115
     22 C           5.5352    0.1250    0.3812 C.ar    1  LIG1        0.1251
     23 H           3.6260   -0.6959    0.8738 H       1  LIG1        0.0660
     24 C           3.3485    3.2674   -1.6433 C.3     1  LIG1       -0.0391
     25 H           2.5449    3.6408   -1.0060 H       1  LIG1        0.0278
     26 H           2.9063    2.8915   -2.5667 H       1  LIG1        0.0278
     27 H           4.0245    4.0896   -1.8775 H       1  LIG1        0.0278
     28 O           6.1765   -0.8737    1.0450 O.3     1  LIG1       -0.5061
     29 H           7.1315   -0.7445    0.9730 H       1  LIG1        0.2922
     30 C           8.4141    2.1479    0.4983 C.ar    1  LIG1       -0.0418
     31 C           9.8056    2.1043    0.4944 C.ar    1  LIG1       -0.0470
     32 C           7.7226    1.1673   -0.2355 C.ar    1  LIG1       -0.0080
     33 C          10.5198    1.1251   -0.1968 C.ar    1  LIG1        0.0242
     34 H          10.3651    2.8536    1.0441 H       1  LIG1        0.0628
     35 C           8.4211    0.1741   -0.9226 C.ar    1  LIG1       -0.0115
     36 C           9.8152    0.1504   -0.9078 C.ar    1  LIG1        0.1251
     37 H           7.8922   -0.5791   -1.4935 H       1  LIG1        0.0660
     38 C           7.6766    3.2197    1.2815 C.3     1  LIG1       -0.0391
     39 H           6.8070    2.7932    1.7822 H       1  LIG1        0.0278
     40 H           7.3262    4.0145    0.6207 H       1  LIG1        0.0278
     41 H           8.3403    3.6580    2.0267 H       1  LIG1        0.0278
     42 O          10.4432   -0.8384   -1.5924 O.3     1  LIG1       -0.5061
     43 H          11.4005   -0.7282   -1.5155 H       1  LIG1        0.2922
     44 C          12.7092    0.6641    0.9682 C.ar    1  LIG1       -0.0424
     45 C          14.1006    0.6323    0.9149 C.ar    1  LIG1       -0.0548
     46 C          12.0174    1.0801   -0.1828 C.ar    1  LIG1       -0.0080
     47 C          14.8017    0.9837   -0.2362 C.ar    1  LIG1       -0.0199
     48 H          14.6550    0.3155    1.7898 H       1  LIG1        0.0622
     49 C          12.7085    1.4225   -1.3445 C.ar    1  LIG1       -0.0121
     50 C          14.1022    1.3763   -1.3720 C.ar    1  LIG1        0.1175
     51 H          12.1765    1.7450   -2.2306 H       1  LIG1        0.0660
     52 H          15.8851    0.9443   -0.2489 H       1  LIG1        0.0654
     53 C          11.9656    0.2468    2.2245 C.3     1  LIG1       -0.0391
     54 H          11.1634   -0.4495    1.9762 H       1  LIG1        0.0278
     55 H          11.5176    1.1103    2.7185 H       1  LIG1        0.0278
     56 H          12.6511   -0.2352    2.9209 H       1  LIG1        0.0278
     57 O          14.7157    1.7245   -2.5358 O.3     1  LIG1       -0.5067
     58 H          15.6728    1.6712   -2.4446 H       1  LIG1        0.2921
@<TRIPOS>BOND
     1    15    14    1
     2    14     7    1
     3    26    24    1
     4    57    58    1
     5    57    50    1
     6    51    49    1
     7     8     6    1
     8    27    24    1
     9    24    25    1
    10    24    16    1
    11    42    43    1
    12    42    36    1
    13    37    35    1
    14    20    17    1
    15     7     6   ar
    16     7     4   ar
    17    50    49   ar
    18    50    47   ar
    19    49    46   ar
    20     6     3   ar
    21    16    17   ar
    22    16    18   ar
    23    35    36   ar
    24    35    32   ar
    25    17    19   ar
    26    36    33   ar
    27    18     4    1
    28    18    21   ar
    29    19    32    1
    30    19    22   ar
    31    52    47    1
    32    47    45   ar
    33    32    30   ar
    34     4     2   ar
    35    33    46    1
    36    33    31   ar
    37    46    44   ar
    38     3     9    1
    39     3     1   ar
    40    21    22   ar
    41    21    23    1
    42    22    28    1
    43    31    30   ar
    44    31    34    1
    45    30    38    1
    46    40    38    1
    47    45    44   ar
    48    45    48    1
    49    44    53    1
    50    29    28    1
    51     2     1   ar
    52     2     5    1
    53     1    10    1
    54    38    39    1
    55    38    41    1
    56    54    53    1
    57    53    55    1
    58    53    56    1
    59    13    10    1
    60    10    12    1
    61    10    11    1
