@<TRIPOS>MOLECULE
mol_data/opt/m06hf/geoms/mol2/4ig.out
 16 16 0 0 0
SMALL
GASTEIGER

@<TRIPOS>ATOM
      1 C           0.0893    0.0353    0.0316 C.ar    1  LIG1       -0.0504
      2 C           1.4820    0.0719   -0.0335 C.ar    1  LIG1       -0.0578
      3 C          -0.6000    1.2455    0.1275 C.ar    1  LIG1       -0.0578
      4 C           2.1712    1.2811   -0.0200 C.ar    1  LIG1       -0.0483
      5 H           2.0379   -0.8554   -0.1063 H       1  LIG1        0.0621
      6 C           0.0786    2.4589    0.1668 C.ar    1  LIG1       -0.0483
      7 C           1.4700    2.4804    0.0826 C.ar    1  LIG1        0.0048
      8 H          -0.4719    3.3850    0.2731 H       1  LIG1        0.0629
      9 H           3.2508    1.2956   -0.0950 H       1  LIG1        0.0629
     10 H          -1.6818    1.2405    0.1865 H       1  LIG1        0.0621
     11 C          -0.6563   -1.2856   -0.0275 C.3     1  LIG1       -0.0397
     12 H          -0.0885   -2.0680    0.4762 H       1  LIG1        0.0278
     13 H          -0.8085   -1.5862   -1.0660 H       1  LIG1        0.0278
     14 H          -1.6309   -1.1984    0.4518 H       1  LIG1        0.0278
     15 S           2.3988    4.0062    0.1749 S.3     1  LIG1       -0.1426
     16 H           1.5963    4.7198   -0.6228 H       1  LIG1        0.1071
@<TRIPOS>BOND
     1    13    11    1
     2    16    15    1
     3     5     2    1
     4     9     4    1
     5     2     4   ar
     6     2     1   ar
     7    11     1    1
     8    11    14    1
     9    11    12    1
    10     4     7   ar
    11     1     3   ar
    12     7     6   ar
    13     7    15    1
    14     3     6   ar
    15     3    10    1
    16     6     8    1
