@<TRIPOS>MOLECULE
mol_data/opt/m06hf/geoms/mol2/4ig4ig4ig.out
 44 46 0 0 0
SMALL
GASTEIGER

@<TRIPOS>ATOM
      1 C          -0.1758    1.0303   -0.9289 C.ar    1  LIG1       -0.0498
      2 C           1.2163    1.0298   -0.9857 C.ar    1  LIG1       -0.0501
      3 C          -0.7796    0.8994    0.3225 C.ar    1  LIG1       -0.0578
      4 C           1.9970    0.9050    0.1639 C.ar    1  LIG1       -0.0042
      5 H           1.7210    1.1225   -1.9413 H       1  LIG1        0.0627
      6 C          -0.0206    0.7833    1.4807 C.ar    1  LIG1       -0.0477
      7 C           1.3729    0.7850    1.4094 C.ar    1  LIG1        0.0125
      8 H          -0.5164    0.6926    2.4392 H       1  LIG1        0.0629
      9 H          -1.8611    0.8922    0.3956 H       1  LIG1        0.0621
     10 C          -1.0122    1.1952   -2.1848 C.3     1  LIG1       -0.0397
     11 H          -0.4493    0.8838   -3.0643 H       1  LIG1        0.0278
     12 H          -1.2994    2.2407   -2.3119 H       1  LIG1        0.0278
     13 H          -1.9204    0.5956   -2.1214 H       1  LIG1        0.0278
     14 S           2.4161    0.6538    2.8489 S.3     1  LIG1       -0.1420
     15 H           1.4200    0.4385    3.7129 H       1  LIG1        0.1071
     16 C           4.1862   -0.3221   -0.0007 C.ar    1  LIG1       -0.0421
     17 C           5.5750   -0.2758   -0.0895 C.ar    1  LIG1       -0.0495
     18 C           3.4919    0.8947    0.0612 C.ar    1  LIG1       -0.0129
     19 C           6.2742    0.9314   -0.1146 C.ar    1  LIG1       -0.0042
     20 H           6.1430   -1.1981   -0.1354 H       1  LIG1        0.0627
     21 C           4.1752    2.1079    0.0259 C.ar    1  LIG1       -0.0400
     22 C           5.5669    2.1352   -0.0623 C.ar    1  LIG1        0.0130
     23 H           3.6049    3.0280    0.0709 H       1  LIG1        0.0635
     24 C           3.4423   -1.6432    0.0318 C.3     1  LIG1       -0.0391
     25 H           4.1450   -2.4717   -0.0484 H       1  LIG1        0.0278
     26 H           2.7306   -1.6992   -0.7934 H       1  LIG1        0.0278
     27 H           2.8872   -1.7386    0.9672 H       1  LIG1        0.0278
     28 S           6.5034    3.6483   -0.1307 S.3     1  LIG1       -0.1420
     29 H           5.4553    4.4595    0.0459 H       1  LIG1        0.1071
     30 C           8.5322    1.0164    0.9890 C.ar    1  LIG1       -0.0426
     31 C           9.9206    1.0059    0.8783 C.ar    1  LIG1       -0.0572
     32 C           7.7708    0.9325   -0.1881 C.ar    1  LIG1       -0.0129
     33 C          10.5484    0.9307   -0.3635 C.ar    1  LIG1       -0.0483
     34 H          10.5239    1.0665    1.7758 H       1  LIG1        0.0621
     35 C           8.3933    0.8373   -1.4301 C.ar    1  LIG1       -0.0406
     36 C           9.7842    0.8519   -1.5225 C.ar    1  LIG1        0.0053
     37 H           7.7884    0.7562   -2.3250 H       1  LIG1        0.0635
     38 H          11.6283    0.9419   -0.4347 H       1  LIG1        0.0629
     39 C           7.8496    1.1257    2.3387 C.3     1  LIG1       -0.0391
     40 H           8.5859    1.0744    3.1399 H       1  LIG1        0.0278
     41 H           7.1243    0.3206    2.4664 H       1  LIG1        0.0278
     42 H           7.3149    2.0756    2.4073 H       1  LIG1        0.0278
     43 S          10.5996    0.7224   -3.1156 S.3     1  LIG1       -0.1426
     44 H          10.1624    1.8930   -3.5923 H       1  LIG1        0.1071
@<TRIPOS>BOND
     1    44    43    1
     2    43    36    1
     3    11    10    1
     4    37    35    1
     5    12    10    1
     6    10    13    1
     7    10     1    1
     8     5     2    1
     9    36    35   ar
    10    36    33   ar
    11    35    32   ar
    12     2     1   ar
    13     2     4   ar
    14     1     3   ar
    15    26    24    1
    16    38    33    1
    17    33    31   ar
    18    32    19    1
    19    32    30   ar
    20    20    17    1
    21    28    22    1
    22    28    29    1
    23    19    17   ar
    24    19    22   ar
    25    17    16   ar
    26    22    21   ar
    27    25    24    1
    28    16    24    1
    29    16    18   ar
    30    21    18   ar
    31    21    23    1
    32    24    27    1
    33    18     4    1
    34     4     7   ar
    35     3     9    1
    36     3     6   ar
    37    31    30   ar
    38    31    34    1
    39    30    39    1
    40     7     6   ar
    41     7    14    1
    42     6     8    1
    43    39    42    1
    44    39    41    1
    45    39    40    1
    46    14    15    1
