@<TRIPOS>MOLECULE
mol_data/opt/m06hf/geoms/mol2/4ig4ig-.out
 30 31 0 0 0
SMALL
GASTEIGER

@<TRIPOS>ATOM
      1 C          -0.0363    0.1139   -0.7962 C.ar    1  LIG1       -0.0498
      2 C           1.3558    0.1708   -0.8131 C.ar    1  LIG1       -0.0501
      3 C          -0.7175    1.0032    0.0361 C.ar    1  LIG1       -0.0578
      4 C           2.0623    1.0807   -0.0260 C.ar    1  LIG1       -0.0042
      5 H           1.9192   -0.5054   -1.4470 H       1  LIG1        0.0627
      6 C          -0.0336    1.9222    0.8227 C.ar    1  LIG1       -0.0477
      7 C           1.3608    1.9643    0.8001 C.ar    1  LIG1        0.0125
      8 H          -0.5884    2.6053    1.4537 H       1  LIG1        0.0629
      9 H          -1.8006    0.9808    0.0696 H       1  LIG1        0.0621
     10 C          -0.7916   -0.8642   -1.6778 C.3     1  LIG1       -0.0397
     11 H          -0.1718   -1.7308   -1.9061 H       1  LIG1        0.0278
     12 H          -1.0743   -0.3851   -2.6172 H       1  LIG1        0.0278
     13 H          -1.6989   -1.2054   -1.1791 H       1  LIG1        0.0278
     14 S           2.3103    3.1093    1.7819 S.3     1  LIG1       -0.1420
     15 H           1.2706    3.5669    2.4877 H       1  LIG1        0.1071
     16 C           4.3096    0.3577    0.8500 C.ar    1  LIG1       -0.0426
     17 C           5.7002    0.4069    0.7680 C.ar    1  LIG1       -0.0572
     18 C           3.5603    1.1091   -0.0685 C.ar    1  LIG1       -0.0129
     19 C           6.3409    1.1859   -0.1924 C.ar    1  LIG1       -0.0483
     20 H           6.2928   -0.1722    1.4656 H       1  LIG1        0.0621
     21 C           4.1977    1.8863   -1.0340 C.ar    1  LIG1       -0.0406
     22 C           5.5891    1.9365   -1.0908 C.ar    1  LIG1        0.0053
     23 H           3.6052    2.4573   -1.7381 H       1  LIG1        0.0635
     24 H           7.4215    1.2161   -0.2450 H       1  LIG1        0.0629
     25 C           3.6125   -0.4788    1.9051 C.3     1  LIG1       -0.0391
     26 H           4.3440   -1.0174    2.5059 H       1  LIG1        0.0278
     27 H           2.9370   -1.1963    1.4365 H       1  LIG1        0.0278
     28 H           3.0212    0.1665    2.5579 H       1  LIG1        0.0278
     29 S           6.4071    2.9267   -2.3452 S.3     1  LIG1       -0.1426
     30 H           6.3704    4.0806   -1.6656 H       1  LIG1        0.1071
@<TRIPOS>BOND
     1    12    10    1
     2    29    30    1
     3    29    22    1
     4    11    10    1
     5    23    21    1
     6    10    13    1
     7    10     1    1
     8     5     2    1
     9    22    21   ar
    10    22    19   ar
    11    21    18   ar
    12     2     1   ar
    13     2     4   ar
    14     1     3   ar
    15    24    19    1
    16    19    17   ar
    17    18     4    1
    18    18    16   ar
    19     4     7   ar
    20     3     9    1
    21     3     6   ar
    22    17    16   ar
    23    17    20    1
    24     7     6   ar
    25     7    14    1
    26     6     8    1
    27    16    25    1
    28    27    25    1
    29    14    15    1
    30    25    26    1
    31    25    28    1
