@<TRIPOS>MOLECULE
mol_data/opt/m06hf/geoms/mol2/4ig4ig4ig-.out
 44 46 0 0 0
SMALL
GASTEIGER

@<TRIPOS>ATOM
      1 C          -0.1694    0.9786   -0.9617 C.ar    1  LIG1       -0.0498
      2 C           1.2230    0.9899   -1.0065 C.ar    1  LIG1       -0.0501
      3 C          -0.7829    0.8535    0.2856 C.ar    1  LIG1       -0.0578
      4 C           1.9947    0.8822    0.1510 C.ar    1  LIG1       -0.0042
      5 H           1.7353    1.0788   -1.9583 H       1  LIG1        0.0627
      6 C          -0.0329    0.7542    1.4513 C.ar    1  LIG1       -0.0477
      7 C           1.3610    0.7679    1.3920 C.ar    1  LIG1        0.0125
      8 H          -0.5363    0.6676    2.4062 H       1  LIG1        0.0629
      9 H          -1.8648    0.8375    0.3494 H       1  LIG1        0.0621
     10 C          -0.9960    1.1252   -2.2264 C.3     1  LIG1       -0.0397
     11 H          -0.4246    0.8052   -3.0972 H       1  LIG1        0.0278
     12 H          -1.2861    2.1679   -2.3685 H       1  LIG1        0.0278
     13 H          -1.9024    0.5228   -2.1632 H       1  LIG1        0.0278
     14 S           2.3931    0.6614    2.8413 S.3     1  LIG1       -0.1420
     15 H           1.3912    0.4541    3.7006 H       1  LIG1        0.1071
     16 C           4.1972   -0.3252    0.0120 C.ar    1  LIG1       -0.0421
     17 C           5.5859   -0.2656   -0.0711 C.ar    1  LIG1       -0.0495
     18 C           3.4905    0.8850    0.0605 C.ar    1  LIG1       -0.0129
     19 C           6.2738    0.9482   -0.1004 C.ar    1  LIG1       -0.0042
     20 H           6.1629   -1.1826   -0.1080 H       1  LIG1        0.0627
     21 C           4.1623    2.1042    0.0197 C.ar    1  LIG1       -0.0400
     22 C           5.5543    2.1450   -0.0589 C.ar    1  LIG1        0.0130
     23 H           3.5827    3.0190    0.0507 H       1  LIG1        0.0635
     24 C           3.4663   -1.6532    0.0532 C.3     1  LIG1       -0.0391
     25 H           4.1746   -2.4750   -0.0444 H       1  LIG1        0.0278
     26 H           2.7386   -1.7121   -0.7576 H       1  LIG1        0.0278
     27 H           2.9308   -1.7572    0.9993 H       1  LIG1        0.0278
     28 S           6.4695    3.6717   -0.1368 S.3     1  LIG1       -0.1420
     29 H           5.4209    4.4593    0.1254 H       1  LIG1        0.1071
     30 C           8.5277    1.0728    1.0086 C.ar    1  LIG1       -0.0426
     31 C           9.9165    1.0687    0.9023 C.ar    1  LIG1       -0.0572
     32 C           7.7706    0.9611   -0.1690 C.ar    1  LIG1       -0.0129
     33 C          10.5487    0.9720   -0.3358 C.ar    1  LIG1       -0.0483
     34 H          10.5164    1.1507    1.8003 H       1  LIG1        0.0621
     35 C           8.3976    0.8441   -1.4068 C.ar    1  LIG1       -0.0406
     36 C           9.7889    0.8646   -1.4952 C.ar    1  LIG1        0.0053
     37 H           7.7962    0.7399   -2.3016 H       1  LIG1        0.0635
     38 H          11.6288    0.9877   -0.4038 H       1  LIG1        0.0629
     39 C           7.8406    1.2037    2.3539 C.3     1  LIG1       -0.0391
     40 H           8.5743    1.1664    3.1584 H       1  LIG1        0.0278
     41 H           7.1154    0.4002    2.4924 H       1  LIG1        0.0278
     42 H           7.3053    2.1544    2.4046 H       1  LIG1        0.0278
     43 S          10.6107    0.7035   -3.0820 S.3     1  LIG1       -0.1426
     44 H          10.1653    1.8581   -3.5891 H       1  LIG1        0.1071
@<TRIPOS>BOND
     1    44    43    1
     2    11    10    1
     3    43    36    1
     4    12    10    1
     5    37    35    1
     6    10    13    1
     7    10     1    1
     8     5     2    1
     9    36    35   ar
    10    36    33   ar
    11    35    32   ar
    12     2     1   ar
    13     2     4   ar
    14     1     3   ar
    15    26    24    1
    16    38    33    1
    17    33    31   ar
    18    32    19    1
    19    32    30   ar
    20    28    22    1
    21    28    29    1
    22    20    17    1
    23    19    17   ar
    24    19    22   ar
    25    17    16   ar
    26    22    21   ar
    27    25    24    1
    28    16    24    1
    29    16    18   ar
    30    21    23    1
    31    21    18   ar
    32    24    27    1
    33    18     4    1
    34     4     7   ar
    35     3     9    1
    36     3     6   ar
    37    31    30   ar
    38    31    34    1
    39    30    39    1
    40     7     6   ar
    41     7    14    1
    42     6     8    1
    43    39    42    1
    44    39    41    1
    45    39    40    1
    46    14    15    1
