@<TRIPOS>MOLECULE
mol_data/opt/m06hf/geoms/mol2/4ig4ig.out
 30 31 0 0 0
SMALL
GASTEIGER

@<TRIPOS>ATOM
      1 C          -0.0446    0.2330   -0.7518 C.ar    1  LIG1       -0.0498
      2 C           1.3466    0.2779   -0.8157 C.ar    1  LIG1       -0.0501
      3 C          -0.6816    1.0242    0.2052 C.ar    1  LIG1       -0.0578
      4 C           2.0949    1.0844    0.0420 C.ar    1  LIG1       -0.0042
      5 H           1.8765   -0.3265   -1.5437 H       1  LIG1        0.0627
      6 C           0.0444    1.8397    1.0644 C.ar    1  LIG1       -0.0477
      7 C           1.4372    1.8754    0.9890 C.ar    1  LIG1        0.0125
      8 H          -0.4768    2.4488    1.7922 H       1  LIG1        0.0629
      9 H          -1.7626    1.0067    0.2795 H       1  LIG1        0.0621
     10 C          -0.8472   -0.6261   -1.7110 C.3     1  LIG1       -0.0397
     11 H          -0.2417   -1.4500   -2.0874 H       1  LIG1        0.0278
     12 H          -1.1833   -0.0291   -2.5614 H       1  LIG1        0.0278
     13 H          -1.7251   -1.0375   -1.2126 H       1  LIG1        0.0278
     14 S           2.4336    2.9074    2.0480 S.3     1  LIG1       -0.1420
     15 H           1.4134    3.3406    2.7951 H       1  LIG1        0.1071
     16 C           4.3671    0.2952    0.7869 C.ar    1  LIG1       -0.0426
     17 C           5.7528    0.3536    0.6539 C.ar    1  LIG1       -0.0572
     18 C           3.5902    1.1031   -0.0571 C.ar    1  LIG1       -0.0129
     19 C           6.3605    1.1897   -0.2780 C.ar    1  LIG1       -0.0483
     20 H           6.3724   -0.2598    1.2969 H       1  LIG1        0.0621
     21 C           4.1907    1.9269   -1.0069 C.ar    1  LIG1       -0.0406
     22 C           5.5791    1.9779   -1.1186 C.ar    1  LIG1        0.0053
     23 H           3.5605    2.5259   -1.6535 H       1  LIG1        0.0635
     24 H           7.4402    1.2345   -0.3453 H       1  LIG1        0.0629
     25 C           3.7099   -0.6076    1.8121 C.3     1  LIG1       -0.0391
     26 H           4.4602   -1.2171    2.3145 H       1  LIG1        0.0278
     27 H           2.9826   -1.2639    1.3315 H       1  LIG1        0.0278
     28 H           3.1843   -0.0069    2.5574 H       1  LIG1        0.0278
     29 S           6.4065    2.9813   -2.3392 S.3     1  LIG1       -0.1426
     30 H           5.4347    3.8884   -2.4774 H       1  LIG1        0.1071
@<TRIPOS>BOND
     1    12    10    1
     2    30    29    1
     3    29    22    1
     4    11    10    1
     5    10    13    1
     6    10     1    1
     7    23    21    1
     8     5     2    1
     9    22    21   ar
    10    22    19   ar
    11    21    18   ar
    12     2     1   ar
    13     2     4   ar
    14     1     3   ar
    15    24    19    1
    16    19    17   ar
    17    18     4    1
    18    18    16   ar
    19     4     7   ar
    20     3     9    1
    21     3     6   ar
    22    17    16   ar
    23    17    20    1
    24    16    25    1
    25     7     6   ar
    26     7    14    1
    27     6     8    1
    28    27    25    1
    29    25    26    1
    30    25    28    1
    31    14    15    1
