@<TRIPOS>MOLECULE
mol_data/opt/m06hf/geoms/mol2/4ig4ig-4ig.out
 44 46 0 0 0
SMALL
GASTEIGER

@<TRIPOS>ATOM
      1 C          -0.1749    0.9465   -0.9434 C.ar    1  LIG1       -0.0498
      2 C           1.2171    0.9687   -0.9957 C.ar    1  LIG1       -0.0501
      3 C          -0.7807    0.8124    0.3067 C.ar    1  LIG1       -0.0578
      4 C           1.9959    0.8630    0.1570 C.ar    1  LIG1       -0.0042
      5 H           1.7234    1.0646   -1.9501 H       1  LIG1        0.0627
      6 C          -0.0237    0.7150    1.4680 C.ar    1  LIG1       -0.0477
      7 C           1.3697    0.7394    1.4012 C.ar    1  LIG1        0.0125
      8 H          -0.5211    0.6213    2.4253 H       1  LIG1        0.0629
      9 H          -1.8621    0.7878    0.3763 H       1  LIG1        0.0621
     10 C          -1.0098    1.0909   -2.2029 C.3     1  LIG1       -0.0397
     11 H          -0.4388    0.7845   -3.0789 H       1  LIG1        0.0278
     12 H          -1.3141    2.1307   -2.3363 H       1  LIG1        0.0278
     13 H          -1.9079    0.4763   -2.1394 H       1  LIG1        0.0278
     14 S           2.4102    0.6331    2.8448 S.3     1  LIG1       -0.1420
     15 H           1.4149    0.4059    3.7066 H       1  LIG1        0.1071
     16 C           4.2056   -0.3289    0.0063 C.ar    1  LIG1       -0.0421
     17 C           5.5937   -0.2603   -0.0784 C.ar    1  LIG1       -0.0495
     18 C           3.4912    0.8767    0.0592 C.ar    1  LIG1       -0.0129
     19 C           6.2731    0.9581   -0.1080 C.ar    1  LIG1       -0.0042
     20 H           6.1769   -1.1733   -0.1174 H       1  LIG1        0.0627
     21 C           4.1546    2.1008    0.0194 C.ar    1  LIG1       -0.0400
     22 C           5.5459    2.1504   -0.0646 C.ar    1  LIG1        0.0130
     23 H           3.5691    3.0116    0.0575 H       1  LIG1        0.0635
     24 C           3.4834   -1.6618    0.0439 C.3     1  LIG1       -0.0391
     25 H           4.1998   -2.4790   -0.0304 H       1  LIG1        0.0278
     26 H           2.7747   -1.7337   -0.7827 H       1  LIG1        0.0278
     27 H           2.9276   -1.7615    0.9784 H       1  LIG1        0.0278
     28 S           6.4577    3.6783   -0.1385 S.3     1  LIG1       -0.1420
     29 H           5.3959    4.4731    0.0305 H       1  LIG1        0.1071
     30 C           8.5258    1.0863    1.0020 C.ar    1  LIG1       -0.0426
     31 C           9.9146    1.0982    0.8956 C.ar    1  LIG1       -0.0572
     32 C           7.7697    0.9835   -0.1770 C.ar    1  LIG1       -0.0129
     33 C          10.5474    1.0267   -0.3438 C.ar    1  LIG1       -0.0483
     34 H          10.5139    1.1736    1.7946 H       1  LIG1        0.0621
     35 C           8.3975    0.8920   -1.4165 C.ar    1  LIG1       -0.0406
     36 C           9.7884    0.9290   -1.5047 C.ar    1  LIG1        0.0053
     37 H           7.7969    0.7960   -2.3128 H       1  LIG1        0.0635
     38 H          11.6272    1.0554   -0.4118 H       1  LIG1        0.0629
     39 C           7.8373    1.1916    2.3490 C.3     1  LIG1       -0.0391
     40 H           8.5718    1.1565    3.1528 H       1  LIG1        0.0278
     41 H           7.1247    0.3755    2.4787 H       1  LIG1        0.0278
     42 H           7.2871    2.1331    2.4109 H       1  LIG1        0.0278
     43 S          10.6108    0.8044   -3.0946 S.3     1  LIG1       -0.1426
     44 H          10.1560    1.9651   -3.5789 H       1  LIG1        0.1071
@<TRIPOS>BOND
     1    44    43    1
     2    43    36    1
     3    11    10    1
     4    12    10    1
     5    37    35    1
     6    10    13    1
     7    10     1    1
     8     5     2    1
     9    36    35   ar
    10    36    33   ar
    11    35    32   ar
    12     2     1   ar
    13     2     4   ar
    14     1     3   ar
    15    26    24    1
    16    38    33    1
    17    33    31   ar
    18    32    19    1
    19    32    30   ar
    20    28    22    1
    21    28    29    1
    22    20    17    1
    23    19    17   ar
    24    19    22   ar
    25    17    16   ar
    26    22    21   ar
    27    25    24    1
    28    16    24    1
    29    16    18   ar
    30    21    23    1
    31    21    18   ar
    32    24    27    1
    33    18     4    1
    34     4     7   ar
    35     3     9    1
    36     3     6   ar
    37    31    30   ar
    38    31    34    1
    39    30    39    1
    40     7     6   ar
    41     7    14    1
    42     6     8    1
    43    39    42    1
    44    39    41    1
    45    39    40    1
    46    14    15    1
