@<TRIPOS>MOLECULE
mol_data/opt/m06hf/geoms/mol2/4ig4ig-4ig-.out
 44 46 0 0 0
SMALL
GASTEIGER

@<TRIPOS>ATOM
      1 C          -0.1777    1.0314   -0.9147 C.ar    1  LIG1       -0.0498
      2 C           1.2142    1.0249   -0.9752 C.ar    1  LIG1       -0.0501
      3 C          -0.7786    0.9242    0.3405 C.ar    1  LIG1       -0.0578
      4 C           1.9976    0.9172    0.1742 C.ar    1  LIG1       -0.0042
      5 H           1.7165    1.0994   -1.9336 H       1  LIG1        0.0627
      6 C          -0.0167    0.8254    1.4984 C.ar    1  LIG1       -0.0477
      7 C           1.3765    0.8210    1.4233 C.ar    1  LIG1        0.0125
      8 H          -0.5102    0.7529    2.4597 H       1  LIG1        0.0629
      9 H          -1.8598    0.9222    0.4166 H       1  LIG1        0.0621
     10 C          -1.0170    1.1777   -2.1710 C.3     1  LIG1       -0.0397
     11 H          -0.4579    0.8486   -3.0464 H       1  LIG1        0.0278
     12 H          -1.3003    2.2219   -2.3155 H       1  LIG1        0.0278
     13 H          -1.9274    0.5830   -2.0945 H       1  LIG1        0.0278
     14 S           2.4233    0.7107    2.8620 S.3     1  LIG1       -0.1420
     15 H           1.4288    0.5139    3.7323 H       1  LIG1        0.1071
     16 C           4.1820   -0.3204    0.0248 C.ar    1  LIG1       -0.0421
     17 C           5.5707   -0.2807   -0.0687 C.ar    1  LIG1       -0.0495
     18 C           3.4923    0.8998    0.0676 C.ar    1  LIG1       -0.0129
     19 C           6.2742    0.9234   -0.1166 C.ar    1  LIG1       -0.0042
     20 H           6.1353   -1.2056   -0.1003 H       1  LIG1        0.0627
     21 C           4.1797    2.1098    0.0095 C.ar    1  LIG1       -0.0400
     22 C           5.5713    2.1305   -0.0831 C.ar    1  LIG1        0.0130
     23 H           3.6128    3.0325    0.0403 H       1  LIG1        0.0635
     24 C           3.4335   -1.6380    0.0820 C.3     1  LIG1       -0.0391
     25 H           4.1332   -2.4703    0.0171 H       1  LIG1        0.0278
     26 H           2.7215   -1.7068   -0.7421 H       1  LIG1        0.0278
     27 H           2.8781   -1.7141    1.0189 H       1  LIG1        0.0278
     28 S           6.5129    3.6389   -0.1804 S.3     1  LIG1       -0.1420
     29 H           5.4682    4.4567   -0.0147 H       1  LIG1        0.1071
     30 C           8.5358    1.0194    0.9785 C.ar    1  LIG1       -0.0426
     31 C           9.9239    1.0022    0.8638 C.ar    1  LIG1       -0.0572
     32 C           7.7705    0.9179   -0.1947 C.ar    1  LIG1       -0.0129
     33 C          10.5475    0.9035   -0.3784 C.ar    1  LIG1       -0.0483
     34 H          10.5301    1.0762    1.7583 H       1  LIG1        0.0621
     35 C           8.3888    0.7992   -1.4367 C.ar    1  LIG1       -0.0406
     36 C           9.7795    0.8073   -1.5336 C.ar    1  LIG1        0.0053
     37 H           7.7808    0.7048   -2.3282 H       1  LIG1        0.0635
     38 H          11.6272    0.9097   -0.4532 H       1  LIG1        0.0629
     39 C           7.8578    1.1543    2.3282 C.3     1  LIG1       -0.0391
     40 H           8.5964    1.1135    3.1280 H       1  LIG1        0.0278
     41 H           7.1297    0.3544    2.4717 H       1  LIG1        0.0278
     42 H           7.3272    2.1074    2.3824 H       1  LIG1        0.0278
     43 S          10.5895    0.6473   -3.1266 S.3     1  LIG1       -0.1426
     44 H          10.1550    1.8110   -3.6223 H       1  LIG1        0.1071
@<TRIPOS>BOND
     1    44    43    1
     2    43    36    1
     3    11    10    1
     4    37    35    1
     5    12    10    1
     6    10    13    1
     7    10     1    1
     8     5     2    1
     9    36    35   ar
    10    36    33   ar
    11    35    32   ar
    12     2     1   ar
    13     2     4   ar
    14     1     3   ar
    15    26    24    1
    16    38    33    1
    17    33    31   ar
    18    32    19    1
    19    32    30   ar
    20    28    22    1
    21    28    29    1
    22    19    22   ar
    23    19    17   ar
    24    20    17    1
    25    22    21   ar
    26    17    16   ar
    27    21    23    1
    28    21    18   ar
    29    25    24    1
    30    16    18   ar
    31    16    24    1
    32    18     4    1
    33    24    27    1
    34     4     7   ar
    35     3     9    1
    36     3     6   ar
    37    31    30   ar
    38    31    34    1
    39    30    39    1
    40     7     6   ar
    41     7    14    1
    42     6     8    1
    43    39    42    1
    44    39    41    1
    45    39    40    1
    46    14    15    1
