@<TRIPOS>MOLECULE
mol_data/opt/m06hf/geoms/mol2/4ig4ig4ig-4ig-.out
 58 61 0 0 0
SMALL
GASTEIGER

@<TRIPOS>ATOM
      1 C          -0.2173    1.7730   -0.5599 C.ar    1  LIG1       -0.0498
      2 C           1.1748    1.7410   -0.5847 C.ar    1  LIG1       -0.0501
      3 C          -0.8803    0.8318    0.2302 C.ar    1  LIG1       -0.0578
      4 C           1.8990    0.8013    0.1503 C.ar    1  LIG1       -0.0042
      5 H           1.7244    2.4536   -1.1896 H       1  LIG1        0.0627
      6 C          -0.1780   -0.1069    0.9753 C.ar    1  LIG1       -0.0477
      7 C           1.2172   -0.1303    0.9379 C.ar    1  LIG1        0.0125
      8 H          -0.7181   -0.8192    1.5862 H       1  LIG1        0.0629
      9 H          -1.9638    0.8327    0.2657 H       1  LIG1        0.0621
     10 C          -0.9960    2.8117   -1.3462 C.3     1  LIG1       -0.0397
     11 H          -0.3718    3.2533   -2.1223 H       1  LIG1        0.0278
     12 H          -1.3381    3.6086   -0.6831 H       1  LIG1        0.0278
     13 H          -1.8693    2.3585   -1.8163 H       1  LIG1        0.0278
     14 S           2.1901   -1.2983    1.8690 S.3     1  LIG1       -0.1420
     15 H           1.1513   -2.0422    2.2650 H       1  LIG1        0.1071
     16 C           4.0613   -0.0473   -0.8164 C.ar    1  LIG1       -0.0421
     17 C           5.4533   -0.0251   -0.8241 C.ar    1  LIG1       -0.0495
     18 C           3.3967    0.7900    0.0916 C.ar    1  LIG1       -0.0129
     19 C           6.1843    0.7933    0.0378 C.ar    1  LIG1       -0.0042
     20 H           5.9990   -0.6616   -1.5115 H       1  LIG1        0.0627
     21 C           4.1127    1.6181    0.9522 C.ar    1  LIG1       -0.0400
     22 C           5.5073    1.6271    0.9314 C.ar    1  LIG1        0.0130
     23 H           3.5645    2.2516    1.6395 H       1  LIG1        0.0635
     24 C           3.2806   -0.9515   -1.7500 C.3     1  LIG1       -0.0391
     25 H           3.9615   -1.5023   -2.3978 H       1  LIG1        0.0278
     26 H           2.5980   -0.3648   -2.3670 H       1  LIG1        0.0278
     27 H           2.6884   -1.6627   -1.1705 H       1  LIG1        0.0278
     28 S           6.4811    2.6742    1.9952 S.3     1  LIG1       -0.1420
     29 H           5.4406    3.1737    2.6708 H       1  LIG1        0.1071
     30 C           8.3990   -0.0408    0.8891 C.ar    1  LIG1       -0.0421
     31 C           9.7895   -0.0136    0.8180 C.ar    1  LIG1       -0.0495
     32 C           7.6821    0.7774    0.0044 C.ar    1  LIG1       -0.0129
     33 C          10.4676    0.7982   -0.0922 C.ar    1  LIG1       -0.0042
     34 H          10.3756   -0.6342    1.4863 H       1  LIG1        0.0627
     35 C           8.3446    1.5870   -0.9150 C.ar    1  LIG1       -0.0400
     36 C           9.7378    1.6041   -0.9696 C.ar    1  LIG1        0.0130
     37 H           7.7557    2.2045   -1.5827 H       1  LIG1        0.0635
     38 C           7.6759   -0.9203    1.8912 C.3     1  LIG1       -0.0391
     39 H           8.3921   -1.5249    2.4462 H       1  LIG1        0.0278
     40 H           6.9717   -1.5797    1.3813 H       1  LIG1        0.0278
     41 H           7.1128   -0.3028    2.5942 H       1  LIG1        0.0278
     42 S          10.6471    2.6105   -2.1242 S.3     1  LIG1       -0.1420
     43 H           9.5699    3.2244   -2.6273 H       1  LIG1        0.1071
     44 C          12.6836    1.7471    0.6283 C.ar    1  LIG1       -0.0426
     45 C          14.0754    1.7175    0.5698 C.ar    1  LIG1       -0.0572
     46 C          11.9657    0.8061   -0.1267 C.ar    1  LIG1       -0.0129
     47 C          14.7476    0.7910   -0.2246 C.ar    1  LIG1       -0.0483
     48 H          14.6452    2.4342    1.1482 H       1  LIG1        0.0621
     49 C          12.6337   -0.1312   -0.9112 C.ar    1  LIG1       -0.0406
     50 C          14.0262   -0.1338   -0.9721 C.ar    1  LIG1        0.0053
     51 H          12.0633   -0.8580   -1.4765 H       1  LIG1        0.0635
     52 H          15.8288    0.7868   -0.2699 H       1  LIG1        0.0629
     53 C          11.9519    2.7670    1.4796 C.3     1  LIG1       -0.0391
     54 H          12.6648    3.3903    2.0179 H       1  LIG1        0.0278
     55 H          11.3004    2.2666    2.1977 H       1  LIG1        0.0278
     56 H          11.3302    3.4033    0.8465 H       1  LIG1        0.0278
     57 S          14.8944   -1.3521   -1.9628 S.3     1  LIG1       -0.1426
     58 H          14.5766   -0.8265   -3.1518 H       1  LIG1        0.1071
@<TRIPOS>BOND
     1    58    57    1
     2    43    42    1
     3    25    24    1
     4    26    24    1
     5    42    36    1
     6    11    10    1
     7    57    50    1
     8    13    10    1
     9    24    27    1
    10    24    16    1
    11    37    35    1
    12    20    17    1
    13    51    49    1
    14    10    12    1
    15    10     1    1
    16     5     2    1
    17    50    49   ar
    18    50    47   ar
    19    36    35   ar
    20    36    33   ar
    21    35    32   ar
    22    49    46   ar
    23    17    16   ar
    24    17    19   ar
    25    16    18   ar
    26     2     1   ar
    27     2     4   ar
    28     1     3   ar
    29    52    47    1
    30    47    45   ar
    31    46    33    1
    32    46    44   ar
    33    33    31   ar
    34    32    19    1
    35    32    30   ar
    36    19    22   ar
    37    18     4    1
    38    18    21   ar
    39     4     7   ar
    40     3     9    1
    41     3     6   ar
    42    45    44   ar
    43    45    48    1
    44    44    53    1
    45    31    30   ar
    46    31    34    1
    47    56    53    1
    48    30    38    1
    49    22    21   ar
    50    22    28    1
    51     7     6   ar
    52     7    14    1
    53    21    23    1
    54     6     8    1
    55    40    38    1
    56    53    54    1
    57    53    55    1
    58    14    15    1
    59    38    39    1
    60    38    41    1
    61    28    29    1
