@<TRIPOS>MOLECULE
mol_data/opt/m06hf/geoms/mol2/4ig4ig-4ig-4ig-.out
 58 61 0 0 0
SMALL
GASTEIGER

@<TRIPOS>ATOM
      1 C          -0.2302    1.7152   -0.5562 C.ar    1  LIG1       -0.0498
      2 C           1.1614    1.6868   -0.6003 C.ar    1  LIG1       -0.0501
      3 C          -0.8773    0.8109    0.2885 C.ar    1  LIG1       -0.0578
      4 C           1.9003    0.7884    0.1706 C.ar    1  LIG1       -0.0042
      5 H           1.6991    2.3719   -1.2464 H       1  LIG1        0.0627
      6 C          -0.1603   -0.0892    1.0664 C.ar    1  LIG1       -0.0477
      7 C           1.2345   -0.1063    1.0129 C.ar    1  LIG1        0.0125
      8 H          -0.6893   -0.7779    1.7130 H       1  LIG1        0.0629
      9 H          -1.9601    0.8089    0.3392 H       1  LIG1        0.0621
     10 C          -1.0254    2.7109   -1.3806 C.3     1  LIG1       -0.0397
     11 H          -0.4092    3.1304   -2.1752 H       1  LIG1        0.0278
     12 H          -1.3779    3.5283   -0.7488 H       1  LIG1        0.0278
     13 H          -1.8930    2.2270   -1.8304 H       1  LIG1        0.0278
     14 S           2.2281   -1.2290    1.9765 S.3     1  LIG1       -0.1420
     15 H           1.1959   -1.8403    2.5664 H       1  LIG1        0.1071
     16 C           4.0571   -0.0641   -0.8064 C.ar    1  LIG1       -0.0421
     17 C           5.4494   -0.0382   -0.8251 C.ar    1  LIG1       -0.0495
     18 C           3.3973    0.7815    0.0970 C.ar    1  LIG1       -0.0129
     19 C           6.1840    0.7900    0.0237 C.ar    1  LIG1       -0.0042
     20 H           5.9916   -0.6795   -1.5109 H       1  LIG1        0.0627
     21 C           4.1175    1.6179    0.9464 C.ar    1  LIG1       -0.0400
     22 C           5.5115    1.6283    0.9169 C.ar    1  LIG1        0.0130
     23 H           3.5725    2.2537    1.6339 H       1  LIG1        0.0635
     24 C           3.2719   -0.9812   -1.7242 C.3     1  LIG1       -0.0391
     25 H           3.9506   -1.5486   -2.3599 H       1  LIG1        0.0278
     26 H           2.5946   -0.4024   -2.3542 H       1  LIG1        0.0278
     27 H           2.6731   -1.6777   -1.1339 H       1  LIG1        0.0278
     28 S           6.4927    2.6747    1.9738 S.3     1  LIG1       -0.1420
     29 H           5.4559    3.1832    2.6479 H       1  LIG1        0.1071
     30 C           8.4040   -0.0716    0.8317 C.ar    1  LIG1       -0.0421
     31 C           9.7941   -0.0350    0.7602 C.ar    1  LIG1       -0.0495
     32 C           7.6818    0.7794   -0.0169 C.ar    1  LIG1       -0.0129
     33 C          10.4670    0.8190   -0.1144 C.ar    1  LIG1       -0.0042
     34 H          10.3842   -0.6800    1.4017 H       1  LIG1        0.0627
     35 C           8.3390    1.6323   -0.9002 C.ar    1  LIG1       -0.0400
     36 C           9.7321    1.6589   -0.9548 C.ar    1  LIG1        0.0130
     37 H           7.7464    2.2761   -1.5394 H       1  LIG1        0.0635
     38 C           7.6859   -0.9927    1.7994 C.3     1  LIG1       -0.0391
     39 H           8.4071   -1.5929    2.3525 H       1  LIG1        0.0278
     40 H           7.0070   -1.6569    1.2623 H       1  LIG1        0.0278
     41 H           7.0951   -0.4061    2.5061 H       1  LIG1        0.0278
     42 S          10.6354    2.7193   -2.0649 S.3     1  LIG1       -0.1420
     43 H           9.5584    3.3644   -2.5226 H       1  LIG1        0.1071
     44 C          12.6807    1.7510    0.6363 C.ar    1  LIG1       -0.0426
     45 C          14.0726    1.7283    0.5757 C.ar    1  LIG1       -0.0572
     46 C          11.9650    0.8347   -0.1504 C.ar    1  LIG1       -0.0129
     47 C          14.7467    0.8320   -0.2511 C.ar    1  LIG1       -0.0483
     48 H          14.6407    2.4259    1.1792 H       1  LIG1        0.0621
     49 C          12.6352   -0.0715   -0.9692 C.ar    1  LIG1       -0.0406
     50 C          14.0277   -0.0668   -1.0315 C.ar    1  LIG1        0.0053
     51 H          12.0670   -0.7787   -1.5612 H       1  LIG1        0.0635
     52 H          15.8281    0.8319   -0.2965 H       1  LIG1        0.0629
     53 C          11.9466    2.7370    1.5248 C.3     1  LIG1       -0.0391
     54 H          12.6579    3.3505    2.0763 H       1  LIG1        0.0278
     55 H          11.3070    2.2074    2.2328 H       1  LIG1        0.0278
     56 H          11.3127    3.3861    0.9174 H       1  LIG1        0.0278
     57 S          14.8988   -1.2393   -2.0739 S.3     1  LIG1       -0.1426
     58 H          14.6224   -0.6324   -3.2357 H       1  LIG1        0.1071
@<TRIPOS>BOND
     1    58    57    1
     2    43    42    1
     3    25    24    1
     4    26    24    1
     5    11    10    1
     6    57    50    1
     7    42    36    1
     8    13    10    1
     9    24    27    1
    10    24    16    1
    11    51    49    1
    12    37    35    1
    13    20    17    1
    14    10    12    1
    15    10     1    1
    16     5     2    1
    17    50    49   ar
    18    50    47   ar
    19    49    46   ar
    20    36    35   ar
    21    36    33   ar
    22    35    32   ar
    23    17    16   ar
    24    17    19   ar
    25    16    18   ar
    26     2     1   ar
    27     2     4   ar
    28     1     3   ar
    29    52    47    1
    30    47    45   ar
    31    46    33    1
    32    46    44   ar
    33    33    31   ar
    34    32    19    1
    35    32    30   ar
    36    19    22   ar
    37    18     4    1
    38    18    21   ar
    39     4     7   ar
    40     3     9    1
    41     3     6   ar
    42    45    44   ar
    43    45    48    1
    44    44    53    1
    45    31    30   ar
    46    31    34    1
    47    30    38    1
    48    22    21   ar
    49    22    28    1
    50    56    53    1
    51    21    23    1
    52     7     6   ar
    53     7    14    1
    54     6     8    1
    55    40    38    1
    56    53    54    1
    57    53    55    1
    58    38    39    1
    59    38    41    1
    60    28    29    1
    61    14    15    1
