@<TRIPOS>MOLECULE
mol_data/opt/m06hf/geoms/mol2/4ih12ef-6ee12if.out
 51 54 0 0 0
SMALL
GASTEIGER

@<TRIPOS>ATOM
      1 C           0.0982   -0.3996   -0.6072 C.ar    1  LIG1       -0.0497
      2 C           1.4275   -0.1356   -0.3244 C.ar    1  LIG1       -0.0464
      3 C          -0.7770    0.6919   -0.6707 C.ar    1  LIG1       -0.0571
      4 C           1.9033    1.1650   -0.0966 C.ar    1  LIG1        0.0395
      5 H           2.1357   -0.9538   -0.2806 H       1  LIG1        0.0628
      6 C          -0.3315    1.9829   -0.4624 C.ar    1  LIG1       -0.0401
      7 C           1.0168    2.2583   -0.1726 C.ar    1  LIG1        0.0354
      8 H          -1.0284    2.8112   -0.5125 H       1  LIG1        0.0636
      9 H          -1.8251    0.5227   -0.8911 H       1  LIG1        0.0621
     10 C          -0.3999   -1.8123   -0.8501 C.3     1  LIG1       -0.0397
     11 H           0.4096   -2.5292   -0.7160 H       1  LIG1        0.0278
     12 H          -0.7884   -1.9141   -1.8650 H       1  LIG1        0.0278
     13 H          -1.2004   -2.0599   -0.1509 H       1  LIG1        0.0278
     14 N           1.3967    3.5654    0.0780 N.pl3   1  LIG1       -0.3574
     15 H           2.3742    3.7970   -0.0240 H       1  LIG1        0.1423
     16 H           0.7694    4.2688   -0.2823 H       1  LIG1        0.1423
     17 C           3.3277    1.3273    0.2218 C.ar    1  LIG1        0.1565
     18 C           4.2577    0.4697    0.7600 C.ar    1  LIG1        0.1125
     19 C           5.4950    1.2018    0.7854 C.ar    1  LIG1        0.1791
     20 C           5.2379    2.4352    0.2790 C.ar    1  LIG1        0.1808
     21 O           3.9215    2.5029   -0.0633 O.2     1  LIG1       -0.4496
     22 C           4.0842   -0.8595    1.2545 C.1     1  LIG1       -0.0622
     23 C           3.9629   -1.9780    1.6760 C.1     1  LIG1       -0.1137
     24 H           3.8581   -2.9660    2.0599 H       1  LIG1        0.1232
     25 O           6.6541    0.6943    1.2595 O.3     1  LIG1       -0.5024
     26 H           7.2589    1.4092    1.4917 H       1  LIG1        0.2923
     27 C           5.7612    4.8961    0.4599 C.ar    1  LIG1        0.1248
     28 C           6.1170    3.5887    0.0686 C.ar    1  LIG1        0.0559
     29 C           7.3619    3.4169   -0.5261 C.ar    1  LIG1       -0.0307
     30 C           8.2041    4.5154   -0.7086 C.ar    1  LIG1        0.0544
     31 C           7.7555    5.7736   -0.2677 C.ar    1  LIG1        0.1231
     32 N           6.5565    5.9446    0.2858 N.ar    1  LIG1       -0.2334
     33 H           7.6640    2.4412   -0.8861 H       1  LIG1        0.0638
     34 C           4.4964    5.1270    1.1270 C.1     1  LIG1       -0.0491
     35 C           3.4557    5.2758    1.7084 C.1     1  LIG1       -0.1124
     36 H           2.5257    5.3830    2.2191 H       1  LIG1        0.1232
     37 C           9.4532    4.3410   -1.4040 C.1     1  LIG1       -0.0674
     38 C          10.4762    4.1448   -2.0034 C.1     1  LIG1       -0.1138
     39 H          11.3830    3.9807   -2.5396 H       1  LIG1        0.1232
     40 C           8.5839    6.9880   -0.4020 C.ar    1  LIG1        0.1607
     41 C           9.8840    7.2553   -0.0964 C.ar    1  LIG1        0.0383
     42 C          10.0453    8.6484   -0.4116 C.ar    1  LIG1        0.1580
     43 C           8.8512    9.1015   -0.8677 C.ar    1  LIG1        0.1342
     44 O           7.9545    8.0902   -0.8567 O.2     1  LIG1       -0.4573
     45 H           8.5073   10.0589   -1.2159 H       1  LIG1        0.1068
     46 C          10.9526    6.3889    0.5111 C.3     1  LIG1       -0.0326
     47 H          11.4493    6.9461    1.3055 H       1  LIG1        0.0280
     48 H          11.6930    6.1183   -0.2427 H       1  LIG1        0.0280
     49 H          10.5223    5.4762    0.9203 H       1  LIG1        0.0280
     50 O          11.2286    9.2936   -0.2278 O.3     1  LIG1       -0.5034
     51 H          11.1385   10.2289   -0.4366 H       1  LIG1        0.2923
@<TRIPOS>BOND
     1    39    38    1
     2    38    37    3
     3    12    10    1
     4    37    30    1
     5    45    43    1
     6     9     3    1
     7    33    29    1
     8    43    44   ar
     9    43    42   ar
    10    44    40   ar
    11    10    11    1
    12    10     1    1
    13    10    13    1
    14    30    29   ar
    15    30    31   ar
    16     3     1   ar
    17     3     6   ar
    18     1     2   ar
    19    29    28   ar
    20     8     6    1
    21     6     7   ar
    22    51    50    1
    23    42    50    1
    24    42    41   ar
    25    40    31    1
    26    40    41   ar
    27     2     5    1
    28     2     4   ar
    29    16    14    1
    30    31    32   ar
    31    48    46    1
    32     7     4   ar
    33     7    14    1
    34     4    17    1
    35    41    46    1
    36    21    17   ar
    37    21    20   ar
    38    15    14    1
    39    28    20    1
    40    28    27   ar
    41    17    18   ar
    42    20    19   ar
    43    32    27   ar
    44    27    34    1
    45    46    49    1
    46    46    47    1
    47    18    19   ar
    48    18    22    1
    49    19    25    1
    50    34    35    3
    51    22    23    3
    52    25    26    1
    53    23    24    1
    54    35    36    1
