@<TRIPOS>MOLECULE
mol_data/opt/m06hf/geoms/mol2/4ih12hd-12lh-4if.out
 54 57 0 0 0
SMALL
GASTEIGER

@<TRIPOS>ATOM
      1 C          -0.1585   -0.0871    0.4580 C.ar    1  LIG1       -0.0497
      2 C           1.2052    0.1280    0.5978 C.ar    1  LIG1       -0.0463
      3 C          -0.8471    0.7171   -0.4564 C.ar    1  LIG1       -0.0571
      4 C           1.8890    1.0951   -0.1532 C.ar    1  LIG1        0.0400
      5 H           1.7734   -0.4553    1.3157 H       1  LIG1        0.0628
      6 C          -0.1984    1.6972   -1.1879 C.ar    1  LIG1       -0.0401
      7 C           1.1827    1.9075   -1.0583 C.ar    1  LIG1        0.0354
      8 H          -0.7576    2.3251   -1.8713 H       1  LIG1        0.0636
      9 H          -1.9149    0.5818   -0.5868 H       1  LIG1        0.0621
     10 C          -0.8851   -1.1474    1.2652 C.3     1  LIG1       -0.0397
     11 H          -0.2234   -1.5738    2.0188 H       1  LIG1        0.0278
     12 H          -1.2344   -1.9525    0.6156 H       1  LIG1        0.0278
     13 H          -1.7509   -0.7162    1.7696 H       1  LIG1        0.0278
     14 N           1.7928    2.9158   -1.7899 N.pl3   1  LIG1       -0.3574
     15 H           2.8008    2.9442   -1.7821 H       1  LIG1        0.1423
     16 H           1.3710    3.1246   -2.6814 H       1  LIG1        0.1423
     17 C           3.3465    1.1770   -0.0029 C.ar    1  LIG1        0.1594
     18 C           4.2794    0.2039    0.2034 C.ar    1  LIG1        0.0894
     19 C           5.5475    0.8849    0.2988 C.ar    1  LIG1        0.1218
     20 C           5.2874    2.2194    0.1244 C.ar    1  LIG1        0.1935
     21 O           3.9760    2.3949   -0.0562 O.2     1  LIG1       -0.4483
     22 N           4.0969   -1.1672    0.3501 N.pl3   1  LIG1       -0.3540
     23 H           3.2940   -1.5226   -0.1555 H       1  LIG1        0.1425
     24 H           4.9340   -1.7059    0.1645 H       1  LIG1        0.1425
     25 N           7.7626   -0.3833    0.6510 N.1     1  LIG1       -0.1907
     26 C           6.7989    0.2263    0.5105 C.1     1  LIG1        0.1050
     27 C           6.1276    3.3973    0.0691 C.ar    1  LIG1        0.2151
     28 C           7.4720    3.5698   -0.0850 C.ar    1  LIG1        0.1902
     29 C           7.7105    4.9857   -0.0697 C.ar    1  LIG1        0.1141
     30 C           6.4861    5.5672    0.1079 C.ar    1  LIG1        0.1605
     31 O           5.5282    4.6000    0.1659 O.2     1  LIG1       -0.4459
     32 O           8.4430    2.6390   -0.2513 O.3     1  LIG1       -0.4896
     33 C           8.4824    2.0657   -1.5621 C.3     1  LIG1        0.0791
     34 H           9.2436    1.2917   -1.5279 H       1  LIG1        0.0660
     35 H           7.5160    1.6239   -1.8098 H       1  LIG1        0.0660
     36 H           8.7388    2.8342   -2.2948 H       1  LIG1        0.0660
     37 N           8.9695    5.5676   -0.2331 N.pl3   1  LIG1       -0.3522
     38 H           9.6734    4.8683   -0.4386 H       1  LIG1        0.1425
     39 H           8.9791    6.3227   -0.9084 H       1  LIG1        0.1425
     40 C           6.7063    7.9548    0.8526 C.ar    1  LIG1       -0.0395
     41 C           6.2023    9.2592    0.7832 C.ar    1  LIG1       -0.0547
     42 C           6.0231    6.9646    0.1340 C.ar    1  LIG1        0.0256
     43 C           5.0582    9.5742    0.0677 C.ar    1  LIG1       -0.0199
     44 H           6.7125   10.0429    1.3299 H       1  LIG1        0.0622
     45 C           4.8540    7.2648   -0.5774 C.ar    1  LIG1       -0.0092
     46 C           4.3686    8.5632   -0.6019 C.ar    1  LIG1        0.1176
     47 H           4.3335    6.4698   -1.0993 H       1  LIG1        0.0661
     48 H           4.6664   10.5816    0.0329 H       1  LIG1        0.0654
     49 C           7.8967    7.6474    1.7425 C.3     1  LIG1       -0.0390
     50 H           7.9827    8.4179    2.5085 H       1  LIG1        0.0278
     51 H           8.8276    7.5999    1.1770 H       1  LIG1        0.0278
     52 H           7.7641    6.6788    2.2258 H       1  LIG1        0.0278
     53 O           3.2339    8.9120   -1.2716 O.3     1  LIG1       -0.5067
     54 H           2.7825    8.1268   -1.5983 H       1  LIG1        0.2921
@<TRIPOS>BOND
     1    16    14    1
     2    36    33    1
     3     8     6    1
     4    35    33    1
     5    14    15    1
     6    14     7    1
     7    54    53    1
     8    33    34    1
     9    33    32    1
    10    53    46    1
    11     6     7   ar
    12     6     3   ar
    13    47    45    1
    14     7     4   ar
    15    39    37    1
    16    46    45   ar
    17    46    43   ar
    18     9     3    1
    19    45    42   ar
    20     3     1   ar
    21    38    37    1
    22    32    28    1
    23    37    29    1
    24    23    22    1
    25     4    17    1
    26     4     2   ar
    27    28    29   ar
    28    28    27   ar
    29    29    30   ar
    30    21    17   ar
    31    21    20   ar
    32    17    18   ar
    33    48    43    1
    34    43    41   ar
    35    27    20    1
    36    27    31   ar
    37    30    42    1
    38    30    31   ar
    39    20    19   ar
    40    42    40   ar
    41    24    22    1
    42    18    19   ar
    43    18    22    1
    44    19    26    1
    45     1     2   ar
    46     1    10    1
    47    26    25    3
    48     2     5    1
    49    12    10    1
    50    41    40   ar
    51    41    44    1
    52    40    49    1
    53    51    49    1
    54    10    13    1
    55    10    11    1
    56    49    52    1
    57    49    50    1
