@<TRIPOS>MOLECULE
mol_data/opt/m06hf/geoms/mol2/4ih4fa4al-6eh-.out
 55 58 0 0 0
SMALL
GASTEIGER

@<TRIPOS>ATOM
      1 C          -0.2509    0.1627    0.6971 C.ar    1  LIG1       -0.0498
      2 C           1.1387    0.1602    0.6358 C.ar    1  LIG1       -0.0492
      3 C          -0.9235    1.2301    0.0985 C.ar    1  LIG1       -0.0571
      4 C           1.8580    1.1752    0.0023 C.ar    1  LIG1        0.0065
      5 H           1.6949   -0.6516    1.0900 H       1  LIG1        0.0627
      6 C          -0.2328    2.2439   -0.5480 C.ar    1  LIG1       -0.0402
      7 C           1.1651    2.2309   -0.6133 C.ar    1  LIG1        0.0325
      8 H          -0.7737    3.0638   -1.0057 H       1  LIG1        0.0636
      9 H          -2.0064    1.2688    0.1359 H       1  LIG1        0.0621
     10 C          -1.0122   -0.9652    1.3699 C.3     1  LIG1       -0.0397
     11 H          -0.3826   -1.4670    2.1046 H       1  LIG1        0.0278
     12 H          -1.3337   -1.7037    0.6325 H       1  LIG1        0.0278
     13 H          -1.8975   -0.5809    1.8776 H       1  LIG1        0.0278
     14 N           1.8483    3.2775   -1.2456 N.pl3   1  LIG1       -0.3575
     15 H           2.7636    3.0182   -1.5924 H       1  LIG1        0.1423
     16 H           1.2995    3.7573   -1.9458 H       1  LIG1        0.1423
     17 C           4.0706    0.0462   -0.4604 C.ar    1  LIG1        0.1252
     18 C           5.4635    0.0447   -0.4508 C.ar    1  LIG1       -0.0119
     19 C           3.3517    1.1577    0.0025 C.ar    1  LIG1        0.0254
     20 C           6.1725    1.1500    0.0201 C.ar    1  LIG1       -0.0143
     21 H           6.0041   -0.8113   -0.8408 H       1  LIG1        0.0660
     22 C           4.0776    2.2529    0.4778 C.ar    1  LIG1       -0.0499
     23 C           5.4681    2.2603    0.4878 C.ar    1  LIG1       -0.0532
     24 H           3.5260    3.1097    0.8455 H       1  LIG1        0.0625
     25 O           3.3633   -1.0184   -0.9284 O.3     1  LIG1       -0.5061
     26 H           3.9593   -1.6965   -1.2628 H       1  LIG1        0.2922
     27 H           6.0070    3.1099    0.8861 H       1  LIG1        0.0624
     28 C           8.3724    0.0284    0.4681 C.ar    1  LIG1       -0.0532
     29 C           9.7657    0.0500    0.4695 C.ar    1  LIG1       -0.0499
     30 C           7.6653    1.1406    0.0174 C.ar    1  LIG1       -0.0143
     31 C          10.4671    1.1646    0.0247 C.ar    1  LIG1        0.0265
     32 H          10.3227   -0.7953    0.8546 H       1  LIG1        0.0625
     33 C           8.3593    2.2641   -0.4454 C.ar    1  LIG1       -0.0116
     34 C           9.7507    2.2735   -0.4536 C.ar    1  LIG1        0.1284
     35 H           7.8011    3.1069   -0.8297 H       1  LIG1        0.0660
     36 H           7.8387   -0.8295    0.8553 H       1  LIG1        0.0624
     37 O          10.4890    3.2997   -0.9346 O.3     1  LIG1       -0.4945
     38 C           9.8826    4.5752   -1.0245 C.3     1  LIG1        0.0788
     39 H          10.6922    5.2737   -1.2182 H       1  LIG1        0.0660
     40 H           9.1623    4.6078   -1.8458 H       1  LIG1        0.0660
     41 H           9.3917    4.8265   -0.0815 H       1  LIG1        0.0660
     42 C          12.6562    2.1625    0.7985 C.ar    1  LIG1        0.1210
     43 C          11.9563    1.1957    0.0577 C.ar    1  LIG1        0.0212
     44 C          12.6926    0.2360   -0.6256 C.ar    1  LIG1       -0.0291
     45 C          14.0872    0.2593   -0.5720 C.ar    1  LIG1        0.0436
     46 C          14.6785    1.2736    0.1954 C.ar    1  LIG1        0.0496
     47 N          13.9877    2.1873    0.8561 N.ar    1  LIG1       -0.2443
     48 H          12.1769   -0.5186   -1.2084 H       1  LIG1        0.0643
     49 H          15.7592    1.3317    0.2732 H       1  LIG1        0.0849
     50 C          11.9485    3.1686    1.5665 C.1     1  LIG1       -0.0492
     51 C          11.3649    3.9888    2.2230 C.1     1  LIG1       -0.1124
     52 H          10.8615    4.7126    2.8206 H       1  LIG1        0.1232
     53 N          14.8631   -0.7005   -1.2079 N.pl3   1  LIG1       -0.3568
     54 H          14.4331   -1.1540   -2.0009 H       1  LIG1        0.1424
     55 H          15.8221   -0.4364   -1.3834 H       1  LIG1        0.1424
@<TRIPOS>BOND
     1    54    53    1
     2    16    14    1
     3    40    38    1
     4    15    14    1
     5    55    53    1
     6    26    25    1
     7    14     7    1
     8    39    38    1
     9    48    44    1
    10    53    45    1
    11    38    37    1
    12    38    41    1
    13     8     6    1
    14    37    34    1
    15    25    17    1
    16    21    18    1
    17    35    33    1
    18    44    45   ar
    19    44    43   ar
    20     7     6   ar
    21     7     4   ar
    22    45    46   ar
    23     6     3   ar
    24    17    18   ar
    25    17    19   ar
    26    34    33   ar
    27    34    31   ar
    28    18    20   ar
    29    33    30   ar
    30     4    19    1
    31     4     2   ar
    32    19    22   ar
    33    30    20    1
    34    30    28   ar
    35    20    23   ar
    36    31    43    1
    37    31    29   ar
    38    43    42   ar
    39     3     9    1
    40     3     1   ar
    41    46    49    1
    42    46    47   ar
    43    28    29   ar
    44    28    36    1
    45    29    32    1
    46    22    23   ar
    47    22    24    1
    48    23    27    1
    49    12    10    1
    50     2     1   ar
    51     2     5    1
    52     1    10    1
    53    42    47   ar
    54    42    50    1
    55    10    13    1
    56    10    11    1
    57    50    51    3
    58    51    52    1
