@<TRIPOS>MOLECULE
mol_data/opt/m06hf/geoms/mol2/4ih4ih12ef-6ie.out
 56 59 0 0 0
SMALL
GASTEIGER

@<TRIPOS>ATOM
      1 C          -0.1998    1.0697    0.8491 C.ar    1  LIG1       -0.0498
      2 C           1.1879    1.1784    0.8263 C.ar    1  LIG1       -0.0493
      3 C          -0.8410    0.7431   -0.3483 C.ar    1  LIG1       -0.0571
      4 C           1.9267    0.9701   -0.3384 C.ar    1  LIG1        0.0033
      5 H           1.7274    1.4198    1.7358 H       1  LIG1        0.0627
      6 C          -0.1288    0.5451   -1.5218 C.ar    1  LIG1       -0.0402
      7 C           1.2673    0.6585   -1.5376 C.ar    1  LIG1        0.0324
      8 H          -0.6502    0.3126   -2.4425 H       1  LIG1        0.0636
      9 H          -1.9210    0.6479   -0.3648 H       1  LIG1        0.0621
     10 C          -0.9949    1.3101    2.1199 C.3     1  LIG1       -0.0397
     11 H          -0.3330    1.3401    2.9852 H       1  LIG1        0.0278
     12 H          -1.7258    0.5146    2.2712 H       1  LIG1        0.0278
     13 H          -1.5305    2.2599    2.0644 H       1  LIG1        0.0278
     14 N           1.9782    0.5181   -2.7249 N.pl3   1  LIG1       -0.3575
     15 H           2.9792    0.4152   -2.6298 H       1  LIG1        0.1423
     16 H           1.5649   -0.0778   -3.4259 H       1  LIG1        0.1423
     17 C           4.2090   -0.0984   -0.3646 C.ar    1  LIG1       -0.0419
     18 C           5.5857    0.0548   -0.3621 C.ar    1  LIG1       -0.0458
     19 C           3.4206    1.0686   -0.3207 C.ar    1  LIG1       -0.0114
     20 C           6.2072    1.3126   -0.3232 C.ar    1  LIG1        0.0395
     21 H           6.2157   -0.8255   -0.3802 H       1  LIG1        0.0628
     22 C           4.0190    2.3168   -0.2675 C.ar    1  LIG1       -0.0323
     23 C           5.4148    2.4774   -0.2643 C.ar    1  LIG1        0.0360
     24 H           3.3885    3.1976   -0.2321 H       1  LIG1        0.0642
     25 C           3.5671   -1.4741   -0.3753 C.3     1  LIG1       -0.0391
     26 H           4.3358   -2.2461   -0.3604 H       1  LIG1        0.0278
     27 H           2.9516   -1.6073   -1.2678 H       1  LIG1        0.0278
     28 H           2.9205   -1.5961    0.4949 H       1  LIG1        0.0278
     29 N           5.9347    3.7575   -0.1790 N.pl3   1  LIG1       -0.3574
     30 H           6.9010    3.8850   -0.4351 H       1  LIG1        0.1423
     31 H           5.3153    4.4952   -0.4774 H       1  LIG1        0.1423
     32 C           7.6740    1.3635   -0.3454 C.ar    1  LIG1        0.1565
     33 C           8.6393    0.4704   -0.7452 C.ar    1  LIG1        0.1125
     34 C           9.9003    1.1075   -0.4687 C.ar    1  LIG1        0.1791
     35 C           9.6261    2.3303    0.0562 C.ar    1  LIG1        0.1799
     36 O           8.2737    2.4721    0.1348 O.2     1  LIG1       -0.4497
     37 C           8.4908   -0.8237   -1.3333 C.1     1  LIG1       -0.0622
     38 C           8.3961   -1.9150   -1.8276 C.1     1  LIG1       -0.1137
     39 H           8.3190   -2.8805   -2.2712 H       1  LIG1        0.1232
     40 O          11.0986    0.5298   -0.7145 O.3     1  LIG1       -0.5024
     41 H          11.7759    0.9239   -0.1514 H       1  LIG1        0.2923
     42 C          10.1961    4.2362    1.6002 C.ar    1  LIG1        0.0490
     43 C          10.4963    3.4318    0.4803 C.ar    1  LIG1        0.0431
     44 C          11.6592    3.6905   -0.2406 C.ar    1  LIG1       -0.0324
     45 C          12.5011    4.7230    0.1729 C.ar    1  LIG1        0.0434
     46 C          12.1150    5.4700    1.2879 C.ar    1  LIG1        0.0433
     47 N          10.9997    5.2322    1.9696 N.ar    1  LIG1       -0.2582
     48 H          11.8979    3.1158   -1.1279 H       1  LIG1        0.0638
     49 H          12.7372    6.2863    1.6327 H       1  LIG1        0.0842
     50 C           8.9621    4.0091    2.4480 C.3     1  LIG1       -0.0217
     51 H           8.8962    2.9600    2.7424 H       1  LIG1        0.0293
     52 H           8.0539    4.2545    1.8950 H       1  LIG1        0.0293
     53 H           9.0450    4.6422    3.3275 H       1  LIG1        0.0293
     54 C          13.7194    5.0303   -0.5333 C.1     1  LIG1       -0.0681
     55 C          14.7347    5.2878   -1.1215 C.1     1  LIG1       -0.1139
     56 H          15.6348    5.5180   -1.6429 H       1  LIG1        0.1232
@<TRIPOS>BOND
     1    16    14    1
     2    14    15    1
     3    14     7    1
     4     8     6    1
     5    39    38    1
     6    38    37    3
     7    56    55    1
     8     7     6   ar
     9     7     4   ar
    10     6     3   ar
    11    37    33    1
    12    27    25    1
    13    48    44    1
    14    55    54    3
    15    33    34   ar
    16    33    32   ar
    17    40    34    1
    18    40    41    1
    19    54    45    1
    20    31    29    1
    21    34    35   ar
    22    30    29    1
    23    21    18    1
    24    25    17    1
    25    25    26    1
    26    25    28    1
    27     9     3    1
    28    17    18   ar
    29    17    19   ar
    30    18    20   ar
    31     3     1   ar
    32    32    20    1
    33    32    36   ar
    34     4    19    1
    35     4     2   ar
    36    20    23   ar
    37    19    22   ar
    38    22    23   ar
    39    22    24    1
    40    23    29    1
    41    44    45   ar
    42    44    43   ar
    43    35    36   ar
    44    35    43    1
    45    45    46   ar
    46    43    42   ar
    47     2     1   ar
    48     2     5    1
    49     1    10    1
    50    46    49    1
    51    46    47   ar
    52    42    47   ar
    53    42    50    1
    54    52    50    1
    55    13    10    1
    56    10    12    1
    57    10    11    1
    58    50    51    1
    59    50    53    1
