@<TRIPOS>MOLECULE
mol_data/opt/m06hf/geoms/mol2/4ii.out
 18 18 0 0 0
SMALL
GASTEIGER

@<TRIPOS>ATOM
      1 C           0.0775    0.0214    0.0136 C.ar    1  LIG1       -0.0504
      2 C           1.4726    0.0264    0.0154 C.ar    1  LIG1       -0.0586
      3 C          -0.5840    1.2497    0.0158 C.ar    1  LIG1       -0.0586
      4 C           2.1841    1.2225    0.0150 C.ar    1  LIG1       -0.0586
      5 H           2.0091   -0.9151    0.0227 H       1  LIG1        0.0620
      6 C           0.1275    2.4458    0.0154 C.ar    1  LIG1       -0.0586
      7 C           1.5226    2.4508    0.0127 C.ar    1  LIG1       -0.0504
      8 H          -0.4090    3.3874    0.0226 H       1  LIG1        0.0620
      9 H           3.2675    1.2004    0.0219 H       1  LIG1        0.0620
     10 H          -1.6674    1.2718    0.0234 H       1  LIG1        0.0620
     11 C          -0.6985   -1.2833   -0.0137 C.3     1  LIG1       -0.0397
     12 H          -0.1390   -2.0734    0.4867 H       1  LIG1        0.0278
     13 H          -0.8818   -1.5932   -1.0445 H       1  LIG1        0.0278
     14 H          -1.6606   -1.1684    0.4852 H       1  LIG1        0.0278
     15 C           2.2986    3.7554   -0.0156 C.3     1  LIG1       -0.0397
     16 H           1.7389    4.5461    0.4835 H       1  LIG1        0.0278
     17 H           2.4826    4.0642   -1.0467 H       1  LIG1        0.0278
     18 H           3.2604    3.6410    0.4840 H       1  LIG1        0.0278
@<TRIPOS>BOND
     1    17    15    1
     2    13    11    1
     3    15     7    1
     4    15    16    1
     5    15    18    1
     6    11     1    1
     7    11    14    1
     8    11    12    1
     9     7     4   ar
    10     7     6   ar
    11     1     2   ar
    12     1     3   ar
    13     4     2   ar
    14     4     9    1
    15     6     3   ar
    16     6     8    1
    17     2     5    1
    18     3    10    1
