@<TRIPOS>MOLECULE
mol_data/opt/m06hf/geoms/mol2/4ii12ea-6ed-12eh4ai-13ef6eh-6ie-.out
 101 108 0 0 0
SMALL
GASTEIGER

@<TRIPOS>ATOM
      1 C           0.7484   -1.7596    0.6983 C.ar    1  LIG1       -0.0498
      2 C           2.0532   -1.3755    0.4026 C.ar    1  LIG1       -0.0479
      3 C           0.0105   -0.9558    1.5661 C.ar    1  LIG1       -0.0586
      4 C           2.6150   -0.2230    0.9585 C.ar    1  LIG1        0.0217
      5 H           2.6481   -1.9747   -0.2764 H       1  LIG1        0.0627
      6 C           0.5674    0.1922    2.1207 C.ar    1  LIG1       -0.0579
      7 C           1.8741    0.5870    1.8373 C.ar    1  LIG1       -0.0397
      8 H          -0.0228    0.7939    2.8016 H       1  LIG1        0.0620
      9 H          -1.0073   -1.2316    1.8165 H       1  LIG1        0.0620
     10 C           0.1397   -2.9966    0.0638 C.3     1  LIG1       -0.0397
     11 H           0.9147   -3.7238   -0.1770 H       1  LIG1        0.0278
     12 H          -0.3817   -2.7301   -0.8575 H       1  LIG1        0.0278
     13 H          -0.5763   -3.4605    0.7422 H       1  LIG1        0.0278
     14 C           2.4429    1.8343    2.4924 C.3     1  LIG1       -0.0390
     15 H           1.7717    2.1648    3.2841 H       1  LIG1        0.0278
     16 H           2.5601    2.6364    1.7629 H       1  LIG1        0.0278
     17 H           3.4228    1.6290    2.9253 H       1  LIG1        0.0278
     18 C           4.0022    0.1080    0.5882 C.ar    1  LIG1        0.1512
     19 C           5.0930   -0.6630    0.2665 C.ar    1  LIG1        0.0710
     20 C           6.1527    0.2530   -0.0533 C.ar    1  LIG1        0.0003
     21 C           5.6291    1.4976    0.1028 C.ar    1  LIG1        0.1396
     22 O           4.3400    1.4055    0.4902 O.2     1  LIG1       -0.4535
     23 C           5.1799   -2.0925    0.2620 C.1     1  LIG1       -0.0658
     24 C           5.2741   -3.2904    0.2503 C.1     1  LIG1       -0.1138
     25 H           5.3574   -4.3526    0.2465 H       1  LIG1        0.1232
     26 H           7.1472   -0.0059   -0.3743 H       1  LIG1        0.0668
     27 C           5.5019    3.9628   -0.4855 C.ar    1  LIG1        0.1246
     28 C           6.2251    2.8291   -0.0587 C.ar    1  LIG1        0.0524
     29 C           7.5780    3.0041    0.2126 C.ar    1  LIG1       -0.0288
     30 C           8.1665    4.2498    0.0229 C.ar    1  LIG1        0.0815
     31 C           7.3692    5.3067   -0.4447 C.ar    1  LIG1        0.1260
     32 N           6.0685    5.1531   -0.6662 N.ar    1  LIG1       -0.2333
     33 H           8.1677    2.1853    0.6025 H       1  LIG1        0.0639
     34 C           4.0890    3.8883   -0.7934 C.1     1  LIG1       -0.0491
     35 C           2.9224    3.8383   -1.0719 C.1     1  LIG1       -0.1124
     36 H           1.8873    3.7882   -1.3228 H       1  LIG1        0.1232
     37 N          10.6391    4.5191    0.7488 N.1     1  LIG1       -0.1908
     38 C           9.5487    4.4313    0.4038 C.1     1  LIG1        0.1014
     39 C           7.9157    6.6447   -0.7238 C.ar    1  LIG1        0.1722
     40 C           9.0550    7.0668   -1.3529 C.ar    1  LIG1        0.0932
     41 C           8.9713    8.5050   -1.3974 C.ar    1  LIG1        0.0873
     42 C           7.7930    8.8306   -0.7866 C.ar    1  LIG1        0.1575
     43 O           7.1547    7.6952   -0.4013 O.2     1  LIG1       -0.4501
     44 C          10.0925    6.2946   -1.9604 C.1     1  LIG1       -0.0639
     45 C          10.9812    5.6877   -2.4953 C.1     1  LIG1       -0.1137
     46 H          11.7682    5.1307   -2.9493 H       1  LIG1        0.1232
     47 N           9.9255    9.3543   -1.9655 N.pl3   1  LIG1       -0.3541
     48 H          10.6752    8.8299   -2.4024 H       1  LIG1        0.1425
     49 H           9.5231   10.0185   -2.6181 H       1  LIG1        0.1425
     50 C           7.8710   11.3017   -0.5548 C.ar    1  LIG1       -0.0504
     51 C           7.2284   12.5032   -0.2981 C.ar    1  LIG1       -0.0517
     52 C           7.1407   10.1104   -0.5051 C.ar    1  LIG1        0.0194
     53 C           5.8674   12.5371    0.0221 C.ar    1  LIG1        0.0026
     54 H           7.7790   13.4343   -0.3414 H       1  LIG1        0.0624
     55 C           5.7867   10.1420   -0.1617 C.ar    1  LIG1       -0.0475
     56 C           5.1347   11.3404    0.1153 C.ar    1  LIG1       -0.0406
     57 H           5.2420    9.2076   -0.0958 H       1  LIG1        0.0627
     58 H           8.9318   11.2764   -0.7694 H       1  LIG1        0.0625
     59 C           3.6752   11.3061    0.5422 C.3     1  LIG1       -0.0391
     60 H           3.4353   10.3149    0.9244 H       1  LIG1        0.0278
     61 H           3.0035   11.5127   -0.2955 H       1  LIG1        0.0278
     62 H           3.4837   12.0418    1.3234 H       1  LIG1        0.0278
     63 C           5.2466   13.8533    0.2715 C.ar    1  LIG1        0.0664
     64 C           5.7362   14.9515    0.9746 C.ar    1  LIG1        0.0919
     65 C           4.7541   15.9701    0.8803 C.ar    1  LIG1        0.1581
     66 C           3.6957   15.4902    0.1288 C.ar    1  LIG1        0.0929
     67 N           4.0387   14.2002   -0.2160 N.ar    1  LIG1       -0.3502
     68 H           3.4796   13.6247   -0.8324 H       1  LIG1        0.1660
     69 C           6.9592   15.1012    1.6976 C.1     1  LIG1       -0.0639
     70 C           7.9722   15.2990    2.3173 C.1     1  LIG1       -0.1137
     71 H           8.8744   15.4474    2.8640 H       1  LIG1        0.1232
     72 O           4.8531   17.1993    1.4476 O.3     1  LIG1       -0.5035
     73 H           5.7009   17.2548    1.9089 H       1  LIG1        0.2923
     74 C           1.4709   15.5928   -1.1090 C.ar    1  LIG1        0.1231
     75 C           2.4391   16.1460   -0.2453 C.ar    1  LIG1        0.0375
     76 C           2.1631   17.4127    0.2739 C.ar    1  LIG1       -0.0271
     77 C           0.9847   18.0782   -0.0509 C.ar    1  LIG1        0.0517
     78 C           0.0730   17.4168   -0.9053 C.ar    1  LIG1        0.0947
     79 N           0.3367   16.2242   -1.4083 N.ar    1  LIG1       -0.2359
     80 H           2.8820   17.8813    0.9332 H       1  LIG1        0.0644
     81 C           1.6187   14.3021   -1.7583 C.1     1  LIG1       -0.0491
     82 C           1.7073   13.2429   -2.3237 C.1     1  LIG1       -0.1124
     83 H           1.7640   12.3145   -2.8449 H       1  LIG1        0.1232
     84 N           0.7012   19.3251    0.4741 N.pl3   1  LIG1       -0.3563
     85 H           1.4899   19.8334    0.8454 H       1  LIG1        0.1424
     86 H           0.0560   19.8954   -0.0554 H       1  LIG1        0.1424
     87 C          -1.6168   18.1662   -2.6309 C.ar    1  LIG1        0.0475
     88 C          -1.2303   18.0436   -1.2816 C.ar    1  LIG1        0.0243
     89 C          -2.0996   18.4940   -0.2938 C.ar    1  LIG1       -0.0339
     90 C          -3.3247   19.0511   -0.6643 C.ar    1  LIG1        0.0434
     91 C          -3.6176   19.1278   -2.0273 C.ar    1  LIG1        0.0433
     92 N          -2.7893   18.7016   -2.9735 N.ar    1  LIG1       -0.2583
     93 H          -1.8315   18.4111    0.7526 H       1  LIG1        0.0637
     94 H          -4.5580   19.5548   -2.3533 H       1  LIG1        0.0842
     95 C          -0.7314   17.7021   -3.7672 C.3     1  LIG1       -0.0217
     96 H          -0.7214   16.6125   -3.8034 H       1  LIG1        0.0293
     97 H           0.2953   18.0394   -3.6172 H       1  LIG1        0.0293
     98 H          -1.1341   18.1070   -4.6923 H       1  LIG1        0.0293
     99 C          -4.2636   19.5344    0.3171 C.1     1  LIG1       -0.0681
    100 C          -5.0475   19.9408    1.1315 C.1     1  LIG1       -0.1139
    101 H          -5.7436   20.2992    1.8539 H       1  LIG1        0.1232
@<TRIPOS>BOND
     1    98    95    1
     2    96    95    1
     3    95    97    1
     4    95    87    1
     5    92    87   ar
     6    92    91   ar
     7    46    45    1
     8    83    82    1
     9    87    88   ar
    10    49    47    1
    11    45    44    3
    12    48    47    1
    13    94    91    1
    14    82    81    3
    15    91    90   ar
    16    47    41    1
    17    44    40    1
    18    81    74    1
    19    79    74   ar
    20    79    78   ar
    21    41    40   ar
    22    41    42   ar
    23    40    39   ar
    24    36    35    1
    25    88    78    1
    26    88    89   ar
    27    74    75   ar
    28    35    34    3
    29    78    77   ar
    30    12    10    1
    31    68    67    1
    32    34    27    1
    33    42    52    1
    34    42    43   ar
    35    58    50    1
    36    39    31    1
    37    39    43   ar
    38    32    27   ar
    39    32    31   ar
    40    90    89   ar
    41    90    99    1
    42    50    52   ar
    43    50    51   ar
    44    52    55   ar
    45    27    28   ar
    46    31    30   ar
    47    26    20    1
    48    54    51    1
    49    51    53   ar
    50    61    59    1
    51    89    93    1
    52     5     2    1
    53    75    66    1
    54    75    76   ar
    55    67    66   ar
    56    67    63   ar
    57    11    10    1
    58    55    57    1
    59    55    56   ar
    60    28    21    1
    61    28    29   ar
    62    86    84    1
    63    20    21   ar
    64    20    19   ar
    65    77    76   ar
    66    77    84    1
    67    53    56   ar
    68    53    63    1
    69    30    29   ar
    70    30    38    1
    71    10     1    1
    72    10    13    1
    73    21    22   ar
    74    56    59    1
    75    66    65   ar
    76    29    33    1
    77    25    24    1
    78    24    23    3
    79    23    19    1
    80    19    18   ar
    81    63    64   ar
    82    76    80    1
    83    99   100    3
    84     2     1   ar
    85     2     4   ar
    86    38    37    3
    87    84    85    1
    88    22    18   ar
    89    59    60    1
    90    59    62    1
    91    18     4    1
    92     1     3   ar
    93    65    64   ar
    94    65    72    1
    95     4     7   ar
    96    64    69    1
    97   100   101    1
    98    72    73    1
    99     3     9    1
   100     3     6   ar
   101    69    70    3
   102    16    14    1
   103     7     6   ar
   104     7    14    1
   105     6     8    1
   106    70    71    1
   107    14    17    1
   108    14    15    1
