@<TRIPOS>MOLECULE
mol_data/opt/m06hf/geoms/mol2/4ii12aa12af12ed13la-6al6de-12fd.out
 89 96 0 0 0
SMALL
GASTEIGER

@<TRIPOS>ATOM
      1 C           1.8714   -1.1775   -2.7233 C.ar    1  LIG1       -0.0498
      2 C           2.9023   -0.8045   -1.8670 C.ar    1  LIG1       -0.0479
      3 C           0.7708   -0.3267   -2.8310 C.ar    1  LIG1       -0.0586
      4 C           2.8378    0.3770   -1.1221 C.ar    1  LIG1        0.0204
      5 H           3.7873   -1.4252   -1.7845 H       1  LIG1        0.0627
      6 C           0.7005    0.8508   -2.0944 C.ar    1  LIG1       -0.0579
      7 C           1.7248    1.2237   -1.2225 C.ar    1  LIG1       -0.0398
      8 H          -0.1694    1.4899   -2.1922 H       1  LIG1        0.0620
      9 H          -0.0431   -0.5861   -3.4984 H       1  LIG1        0.0620
     10 C           1.9335   -2.4716   -3.5145 C.3     1  LIG1       -0.0397
     11 H           2.9477   -2.8700   -3.5229 H       1  LIG1        0.0278
     12 H           1.6162   -2.3030   -4.5440 H       1  LIG1        0.0278
     13 H           1.2716   -3.2173   -3.0702 H       1  LIG1        0.0278
     14 C           1.5968    2.4979   -0.4054 C.3     1  LIG1       -0.0390
     15 H           0.5629    2.8452   -0.4430 H       1  LIG1        0.0278
     16 H           2.2620    3.2707   -0.7967 H       1  LIG1        0.0278
     17 H           1.8724    2.3145    0.6346 H       1  LIG1        0.0278
     18 C           3.9700    0.6774   -0.2235 C.ar    1  LIG1        0.1361
     19 C           4.7135   -0.1204    0.5958 C.ar    1  LIG1       -0.0151
     20 C           5.7102    0.7210    1.1855 C.ar    1  LIG1       -0.0122
     21 C           5.4910    1.9632    0.6741 C.ar    1  LIG1        0.1707
     22 O           4.4421    1.9441   -0.1725 O.2     1  LIG1       -0.4517
     23 H           4.5503   -1.1696    0.7718 H       1  LIG1        0.0656
     24 H           6.4691    0.4487    1.8991 H       1  LIG1        0.0657
     25 C           6.1837    3.2277    0.8655 C.ar    1  LIG1        0.1744
     26 C           7.3911    3.5206    1.4248 C.ar    1  LIG1        0.0296
     27 C           7.5231    4.9420    1.3348 C.ar    1  LIG1        0.1665
     28 C           6.3892    5.3953    0.7117 C.ar    1  LIG1        0.2131
     29 O           5.5731    4.3425    0.4319 O.2     1  LIG1       -0.4448
     30 H           8.1104    2.8378    1.8420 H       1  LIG1        0.0693
     31 O           8.5763    5.6138    1.8284 O.3     1  LIG1       -0.5031
     32 H           8.6119    6.5206    1.4912 H       1  LIG1        0.2923
     33 C           5.9179    6.7096    0.3497 C.ar    1  LIG1        0.1909
     34 C           6.5371    7.9100    0.1500 C.ar    1  LIG1        0.0916
     35 C           5.4826    8.8606   -0.1432 C.ar    1  LIG1        0.1151
     36 C           4.3170    8.1484   -0.1284 C.ar    1  LIG1        0.1740
     37 O           4.5859    6.8592    0.1780 O.2     1  LIG1       -0.4474
     38 C           7.9417    8.1615    0.1880 C.1     1  LIG1       -0.0644
     39 C           9.1281    8.3640    0.2150 C.1     1  LIG1       -0.1138
     40 H          10.1772    8.5571    0.2130 H       1  LIG1        0.1232
     41 N           5.9039   11.3745   -0.5260 N.1     1  LIG1       -0.1907
     42 C           5.6846   10.2593   -0.3685 C.1     1  LIG1        0.1043
     43 C           2.9225    8.4336   -0.3529 C.ar    1  LIG1        0.1260
     44 C           2.2790    9.5369   -0.8889 C.ar    1  LIG1        0.1489
     45 C           0.8887    9.2675   -0.8872 C.ar    1  LIG1        0.0062
     46 C           0.7331    7.9932   -0.3562 C.ar    1  LIG1        0.0521
     47 N           1.9604    7.5090   -0.0479 N.ar    1  LIG1       -0.3487
     48 H           2.1558    6.6280    0.4054 H       1  LIG1        0.1661
     49 O           2.9597   10.6071   -1.3323 O.3     1  LIG1       -0.4929
     50 C           2.1976   11.7199   -1.7635 C.3     1  LIG1        0.0789
     51 H           2.9203   12.4907   -2.0144 H       1  LIG1        0.0660
     52 H           1.6054   11.4572   -2.6437 H       1  LIG1        0.0660
     53 H           1.5437   12.0662   -0.9594 H       1  LIG1        0.0660
     54 H           0.1001    9.8917   -1.2723 H       1  LIG1        0.0676
     55 C          -0.4293    5.7987   -0.1646 C.ar    1  LIG1        0.0376
     56 C          -0.4800    7.1925   -0.1380 C.ar    1  LIG1        0.0200
     57 C          -1.7124    7.8035    0.1038 C.ar    1  LIG1       -0.0073
     58 C          -2.8320    7.0064    0.3070 C.ar    1  LIG1        0.1466
     59 C          -2.6712    5.6050    0.2897 C.ar    1  LIG1        0.1152
     60 N          -1.4943    5.0411    0.0623 N.ar    1  LIG1       -0.2506
     61 H          -1.7735    8.8822    0.1458 H       1  LIG1        0.0662
     62 H           0.4886    5.2737   -0.3970 H       1  LIG1        0.0836
     63 O          -4.0746    7.4844    0.5334 O.3     1  LIG1       -0.4929
     64 C          -4.2769    8.8884    0.4777 C.3     1  LIG1        0.0789
     65 H          -5.3409    9.0370    0.6345 H       1  LIG1        0.0660
     66 H          -3.7113    9.3890    1.2666 H       1  LIG1        0.0660
     67 H          -3.9869    9.2755   -0.5013 H       1  LIG1        0.0660
     68 C          -3.9418    3.4859   -0.2096 C.ar    1  LIG1        0.1502
     69 C          -3.8186    4.6816    0.5128 C.ar    1  LIG1        0.0410
     70 C          -4.7900    4.9234    1.4795 C.ar    1  LIG1       -0.0321
     71 C          -5.8169    4.0040    1.6897 C.ar    1  LIG1        0.0545
     72 C          -5.8602    2.8626    0.8690 C.ar    1  LIG1        0.1264
     73 N          -4.9299    2.6168   -0.0470 N.ar    1  LIG1       -0.2312
     74 H          -4.7418    5.8149    2.0873 H       1  LIG1        0.0638
     75 N          -2.2980    2.7981   -2.1123 N.1     1  LIG1       -0.1893
     76 C          -2.9925    3.1219   -1.2602 C.1     1  LIG1        0.1198
     77 C          -6.7494    4.2077    2.7660 C.1     1  LIG1       -0.0674
     78 C          -7.4927    4.3937    3.6905 C.1     1  LIG1       -0.1138
     79 H          -8.1605    4.5488    4.5064 H       1  LIG1        0.1232
     80 C          -6.9343    1.8642    0.9733 C.ar    1  LIG1        0.1966
     81 C          -8.2863    1.9517    1.1136 C.ar    1  LIG1        0.1820
     82 C          -8.7775    0.5986    1.0526 C.ar    1  LIG1        0.1315
     83 C          -7.6823   -0.1903    0.8683 C.ar    1  LIG1        0.1137
     84 O          -6.5892    0.5559    0.8167 O.2     1  LIG1       -0.4562
     85 H          -7.5691   -1.2557    0.7675 H       1  LIG1        0.1044
     86 O          -9.0208    3.0703    1.2355 O.3     1  LIG1       -0.5023
     87 H          -9.9624    2.8571    1.2282 H       1  LIG1        0.2923
     88 N         -11.2784    0.0064    1.2410 N.1     1  LIG1       -0.1906
     89 C         -10.1551    0.2263    1.1537 C.1     1  LIG1        0.1060
@<TRIPOS>BOND
     1    12    10    1
     2    11    10    1
     3    10    13    1
     4    10     1    1
     5     9     3    1
     6     3     1   ar
     7     3     6   ar
     8     1     2   ar
     9    52    50    1
    10     8     6    1
    11    75    76    3
    12     6     7   ar
    13    51    50    1
    14     2     5    1
    15     2     4   ar
    16    50    49    1
    17    50    53    1
    18    49    44    1
    19    54    45    1
    20    76    68    1
    21     7     4   ar
    22     7    14    1
    23     4    18    1
    24    44    45   ar
    25    44    43   ar
    26    45    46   ar
    27    16    14    1
    28    41    42    3
    29    67    64    1
    30    15    14    1
    31    14    17    1
    32    62    55    1
    33    42    35    1
    34    46    56    1
    35    46    47   ar
    36    43    36    1
    37    43    47   ar
    38    18    22   ar
    39    18    19   ar
    40    68    73   ar
    41    68    69   ar
    42    22    21   ar
    43    55    56   ar
    44    55    60   ar
    45    35    36   ar
    46    35    34   ar
    47    56    57   ar
    48    36    37   ar
    49    47    48    1
    50    73    72   ar
    51    60    59   ar
    52    57    61    1
    53    57    58   ar
    54    34    38    1
    55    34    33   ar
    56    37    33   ar
    57    38    39    3
    58    40    39    1
    59    59    58   ar
    60    59    69    1
    61    58    63    1
    62    33    28    1
    63    29    28   ar
    64    29    25   ar
    65    64    63    1
    66    64    65    1
    67    64    66    1
    68    69    70   ar
    69    19    23    1
    70    19    20   ar
    71    21    25    1
    72    21    20   ar
    73    28    27   ar
    74    85    83    1
    75    84    83   ar
    76    84    80   ar
    77    25    26   ar
    78    83    82   ar
    79    72    80    1
    80    72    71   ar
    81    80    81   ar
    82    82    81   ar
    83    82    89    1
    84    81    86    1
    85    89    88    3
    86    20    24    1
    87    87    86    1
    88    27    26   ar
    89    27    31    1
    90    26    30    1
    91    70    71   ar
    92    70    74    1
    93    32    31    1
    94    71    77    1
    95    77    78    3
    96    78    79    1
