@<TRIPOS>MOLECULE
mol_data/opt/m06hf/geoms/mol2/4ii4il12ha12eh.out
 55 58 0 0 0
SMALL
GASTEIGER

@<TRIPOS>ATOM
      1 C          -0.0648    0.2876   -0.8816 C.ar    1  LIG1       -0.0499
      2 C           1.3258    0.3915   -0.8607 C.ar    1  LIG1       -0.0508
      3 C          -0.7856    0.9435    0.1154 C.ar    1  LIG1       -0.0586
      4 C           1.9858    1.1314    0.1202 C.ar    1  LIG1       -0.0144
      5 H           1.9169   -0.1106   -1.6195 H       1  LIG1        0.0626
      6 C          -0.1333    1.6840    1.0966 C.ar    1  LIG1       -0.0580
      7 C           1.2572    1.7941    1.1169 C.ar    1  LIG1       -0.0427
      8 H          -0.7141    2.1846    1.8623 H       1  LIG1        0.0620
      9 H          -1.8674    0.8746    0.1265 H       1  LIG1        0.0620
     10 C          -0.7743   -0.4926   -1.9737 C.3     1  LIG1       -0.0397
     11 H          -0.1173   -1.2569   -2.3881 H       1  LIG1        0.0278
     12 H          -1.0754    0.1775   -2.7815 H       1  LIG1        0.0278
     13 H          -1.6677   -0.9769   -1.5791 H       1  LIG1        0.0278
     14 C           1.9654    2.6152    2.1793 C.3     1  LIG1       -0.0391
     15 H           1.2632    2.9133    2.9574 H       1  LIG1        0.0278
     16 H           2.4023    3.5124    1.7367 H       1  LIG1        0.0278
     17 H           2.7776    2.0435    2.6317 H       1  LIG1        0.0278
     18 C           4.2469    0.2349    0.7726 C.ar    1  LIG1       -0.0418
     19 C           5.6344    0.3547    0.7541 C.ar    1  LIG1       -0.0440
     20 C           3.4837    1.2054    0.1075 C.ar    1  LIG1       -0.0112
     21 C           6.2823    1.3965    0.0794 C.ar    1  LIG1        0.0610
     22 H           6.2414   -0.3609    1.2990 H       1  LIG1        0.0629
     23 C           4.1165    2.2501   -0.5632 C.ar    1  LIG1       -0.0113
     24 C           5.5031    2.3509   -0.5877 C.ar    1  LIG1        0.1314
     25 H           3.5375    3.0058   -1.0793 H       1  LIG1        0.0660
     26 C           3.5735   -0.9059    1.5139 C.3     1  LIG1       -0.0391
     27 H           4.3193   -1.5298    2.0051 H       1  LIG1        0.0278
     28 H           2.9950   -1.5203    0.8221 H       1  LIG1        0.0278
     29 H           2.8828   -0.5195    2.2658 H       1  LIG1        0.0278
     30 O           6.0646    3.4060   -1.2539 O.3     1  LIG1       -0.4944
     31 C           6.7439    3.0597   -2.4573 C.3     1  LIG1        0.0788
     32 H           7.1206    3.9927   -2.8686 H       1  LIG1        0.0660
     33 H           7.5775    2.3827   -2.2566 H       1  LIG1        0.0660
     34 H           6.0461    2.5929   -3.1567 H       1  LIG1        0.0660
     35 C           7.7483    1.4414    0.0780 C.ar    1  LIG1        0.1598
     36 C           8.6658    0.4276    0.0143 C.ar    1  LIG1        0.0718
     37 C           9.9561    1.0517    0.0279 C.ar    1  LIG1        0.0087
     38 C           9.7117    2.3908    0.0913 C.ar    1  LIG1        0.1737
     39 O           8.3935    2.6374    0.1207 O.2     1  LIG1       -0.4497
     40 N           8.4124   -0.9507   -0.0288 N.pl3   1  LIG1       -0.3550
     41 H           7.5217   -1.1672   -0.4625 H       1  LIG1        0.1424
     42 H           9.1596   -1.4655   -0.4768 H       1  LIG1        0.1424
     43 H          10.9228    0.5778   -0.0030 H       1  LIG1        0.0675
     44 C          10.6133    3.5284    0.1341 C.ar    1  LIG1        0.1869
     45 C          11.9800    3.5956    0.1814 C.ar    1  LIG1        0.0940
     46 C          12.3068    5.0039    0.1959 C.ar    1  LIG1        0.0792
     47 C          11.1164    5.6537    0.1555 C.ar    1  LIG1        0.1145
     48 O          10.0928    4.7567    0.1164 O.2     1  LIG1       -0.4567
     49 H          10.8474    6.6937    0.1600 H       1  LIG1        0.1049
     50 C          12.9209    2.5225    0.2063 C.1     1  LIG1       -0.0639
     51 C          13.7452    1.6461    0.2226 C.1     1  LIG1       -0.1137
     52 H          14.4717    0.8675    0.2489 H       1  LIG1        0.1232
     53 N          13.6040    5.5076    0.2976 N.pl3   1  LIG1       -0.3546
     54 H          14.2998    4.8431   -0.0169 H       1  LIG1        0.1424
     55 H          13.7301    6.4105   -0.1388 H       1  LIG1        0.1424
@<TRIPOS>BOND
     1    34    31    1
     2    32    31    1
     3    12    10    1
     4    31    33    1
     5    31    30    1
     6    11    10    1
     7    10    13    1
     8    10     1    1
     9     5     2    1
    10    30    24    1
    11    25    23    1
    12     1     2   ar
    13     1     3   ar
    14     2     4   ar
    15    24    23   ar
    16    24    21   ar
    17    23    20   ar
    18    42    40    1
    19    41    40    1
    20    55    53    1
    21    40    36    1
    22    54    53    1
    23    43    37    1
    24    36    37   ar
    25    36    35   ar
    26    37    38   ar
    27    35    21    1
    28    35    39   ar
    29    21    19   ar
    30    38    39   ar
    31    38    44    1
    32    20     4    1
    33    20    18   ar
    34     3     9    1
    35     3     6   ar
    36    48    44   ar
    37    48    47   ar
    38     4     7   ar
    39    44    45   ar
    40    47    49    1
    41    47    46   ar
    42    45    46   ar
    43    45    50    1
    44    46    53    1
    45    50    51    3
    46    51    52    1
    47    19    18   ar
    48    19    22    1
    49    18    26    1
    50    28    26    1
    51     6     7   ar
    52     6     8    1
    53     7    14    1
    54    26    27    1
    55    26    29    1
    56    16    14    1
    57    14    17    1
    58    14    15    1
