@<TRIPOS>MOLECULE
mol_data/opt/m06hf/geoms/mol2/4ii4ii4ii4ii.out
 66 69 0 0 0
SMALL
GASTEIGER

@<TRIPOS>ATOM
      1 C          -0.2062    1.8392   -0.9885 C.ar    1  LIG1       -0.0499
      2 C           1.1892    1.8339   -0.9591 C.ar    1  LIG1       -0.0509
      3 C          -0.8840    1.0572   -0.0558 C.ar    1  LIG1       -0.0586
      4 C           1.8948    1.0774   -0.0251 C.ar    1  LIG1       -0.0145
      5 H           1.7475    2.4283   -1.6749 H       1  LIG1        0.0626
      6 C          -0.1859    0.2991    0.8809 C.ar    1  LIG1       -0.0580
      7 C           1.2074    0.2958    0.9150 C.ar    1  LIG1       -0.0427
      8 H          -0.7347   -0.3015    1.5967 H       1  LIG1        0.0620
      9 H          -1.9678    1.0381   -0.0599 H       1  LIG1        0.0620
     10 C          -0.9588    2.6962   -1.9904 C.3     1  LIG1       -0.0397
     11 H          -0.4058    2.7676   -2.9270 H       1  LIG1        0.0278
     12 H          -1.0961    3.7049   -1.5957 H       1  LIG1        0.0278
     13 H          -1.9411    2.2716   -2.1969 H       1  LIG1        0.0278
     14 C           1.9677   -0.5279    1.9385 C.3     1  LIG1       -0.0391
     15 H           1.2757   -1.1151    2.5414 H       1  LIG1        0.0278
     16 H           2.5463    0.1229    2.5964 H       1  LIG1        0.0278
     17 H           2.6698   -1.2026    1.4443 H       1  LIG1        0.0278
     18 C           4.1072    0.1933   -0.8367 C.ar    1  LIG1       -0.0421
     19 C           5.5003    0.2396   -0.8011 C.ar    1  LIG1       -0.0503
     20 C           3.3950    1.0952   -0.0362 C.ar    1  LIG1       -0.0144
     21 C           6.1852    1.1521    0.0013 C.ar    1  LIG1       -0.0144
     22 H           6.0764   -0.4483   -1.4108 H       1  LIG1        0.0627
     23 C           4.0799    2.0104    0.7633 C.ar    1  LIG1       -0.0503
     24 C           5.4729    2.0576    0.7979 C.ar    1  LIG1       -0.0421
     25 H           3.5034    2.6995    1.3711 H       1  LIG1        0.0627
     26 C           3.3789   -0.7985   -1.7254 C.3     1  LIG1       -0.0391
     27 H           4.0829   -1.5122   -2.1524 H       1  LIG1        0.0278
     28 H           2.8696   -0.2765   -2.5377 H       1  LIG1        0.0278
     29 H           2.6204   -1.3395   -1.1568 H       1  LIG1        0.0278
     30 C           6.2023    3.0611    1.6725 C.3     1  LIG1       -0.0391
     31 H           5.4909    3.6292    2.2710 H       1  LIG1        0.0278
     32 H           6.7801    3.7531    1.0575 H       1  LIG1        0.0278
     33 H           6.9018    2.5513    2.3383 H       1  LIG1        0.0278
     34 C           8.3842    0.3033    0.8811 C.ar    1  LIG1       -0.0421
     35 C           9.7777    0.3488    0.8656 C.ar    1  LIG1       -0.0503
     36 C           7.6852    1.1519    0.0133 C.ar    1  LIG1       -0.0144
     37 C          10.4758    1.2078    0.0167 C.ar    1  LIG1       -0.0144
     38 H          10.3439   -0.2969    1.5282 H       1  LIG1        0.0627
     39 C           8.3833    2.0080   -0.8383 C.ar    1  LIG1       -0.0503
     40 C           9.7769    2.0526   -0.8547 C.ar    1  LIG1       -0.0421
     41 H           7.8174    2.6524   -1.5026 H       1  LIG1        0.0627
     42 C           7.6404   -0.6388    1.8102 C.3     1  LIG1       -0.0391
     43 H           8.3418   -1.1641    2.4577 H       1  LIG1        0.0278
     44 H           7.0726   -1.3717    1.2345 H       1  LIG1        0.0278
     45 H           6.9302   -0.0854    2.4280 H       1  LIG1        0.0278
     46 C          10.5198    2.9819   -1.7972 C.3     1  LIG1       -0.0391
     47 H           9.8232    3.6651   -2.2822 H       1  LIG1        0.0278
     48 H          11.0408    2.4060   -2.5645 H       1  LIG1        0.0278
     49 H          11.2702    3.5600   -1.2551 H       1  LIG1        0.0278
     50 C          12.6482    2.0717    0.9460 C.ar    1  LIG1       -0.0427
     51 C          14.0419    2.0669    0.9344 C.ar    1  LIG1       -0.0580
     52 C          11.9756    1.2272    0.0506 C.ar    1  LIG1       -0.0145
     53 C          14.7545    1.2471    0.0629 C.ar    1  LIG1       -0.0586
     54 H          14.5794    2.7154    1.6162 H       1  LIG1        0.0620
     55 C          12.6956    0.4091   -0.8182 C.ar    1  LIG1       -0.0509
     56 C          14.0913    0.4028   -0.8249 C.ar    1  LIG1       -0.0499
     57 H          12.1486   -0.2330   -1.5005 H       1  LIG1        0.0626
     58 H          15.8382    1.2666    0.0748 H       1  LIG1        0.0620
     59 C          11.8720    2.9629    1.8986 C.3     1  LIG1       -0.0391
     60 H          12.5546    3.5900    2.4713 H       1  LIG1        0.0278
     61 H          11.2822    2.3582    2.5897 H       1  LIG1        0.0278
     62 H          11.1786    3.6022    1.3482 H       1  LIG1        0.0278
     63 C          14.8594   -0.5201   -1.7538 C.3     1  LIG1       -0.0397
     64 H          14.3216   -0.6553   -2.6922 H       1  LIG1        0.0278
     65 H          14.9897   -1.4995   -1.2892 H       1  LIG1        0.0278
     66 H          15.8452   -0.1101   -1.9729 H       1  LIG1        0.0278
@<TRIPOS>BOND
     1    11    10    1
     2    64    63    1
     3    48    46    1
     4    28    26    1
     5    47    46    1
     6    13    10    1
     7    27    26    1
     8    10    12    1
     9    10     1    1
    10    66    63    1
    11    46    49    1
    12    46    40    1
    13    63    65    1
    14    63    56    1
    15    26    29    1
    16    26    18    1
    17     5     2    1
    18    41    39    1
    19    57    55    1
    20    22    19    1
    21     1     2   ar
    22     1     3   ar
    23     2     4   ar
    24    40    39   ar
    25    40    37   ar
    26    39    36   ar
    27    18    19   ar
    28    18    20   ar
    29    56    55   ar
    30    56    53   ar
    31    55    52   ar
    32    19    21   ar
    33     9     3    1
    34     3     6   ar
    35    20     4    1
    36    20    23   ar
    37     4     7   ar
    38    21    36    1
    39    21    24   ar
    40    36    34   ar
    41    37    52    1
    42    37    35   ar
    43    52    50   ar
    44    53    58    1
    45    53    51   ar
    46    23    24   ar
    47    23    25    1
    48    24    30    1
    49    35    34   ar
    50    35    38    1
    51     6     7   ar
    52     6     8    1
    53    34    42    1
    54     7    14    1
    55    51    50   ar
    56    51    54    1
    57    50    59    1
    58    32    30    1
    59    44    42    1
    60    62    59    1
    61    17    14    1
    62    30    31    1
    63    30    33    1
    64    42    45    1
    65    42    43    1
    66    59    60    1
    67    59    61    1
    68    14    15    1
    69    14    16    1
