@<TRIPOS>MOLECULE
mol_data/opt/m06hf/geoms/mol2/4ii4de6dh-13ea-.out
 53 56 0 0 0
SMALL
GASTEIGER

@<TRIPOS>ATOM
      1 C          -0.2474    0.7002   -1.1327 C.ar    1  LIG1       -0.0499
      2 C           1.1459    0.7058   -1.0859 C.ar    1  LIG1       -0.0508
      3 C          -0.9406    1.2180   -0.0401 C.ar    1  LIG1       -0.0586
      4 C           1.8291    1.2192    0.0157 C.ar    1  LIG1       -0.0135
      5 H           1.7141    0.3073   -1.9194 H       1  LIG1        0.0626
      6 C          -0.2610    1.7199    1.0657 C.ar    1  LIG1       -0.0580
      7 C           1.1319    1.7305    1.1189 C.ar    1  LIG1       -0.0427
      8 H          -0.8226    2.1000    1.9106 H       1  LIG1        0.0620
      9 H          -2.0244    1.2196   -0.0475 H       1  LIG1        0.0620
     10 C          -0.9791    0.1663   -2.3503 C.3     1  LIG1       -0.0397
     11 H          -0.4257   -0.6604   -2.7955 H       1  LIG1        0.0278
     12 H          -1.0878    0.9525   -3.1000 H       1  LIG1        0.0278
     13 H          -1.9723   -0.1869   -2.0743 H       1  LIG1        0.0278
     14 C           1.8563    2.2512    2.3485 C.3     1  LIG1       -0.0391
     15 H           1.1531    2.3585    3.1735 H       1  LIG1        0.0278
     16 H           2.3119    3.2242    2.1560 H       1  LIG1        0.0278
     17 H           2.6463    1.5610    2.6481 H       1  LIG1        0.0278
     18 C           4.0519    0.0173    0.0774 C.ar    1  LIG1        0.0601
     19 C           5.4474    0.0136    0.0520 C.ar    1  LIG1       -0.0348
     20 C           3.3252    1.2123    0.0046 C.ar    1  LIG1        0.0009
     21 C           6.1490    1.2092   -0.0443 C.ar    1  LIG1        0.0015
     22 H           5.9826   -0.9262    0.0948 H       1  LIG1        0.0637
     23 C           4.0380    2.4056   -0.0865 C.ar    1  LIG1       -0.0368
     24 C           5.4341    2.4183   -0.1052 C.ar    1  LIG1        0.0331
     25 H           3.5016    3.3430   -0.1523 H       1  LIG1        0.0636
     26 N           2.8380   -2.2718    0.2636 N.1     1  LIG1       -0.1908
     27 C           3.3576   -1.2520    0.1824 C.1     1  LIG1        0.0998
     28 C           6.1253    3.6837   -0.1640 C.1     1  LIG1       -0.0690
     29 C           6.6815    4.7478   -0.2092 C.1     1  LIG1       -0.1139
     30 H           7.1762    5.6904   -0.2656 H       1  LIG1        0.1232
     31 C           8.3815    1.6199   -1.1647 C.ar    1  LIG1        0.1486
     32 C           7.6398    1.1824   -0.0606 C.ar    1  LIG1        0.0210
     33 C           8.3495    0.6984    1.0251 C.ar    1  LIG1       -0.0284
     34 C           9.7533    0.6557    1.0181 C.ar    1  LIG1        0.0530
     35 C          10.3948    1.0773   -0.1770 C.ar    1  LIG1        0.1103
     36 N           9.7037    1.5596   -1.2038 N.ar    1  LIG1       -0.2324
     37 H           7.8122    0.3800    1.9108 H       1  LIG1        0.0643
     38 N           7.1884    2.5389   -3.2863 N.1     1  LIG1       -0.1893
     39 C           7.7183    2.1369   -2.3514 C.1     1  LIG1        0.1197
     40 N          10.4335    0.2974    2.1385 N.pl3   1  LIG1       -0.3563
     41 H           9.9054   -0.0975    2.9000 H       1  LIG1        0.1424
     42 H          11.3973    0.0028    2.0778 H       1  LIG1        0.1424
     43 C          11.8609    1.1185   -0.3794 C.ar    1  LIG1        0.0824
     44 C          12.9609    0.3811    0.0531 C.ar    1  LIG1        0.0514
     45 C          14.1161    0.9366   -0.5743 C.ar    1  LIG1       -0.0283
     46 C          13.6851    1.9682   -1.3679 C.ar    1  LIG1        0.0034
     47 N          12.3347    2.0594   -1.2368 N.ar    1  LIG1       -0.3584
     48 H          11.7070    2.6680   -1.7448 H       1  LIG1        0.1654
     49 H          14.2311    2.6364   -2.0102 H       1  LIG1        0.0807
     50 C          12.9790   -0.7847    0.8859 C.1     1  LIG1       -0.0675
     51 C          13.0144   -1.7635    1.5866 C.1     1  LIG1       -0.1138
     52 H          13.0558   -2.6462    2.1822 H       1  LIG1        0.1232
     53 H          15.1259    0.5869   -0.4496 H       1  LIG1        0.0645
@<TRIPOS>BOND
     1    38    39    3
     2    12    10    1
     3    11    10    1
     4    39    31    1
     5    10    13    1
     6    10     1    1
     7    49    46    1
     8     5     2    1
     9    48    47    1
    10    46    47   ar
    11    46    45   ar
    12    47    43   ar
    13    36    31   ar
    14    36    35   ar
    15    31    32   ar
    16     1     2   ar
    17     1     3   ar
    18     2     4   ar
    19    45    53    1
    20    45    44   ar
    21    43    35    1
    22    43    44   ar
    23    30    29    1
    24    29    28    3
    25    35    34   ar
    26    28    24    1
    27    25    23    1
    28    24    23   ar
    29    24    21   ar
    30    23    20   ar
    31    32    21    1
    32    32    33   ar
    33     9     3    1
    34    21    19   ar
    35     3     6   ar
    36    20     4    1
    37    20    18   ar
    38     4     7   ar
    39    19    18   ar
    40    19    22    1
    41    44    50    1
    42    18    27    1
    43    27    26    3
    44    50    51    3
    45    34    33   ar
    46    34    40    1
    47    33    37    1
    48     6     7   ar
    49     6     8    1
    50     7    14    1
    51    51    52    1
    52    42    40    1
    53    40    41    1
    54    16    14    1
    55    14    17    1
    56    14    15    1
