@<TRIPOS>MOLECULE
mol_data/opt/m06hf/geoms/mol2/4ii4ha-12hf-13ff-.out
 50 53 0 0 0
SMALL
GASTEIGER

@<TRIPOS>ATOM
      1 C          -0.0443    0.7154    1.4147 C.ar    1  LIG1       -0.0499
      2 C           1.3402    0.8194    1.2715 C.ar    1  LIG1       -0.0508
      3 C          -0.8355    0.8796    0.2796 C.ar    1  LIG1       -0.0586
      4 C           1.9285    1.0831    0.0350 C.ar    1  LIG1       -0.0130
      5 H           1.9851    0.6912    2.1338 H       1  LIG1        0.0626
      6 C          -0.2575    1.1418   -0.9600 C.ar    1  LIG1       -0.0580
      7 C           1.1245    1.2516   -1.1055 C.ar    1  LIG1       -0.0427
      8 H          -0.8929    1.2770   -1.8274 H       1  LIG1        0.0620
      9 H          -1.9137    0.8076    0.3634 H       1  LIG1        0.0620
     10 C          -0.6629    0.4000    2.7650 C.3     1  LIG1       -0.0397
     11 H          -0.0741    0.8420    3.5687 H       1  LIG1        0.0278
     12 H          -0.6983   -0.6801    2.9207 H       1  LIG1        0.0278
     13 H          -1.6792    0.7891    2.8214 H       1  LIG1        0.0278
     14 C           1.7499    1.5709   -2.4519 C.3     1  LIG1       -0.0391
     15 H           0.9738    1.7410   -3.1975 H       1  LIG1        0.0278
     16 H           2.3859    0.7475   -2.7851 H       1  LIG1        0.0278
     17 H           2.3748    2.4618   -2.3741 H       1  LIG1        0.0278
     18 C           4.1558    0.1400   -0.6530 C.ar    1  LIG1        0.0330
     19 C           5.5424    0.2708   -0.7859 C.ar    1  LIG1       -0.0297
     20 C           3.4177    1.1908   -0.0748 C.ar    1  LIG1        0.0031
     21 C           6.1896    1.4265   -0.3459 C.ar    1  LIG1        0.0210
     22 H           6.1266   -0.5440   -1.1988 H       1  LIG1        0.0643
     23 C           4.0873    2.3239    0.3837 C.ar    1  LIG1       -0.0516
     24 C           5.4634    2.4593    0.2549 C.ar    1  LIG1       -0.0503
     25 H           3.5013    3.1173    0.8317 H       1  LIG1        0.0624
     26 N           3.5202   -1.0261   -1.0389 N.pl3   1  LIG1       -0.3575
     27 H           2.5120   -1.0117   -1.0783 H       1  LIG1        0.1423
     28 H           3.9860   -1.6189   -1.7058 H       1  LIG1        0.1423
     29 H           5.9724    3.3494    0.5967 H       1  LIG1        0.0625
     30 C           7.6391    1.5443   -0.5190 C.ar    1  LIG1        0.1601
     31 C           8.5132    0.9347   -1.3689 C.ar    1  LIG1        0.1138
     32 C           9.8081    1.4865   -1.0767 C.ar    1  LIG1        0.1861
     33 C           9.6252    2.3919   -0.0789 C.ar    1  LIG1        0.1985
     34 O           8.3105    2.4434    0.2582 O.2     1  LIG1       -0.4475
     35 N           8.2747   -0.0403   -2.3508 N.pl3   1  LIG1       -0.3522
     36 H           7.5271    0.2282   -2.9825 H       1  LIG1        0.1425
     37 H           9.1254   -0.2255   -2.8720 H       1  LIG1        0.1425
     38 O          10.9176    1.1015   -1.7466 O.3     1  LIG1       -0.5019
     39 H          11.6817    1.6349   -1.4704 H       1  LIG1        0.2924
     40 C          10.5397    3.2585    0.6365 C.ar    1  LIG1        0.1316
     41 C          11.8831    3.4807    0.4536 C.ar    1  LIG1        0.1873
     42 C          12.3035    4.4222    1.4239 C.ar    1  LIG1        0.1768
     43 C          11.2017    4.7595    2.1751 C.ar    1  LIG1        0.0480
     44 N          10.1499    4.0374    1.6920 N.ar    1  LIG1       -0.3521
     45 H           9.2040    4.0547    2.0384 H       1  LIG1        0.1656
     46 H          11.1014    5.4523    2.9914 H       1  LIG1        0.0845
     47 O          12.6731    2.8872   -0.4985 O.3     1  LIG1       -0.5018
     48 H          13.4674    3.4229   -0.6181 H       1  LIG1        0.2924
     49 O          13.5887    4.9117    1.4873 O.3     1  LIG1       -0.5023
     50 H          14.0653    4.4654    2.1962 H       1  LIG1        0.2923
@<TRIPOS>BOND
     1    15    14    1
     2    36    35    1
     3    37    35    1
     4    16    14    1
     5    14    17    1
     6    14     7    1
     7    35    31    1
     8     8     6    1
     9    38    39    1
    10    38    32    1
    11    28    26    1
    12    31    32   ar
    13    31    30   ar
    14    22    19    1
    15     7     6   ar
    16     7     4   ar
    17    27    26    1
    18    32    33   ar
    19    26    18    1
    20     6     3   ar
    21    19    18   ar
    22    19    21   ar
    23    18    20   ar
    24    48    47    1
    25    30    21    1
    26    30    34   ar
    27    47    41    1
    28    21    24   ar
    29    33    34   ar
    30    33    40    1
    31    20     4    1
    32    20    23   ar
    33     4     2   ar
    34    24    23   ar
    35    24    29    1
    36     3     9    1
    37     3     1   ar
    38    23    25    1
    39    41    40   ar
    40    41    42   ar
    41    40    44   ar
    42     2     1   ar
    43     2     5    1
    44     1    10    1
    45    42    49    1
    46    42    43   ar
    47    49    50    1
    48    44    45    1
    49    44    43   ar
    50    43    46    1
    51    10    13    1
    52    10    12    1
    53    10    11    1
