@<TRIPOS>MOLECULE
mol_data/opt/m06hf/geoms/mol2/4ii4fl12da-6ei-.out
 55 58 0 0 0
SMALL
GASTEIGER

@<TRIPOS>ATOM
      1 C          -0.0882    0.0410   -0.5775 C.ar    1  LIG1       -0.0499
      2 C           1.3024    0.0930   -0.5891 C.ar    1  LIG1       -0.0507
      3 C          -0.7743    0.9965    0.1736 C.ar    1  LIG1       -0.0586
      4 C           2.0009    1.0758    0.1151 C.ar    1  LIG1       -0.0111
      5 H           1.8658   -0.6432   -1.1508 H       1  LIG1        0.0626
      6 C          -0.0843    1.9677    0.8887 C.ar    1  LIG1       -0.0580
      7 C           1.3105    2.0293    0.8745 C.ar    1  LIG1       -0.0426
      8 H          -0.6368    2.6891    1.4791 H       1  LIG1        0.0620
      9 H          -1.8577    0.9738    0.2078 H       1  LIG1        0.0620
     10 C          -0.8370   -1.0105   -1.3760 C.3     1  LIG1       -0.0397
     11 H          -0.2134   -1.8910   -1.5280 H       1  LIG1        0.0278
     12 H          -1.1177   -0.6138   -2.3536 H       1  LIG1        0.0278
     13 H          -1.7456   -1.3117   -0.8544 H       1  LIG1        0.0278
     14 C           2.0328    3.0923    1.6857 C.3     1  LIG1       -0.0391
     15 H           1.3856    3.4467    2.4877 H       1  LIG1        0.0278
     16 H           2.3002    3.9478    1.0610 H       1  LIG1        0.0278
     17 H           2.9482    2.6908    2.1209 H       1  LIG1        0.0278
     18 C           4.2608    0.0299    0.5203 C.ar    1  LIG1        0.1254
     19 C           5.6474    0.0768    0.4637 C.ar    1  LIG1       -0.0054
     20 C           3.4941    1.1011    0.0376 C.ar    1  LIG1        0.0273
     21 C           6.3060    1.1808   -0.0892 C.ar    1  LIG1        0.0636
     22 H           6.2241   -0.7489    0.8632 H       1  LIG1        0.0662
     23 C           4.1600    2.1883   -0.5182 C.ar    1  LIG1       -0.0080
     24 C           5.5489    2.2454   -0.5901 C.ar    1  LIG1        0.1316
     25 H           3.5912    3.0094   -0.9375 H       1  LIG1        0.0661
     26 O           3.5996   -1.0330    1.0498 O.3     1  LIG1       -0.5061
     27 H           4.2206   -1.7203    1.3135 H       1  LIG1        0.2922
     28 O           6.1442    3.3246   -1.1855 O.3     1  LIG1       -0.4944
     29 C           6.2809    4.4596   -0.3276 C.3     1  LIG1        0.0788
     30 H           6.7159    5.2488   -0.9346 H       1  LIG1        0.0660
     31 H           5.3014    4.7615    0.0514 H       1  LIG1        0.0660
     32 H           6.9486    4.2215    0.5013 H       1  LIG1        0.0660
     33 C           7.7754    1.1762   -0.1529 C.ar    1  LIG1        0.1566
     34 C           8.6913    0.1546   -0.1954 C.ar    1  LIG1        0.0981
     35 C           9.9925    0.7605   -0.2174 C.ar    1  LIG1        0.0023
     36 C           9.7674    2.0979   -0.1916 C.ar    1  LIG1        0.1396
     37 O           8.4369    2.3397   -0.1439 O.2     1  LIG1       -0.4533
     38 N           8.1725   -2.3736   -0.2453 N.1     1  LIG1       -0.1907
     39 C           8.4023   -1.2485   -0.2344 C.1     1  LIG1        0.1030
     40 H          10.9426    0.2587   -0.2821 H       1  LIG1        0.0668
     41 C          10.5200    4.3203   -1.0957 C.ar    1  LIG1        0.1238
     42 C          10.6884    3.2482   -0.2014 C.ar    1  LIG1        0.0513
     43 C          11.7750    3.2834    0.6663 C.ar    1  LIG1       -0.0441
     44 C          12.6532    4.3637    0.6395 C.ar    1  LIG1       -0.0316
     45 C          12.3712    5.3801   -0.2751 C.ar    1  LIG1        0.0319
     46 N          11.3443    5.3652   -1.1186 N.ar    1  LIG1       -0.2457
     47 H          11.9199    2.4715    1.3706 H       1  LIG1        0.0629
     48 H          13.0141    6.2515   -0.3296 H       1  LIG1        0.0832
     49 C           9.4358    4.2960   -2.0550 C.1     1  LIG1       -0.0491
     50 C           8.5223    4.2138   -2.8300 C.1     1  LIG1       -0.1124
     51 H           7.6907    4.1239   -3.4913 H       1  LIG1        0.1232
     52 C          13.8527    4.4347    1.5620 C.3     1  LIG1       -0.0383
     53 H          14.3350    5.4084    1.4867 H       1  LIG1        0.0278
     54 H          14.5786    3.6651    1.2951 H       1  LIG1        0.0278
     55 H          13.5448    4.2756    2.5958 H       1  LIG1        0.0278
@<TRIPOS>BOND
     1    51    50    1
     2    50    49    3
     3    12    10    1
     4    49    41    1
     5    11    10    1
     6    10    13    1
     7    10     1    1
     8    28    24    1
     9    28    29    1
    10     5     2    1
    11    46    41   ar
    12    46    45   ar
    13    41    42   ar
    14    25    23    1
    15    30    29    1
    16    24    23   ar
    17    24    21   ar
    18     2     1   ar
    19     2     4   ar
    20     1     3   ar
    21    23    20   ar
    22    48    45    1
    23    29    31    1
    24    29    32    1
    25    40    35    1
    26    45    44   ar
    27    38    39    3
    28    39    34    1
    29    35    34   ar
    30    35    36   ar
    31    42    36    1
    32    42    43   ar
    33    34    33   ar
    34    36    37   ar
    35    33    37   ar
    36    33    21    1
    37    21    19   ar
    38    20     4    1
    39    20    18   ar
    40     4     7   ar
    41     3     9    1
    42     3     6   ar
    43    19    18   ar
    44    19    22    1
    45    18    26    1
    46    44    43   ar
    47    44    52    1
    48    43    47    1
    49     7     6   ar
    50     7    14    1
    51     6     8    1
    52    26    27    1
    53    16    14    1
    54    54    52    1
    55    53    52    1
    56    52    55    1
    57    14    17    1
    58    14    15    1
