@<TRIPOS>MOLECULE
mol_data/opt/m06hf/geoms/mol2/4ii4ii4ii.out
 50 52 0 0 0
SMALL
GASTEIGER

@<TRIPOS>ATOM
      1 C          -0.0900    0.9509   -1.2500 C.ar    1  LIG1       -0.0499
      2 C           1.3039    0.9965   -1.2113 C.ar    1  LIG1       -0.0509
      3 C          -0.7804    0.9702   -0.0393 C.ar    1  LIG1       -0.0586
      4 C           1.9965    1.0668   -0.0030 C.ar    1  LIG1       -0.0145
      5 H           1.8715    0.9763   -2.1356 H       1  LIG1        0.0626
      6 C          -0.0960    1.0414    1.1707 C.ar    1  LIG1       -0.0580
      7 C           1.2970    1.0935    1.2117 C.ar    1  LIG1       -0.0427
      8 H          -0.6533    1.0559    2.0999 H       1  LIG1        0.0620
      9 H          -1.8637    0.9292   -0.0409 H       1  LIG1        0.0620
     10 C          -0.8335    0.9097   -2.5731 C.3     1  LIG1       -0.0397
     11 H          -0.2126    0.4625   -3.3492 H       1  LIG1        0.0278
     12 H          -1.1009    1.9207   -2.8874 H       1  LIG1        0.0278
     13 H          -1.7498    0.3266   -2.4792 H       1  LIG1        0.0278
     14 C           2.0419    1.1838    2.5312 C.3     1  LIG1       -0.0391
     15 H           1.3496    1.0732    3.3654 H       1  LIG1        0.0278
     16 H           2.5457    2.1485    2.6161 H       1  LIG1        0.0278
     17 H           2.8064    0.4074    2.5966 H       1  LIG1        0.0278
     18 C           4.2331   -0.0870    0.0129 C.ar    1  LIG1       -0.0421
     19 C           5.6248    0.0001    0.0252 C.ar    1  LIG1       -0.0503
     20 C           3.4963    1.1040   -0.0084 C.ar    1  LIG1       -0.0144
     21 C           6.2841    1.2294    0.0107 C.ar    1  LIG1       -0.0144
     22 H           6.2195   -0.9066    0.0458 H       1  LIG1        0.0627
     23 C           4.1557    2.3331   -0.0252 C.ar    1  LIG1       -0.0503
     24 C           5.5474    2.4202   -0.0192 C.ar    1  LIG1       -0.0421
     25 H           3.5609    3.2399   -0.0441 H       1  LIG1        0.0627
     26 C           3.5318   -1.4334    0.0128 C.3     1  LIG1       -0.0391
     27 H           4.2530   -2.2364    0.1621 H       1  LIG1        0.0278
     28 H           3.0182   -1.5917   -0.9372 H       1  LIG1        0.0278
     29 H           2.7796   -1.4757    0.8029 H       1  LIG1        0.0278
     30 C           6.2490    3.7660   -0.0538 C.3     1  LIG1       -0.0391
     31 H           5.5259    4.5733    0.0578 H       1  LIG1        0.0278
     32 H           6.7767    3.8926   -1.0009 H       1  LIG1        0.0278
     33 H           6.9893    3.8348    0.7455 H       1  LIG1        0.0278
     34 C           8.4647    1.2811    1.2630 C.ar    1  LIG1       -0.0427
     35 C           9.8581    1.3319    1.2415 C.ar    1  LIG1       -0.0580
     36 C           7.7837    1.2670    0.0376 C.ar    1  LIG1       -0.0145
     37 C          10.5608    1.3626    0.0403 C.ar    1  LIG1       -0.0586
     38 H          10.4013    1.3485    2.1790 H       1  LIG1        0.0620
     39 C           8.4946    1.2969   -1.1617 C.ar    1  LIG1       -0.0509
     40 C           9.8889    1.3413   -1.1808 C.ar    1  LIG1       -0.0499
     41 H           7.9411    1.2861   -2.0946 H       1  LIG1        0.0626
     42 H          11.6441    1.4036    0.0538 H       1  LIG1        0.0620
     43 C           7.6998    1.2348    2.5734 C.3     1  LIG1       -0.0391
     44 H           8.3793    1.3738    3.4138 H       1  LIG1        0.0278
     45 H           7.1948    0.2732    2.6830 H       1  LIG1        0.0278
     46 H           6.9343    2.0125    2.6009 H       1  LIG1        0.0278
     47 C          10.6526    1.3384   -2.4929 C.3     1  LIG1       -0.0397
     48 H          10.0427    1.7562   -3.2936 H       1  LIG1        0.0278
     49 H          10.9272    0.3178   -2.7673 H       1  LIG1        0.0278
     50 H          11.5659    1.9271   -2.4055 H       1  LIG1        0.0278
@<TRIPOS>BOND
     1    11    10    1
     2    48    47    1
     3    12    10    1
     4    49    47    1
     5    10    13    1
     6    10     1    1
     7    47    50    1
     8    47    40    1
     9     5     2    1
    10    41    39    1
    11     1     2   ar
    12     1     3   ar
    13     2     4   ar
    14    40    39   ar
    15    40    37   ar
    16    39    36   ar
    17    32    30    1
    18    28    26    1
    19    30    24    1
    20    30    31    1
    21    30    33    1
    22    25    23    1
    23     9     3    1
    24     3     6   ar
    25    23    24   ar
    26    23    20   ar
    27    24    21   ar
    28    20     4    1
    29    20    18   ar
    30     4     7   ar
    31    21    19   ar
    32    21    36    1
    33    26    18    1
    34    26    27    1
    35    26    29    1
    36    18    19   ar
    37    19    22    1
    38    36    34   ar
    39    37    42    1
    40    37    35   ar
    41     6     7   ar
    42     6     8    1
    43     7    14    1
    44    35    34   ar
    45    35    38    1
    46    34    43    1
    47    14    17    1
    48    14    16    1
    49    14    15    1
    50    43    46    1
    51    43    45    1
    52    43    44    1
