@<TRIPOS>MOLECULE
mol_data/opt/m06hf/geoms/mol2/4ii4ii.out
 34 35 0 0 0
SMALL
GASTEIGER

@<TRIPOS>ATOM
      1 C           0.0448    0.2163   -0.8790 C.ar    1  LIG1       -0.0499
      2 C           1.4375    0.2761   -0.8220 C.ar    1  LIG1       -0.0509
      3 C          -0.6821    1.0921   -0.0745 C.ar    1  LIG1       -0.0586
      4 C           2.0947    1.1833    0.0084 C.ar    1  LIG1       -0.0145
      5 H           2.0333   -0.3942   -1.4327 H       1  LIG1        0.0626
      6 C          -0.0330    1.9996    0.7584 C.ar    1  LIG1       -0.0580
      7 C           1.3587    2.0633    0.8145 C.ar    1  LIG1       -0.0427
      8 H          -0.6186    2.6693    1.3774 H       1  LIG1        0.0620
      9 H          -1.7654    1.0643   -0.0960 H       1  LIG1        0.0620
     10 C          -0.6555   -0.7539   -1.8136 C.3     1  LIG1       -0.0397
     11 H          -0.0396   -1.6373   -1.9814 H       1  LIG1        0.0278
     12 H          -0.8447   -0.2792   -2.7785 H       1  LIG1        0.0278
     13 H          -1.6105   -1.0691   -1.3930 H       1  LIG1        0.0278
     14 C           2.0650    3.0558    1.7202 C.3     1  LIG1       -0.0391
     15 H           1.3420    3.5770    2.3472 H       1  LIG1        0.0278
     16 H           2.6123    3.7900    1.1263 H       1  LIG1        0.0278
     17 H           2.7886    2.5455    2.3585 H       1  LIG1        0.0278
     18 C           4.2972    0.3569    0.9045 C.ar    1  LIG1       -0.0427
     19 C           5.6901    0.4195    0.9020 C.ar    1  LIG1       -0.0580
     20 C           3.5948    1.2066    0.0381 C.ar    1  LIG1       -0.0145
     21 C           6.3728    1.2965    0.0635 C.ar    1  LIG1       -0.0586
     22 H           6.2498   -0.2269    1.5680 H       1  LIG1        0.0620
     23 C           4.2855    2.0835   -0.7976 C.ar    1  LIG1       -0.0509
     24 C           5.6794    2.1421   -0.8008 C.ar    1  LIG1       -0.0499
     25 H           3.7152    2.7307   -1.4556 H       1  LIG1        0.0626
     26 H           7.4561    1.3243    0.0845 H       1  LIG1        0.0620
     27 C           3.5544   -0.6026    1.8166 C.3     1  LIG1       -0.0391
     28 H           4.2512   -1.1002    2.4905 H       1  LIG1        0.0278
     29 H           3.0308   -1.3583    1.2282 H       1  LIG1        0.0278
     30 H           2.8061   -0.0700    2.4064 H       1  LIG1        0.0278
     31 C           6.4174    3.0782   -1.7411 C.3     1  LIG1       -0.0397
     32 H           5.8094    3.9546   -1.9655 H       1  LIG1        0.0278
     33 H           6.6448    2.5690   -2.6798 H       1  LIG1        0.0278
     34 H           7.3550    3.4091   -1.2942 H       1  LIG1        0.0278
@<TRIPOS>BOND
     1    12    10    1
     2    33    31    1
     3    11    10    1
     4    32    31    1
     5    10    13    1
     6    10     1    1
     7    31    34    1
     8    31    24    1
     9    25    23    1
    10     5     2    1
    11     1     2   ar
    12     1     3   ar
    13     2     4   ar
    14    24    23   ar
    15    24    21   ar
    16    23    20   ar
    17     9     3    1
    18     3     6   ar
    19     4    20    1
    20     4     7   ar
    21    20    18   ar
    22    21    26    1
    23    21    19   ar
    24     6     7   ar
    25     6     8    1
    26     7    14    1
    27    19    18   ar
    28    19    22    1
    29    18    27    1
    30    16    14    1
    31    29    27    1
    32    14    15    1
    33    14    17    1
    34    27    30    1
    35    27    28    1
