@<TRIPOS>MOLECULE
mol_data/opt/m06hf/geoms/mol2/4il.out
 19 19 0 0 0
SMALL
GASTEIGER

@<TRIPOS>ATOM
      1 C           0.0639    0.0017   -0.0010 C.ar    1  LIG1       -0.0502
      2 C           1.4504   -0.0488    0.0530 C.ar    1  LIG1       -0.0554
      3 C          -0.5413    1.2640   -0.0665 C.ar    1  LIG1       -0.0554
      4 C           2.2325    1.1103    0.0433 C.ar    1  LIG1       -0.0197
      5 H           1.9464   -1.0108    0.1042 H       1  LIG1        0.0621
      6 C           0.2123    2.4239   -0.0773 C.ar    1  LIG1       -0.0197
      7 C           1.6093    2.3524   -0.0222 C.ar    1  LIG1        0.1201
      8 H          -0.2469    3.4017   -0.1277 H       1  LIG1        0.0654
      9 H           3.3090    1.0231    0.0868 H       1  LIG1        0.0654
     10 H          -1.6224    1.3338   -0.1096 H       1  LIG1        0.0621
     11 C          -0.7831   -1.2581    0.0096 C.3     1  LIG1       -0.0397
     12 H          -0.1519   -2.1448    0.0641 H       1  LIG1        0.0278
     13 H          -1.3874   -1.3193   -0.8968 H       1  LIG1        0.0278
     14 H          -1.4551   -1.2589    0.8693 H       1  LIG1        0.0278
     15 O           2.2662    3.5428   -0.0376 O.3     1  LIG1       -0.4951
     16 C           3.6778    3.5190    0.0162 C.3     1  LIG1        0.0788
     17 H           3.9952    4.5579   -0.0070 H       1  LIG1        0.0660
     18 H           4.0232    3.0482    0.9408 H       1  LIG1        0.0660
     19 H           4.0904    2.9877   -0.8460 H       1  LIG1        0.0660
@<TRIPOS>BOND
     1    13    11    1
     2    19    16    1
     3     8     6    1
     4    10     3    1
     5     6     3   ar
     6     6     7   ar
     7     3     1   ar
     8    15     7    1
     9    15    16    1
    10     7     4   ar
    11    17    16    1
    12     1    11    1
    13     1     2   ar
    14    11    12    1
    15    11    14    1
    16    16    18    1
    17     4     2   ar
    18     4     9    1
    19     2     5    1
