@<TRIPOS>MOLECULE
mol_data/opt/m06hf/geoms/mol2/4il12di6he-6hd.out
 55 58 0 0 0
SMALL
GASTEIGER

@<TRIPOS>ATOM
      1 C           0.3973   -0.4230   -1.0266 C.ar    1  LIG1       -0.0495
      2 C           1.7428   -0.2601   -0.6911 C.ar    1  LIG1       -0.0446
      3 C          -0.4437    0.6747   -0.8811 C.ar    1  LIG1       -0.0553
      4 C           2.2323    0.9536   -0.2192 C.ar    1  LIG1        0.0604
      5 H           2.4289   -1.0925   -0.7991 H       1  LIG1        0.0628
      6 C           0.0225    1.9022   -0.4077 C.ar    1  LIG1       -0.0190
      7 C           1.3623    2.0485   -0.0669 C.ar    1  LIG1        0.1308
      8 H          -0.6673    2.7271   -0.3017 H       1  LIG1        0.0654
      9 H          -1.4920    0.5802   -1.1374 H       1  LIG1        0.0621
     10 C          -0.1086   -1.7525   -1.5556 C.3     1  LIG1       -0.0397
     11 H           0.3181   -2.5753   -0.9821 H       1  LIG1        0.0278
     12 H           0.1767   -1.8763   -2.6017 H       1  LIG1        0.0278
     13 H          -1.1944   -1.8037   -1.4840 H       1  LIG1        0.0278
     14 O           1.8875    3.1982    0.4427 O.3     1  LIG1       -0.4944
     15 C           0.9882    4.2086    0.8720 C.3     1  LIG1        0.0788
     16 H           1.6008    4.9486    1.3814 H       1  LIG1        0.0660
     17 H           0.4841    4.6670    0.0183 H       1  LIG1        0.0660
     18 H           0.2540    3.7937    1.5657 H       1  LIG1        0.0660
     19 C           3.6453    1.0770    0.1631 C.ar    1  LIG1        0.1567
     20 C           4.5069    0.2545    0.8331 C.ar    1  LIG1        0.1010
     21 C           5.7625    0.9545    0.9710 C.ar    1  LIG1        0.0134
     22 C           5.5588    2.1485    0.3490 C.ar    1  LIG1        0.1432
     23 O           4.2938    2.2067   -0.1441 O.2     1  LIG1       -0.4530
     24 N           3.9622   -2.0879    1.7722 N.1     1  LIG1       -0.1907
     25 C           4.1962   -1.0434    1.3568 C.1     1  LIG1        0.1032
     26 C           6.9774    0.4549    1.7078 C.3     1  LIG1       -0.0349
     27 H           7.5592    1.2962    2.0837 H       1  LIG1        0.0279
     28 H           7.6059   -0.1510    1.0531 H       1  LIG1        0.0279
     29 H           6.6626   -0.1625    2.5488 H       1  LIG1        0.0279
     30 C           5.8317    4.6507    0.1798 C.ar    1  LIG1        0.1277
     31 C           6.3898    3.3398    0.1515 C.ar    1  LIG1        0.0582
     32 C           7.7539    3.2375   -0.0309 C.ar    1  LIG1       -0.0303
     33 C           8.5623    4.3745   -0.1666 C.ar    1  LIG1        0.0515
     34 C           7.9241    5.6245   -0.1429 C.ar    1  LIG1        0.0918
     35 N           6.6051    5.7279    0.0384 N.ar    1  LIG1       -0.2304
     36 H           8.2173    2.2604   -0.0790 H       1  LIG1        0.0638
     37 N           4.5097    4.8813    0.3697 N.pl3   1  LIG1       -0.3426
     38 H           4.2142    5.8322    0.2151 H       1  LIG1        0.1437
     39 H           3.8286    4.1382    0.2656 H       1  LIG1        0.1437
     40 C           9.9868    4.1986   -0.2840 C.1     1  LIG1       -0.0675
     41 C          11.1690    3.9986   -0.3732 C.1     1  LIG1       -0.1138
     42 H          12.2198    3.8373   -0.4508 H       1  LIG1        0.1232
     43 C           8.3291    8.0852    0.3976 C.ar    1  LIG1        0.1255
     44 C           8.6700    6.9015   -0.3254 C.ar    1  LIG1        0.0423
     45 C           9.7185    6.9868   -1.2228 C.ar    1  LIG1       -0.0304
     46 C          10.4285    8.1826   -1.3593 C.ar    1  LIG1        0.0706
     47 C          10.0499    9.2657   -0.5660 C.ar    1  LIG1        0.0471
     48 N           9.0350    9.2208    0.2764 N.ar    1  LIG1       -0.2388
     49 H           9.9927    6.1299   -1.8227 H       1  LIG1        0.0638
     50 H          10.5892   10.2033   -0.6319 H       1  LIG1        0.0843
     51 N           7.2992    8.1240    1.2639 N.pl3   1  LIG1       -0.3426
     52 H           7.0992    9.0194    1.6796 H       1  LIG1        0.1437
     53 H           6.5939    7.4041    1.1989 H       1  LIG1        0.1437
     54 N          12.3923    8.3965   -3.0341 N.1     1  LIG1       -0.1908
     55 C          11.5224    8.3011   -2.2901 C.1     1  LIG1        0.1007
@<TRIPOS>BOND
     1    54    55    3
     2    12    10    1
     3    55    46    1
     4    49    45    1
     5    10    13    1
     6    10     1    1
     7    10    11    1
     8    46    45   ar
     9    46    47   ar
    10    45    44   ar
    11     9     3    1
    12     1     3   ar
    13     1     2   ar
    14     3     6   ar
    15     5     2    1
    16     2     4   ar
    17    50    47    1
    18    47    48   ar
    19    42    41    1
    20     6     8    1
    21     6     7   ar
    22    41    40    3
    23    44    34    1
    24    44    43   ar
    25    40    33    1
    26     4     7   ar
    27     4    19    1
    28    33    34   ar
    29    33    32   ar
    30    23    19   ar
    31    23    22   ar
    32    34    35   ar
    33    36    32    1
    34     7    14    1
    35    32    31   ar
    36    17    15    1
    37    35    30   ar
    38    31    30   ar
    39    31    22    1
    40    19    20   ar
    41    30    37    1
    42    38    37    1
    43    39    37    1
    44    48    43   ar
    45    22    21   ar
    46    43    51    1
    47    14    15    1
    48    20    21   ar
    49    20    25    1
    50    15    16    1
    51    15    18    1
    52    21    26    1
    53    28    26    1
    54    53    51    1
    55    51    52    1
    56    25    24    3
    57    26    27    1
    58    26    29    1
