@<TRIPOS>MOLECULE
mol_data/opt/m06hf/geoms/mol2/4il12ih-12ah13la-.out
 52 55 0 0 0
SMALL
GASTEIGER

@<TRIPOS>ATOM
      1 C          -0.1842    0.1474   -0.4463 C.ar    1  LIG1       -0.0496
      2 C           1.2038    0.2391   -0.5129 C.ar    1  LIG1       -0.0446
      3 C          -0.8605    1.0299    0.3984 C.ar    1  LIG1       -0.0553
      4 C           1.9203    1.1669    0.2491 C.ar    1  LIG1        0.0594
      5 H           1.7536   -0.4026   -1.1923 H       1  LIG1        0.0628
      6 C          -0.1677    1.9581    1.1659 C.ar    1  LIG1       -0.0190
      7 C           1.2211    2.0299    1.1035 C.ar    1  LIG1        0.1307
      8 H          -0.6796    2.6453    1.8260 H       1  LIG1        0.0654
      9 H          -1.9419    0.9900    0.4575 H       1  LIG1        0.0621
     10 C          -0.9417   -0.8834   -1.2639 C.3     1  LIG1       -0.0397
     11 H          -0.3525   -1.2000   -2.1242 H       1  LIG1        0.0278
     12 H          -1.8838   -0.4682   -1.6223 H       1  LIG1        0.0278
     13 H          -1.1640   -1.7622   -0.6553 H       1  LIG1        0.0278
     14 O           1.8442    2.9697    1.8746 O.3     1  LIG1       -0.4944
     15 C           2.7238    2.4657    2.8777 C.3     1  LIG1        0.0788
     16 H           3.0090    3.3253    3.4789 H       1  LIG1        0.0660
     17 H           2.2005    1.7320    3.4949 H       1  LIG1        0.0660
     18 H           3.6142    2.0153    2.4360 H       1  LIG1        0.0660
     19 C           3.3886    1.2197    0.1399 C.ar    1  LIG1        0.1441
     20 C           4.3243    0.2264    0.1633 C.ar    1  LIG1        0.0168
     21 C           5.5939    0.8965    0.0497 C.ar    1  LIG1        0.0776
     22 C           5.3175    2.2302   -0.0116 C.ar    1  LIG1        0.1914
     23 O           3.9757    2.4300    0.0386 O.2     1  LIG1       -0.4494
     24 C           4.1290   -1.2569    0.3347 C.3     1  LIG1       -0.0343
     25 H           4.8546   -1.6382    1.0555 H       1  LIG1        0.0279
     26 H           4.2681   -1.7881   -0.6101 H       1  LIG1        0.0279
     27 H           3.1246   -1.4626    0.7034 H       1  LIG1        0.0279
     28 N           6.8483    0.2767    0.0566 N.pl3   1  LIG1       -0.3547
     29 H           6.8339   -0.6276   -0.3997 H       1  LIG1        0.1424
     30 H           7.5670    0.8665   -0.3497 H       1  LIG1        0.1424
     31 C           6.2139    3.3652   -0.1066 C.ar    1  LIG1        0.1743
     32 C           7.4952    3.5323    0.3249 C.ar    1  LIG1        0.0087
     33 C           7.9061    4.8371   -0.1281 C.ar    1  LIG1        0.0733
     34 C           6.8220    5.3613   -0.7725 C.ar    1  LIG1        0.1760
     35 O           5.7924    4.4642   -0.7625 O.2     1  LIG1       -0.4482
     36 H           8.0617    2.8473    0.9350 H       1  LIG1        0.0675
     37 N           9.1421    5.4376    0.1244 N.pl3   1  LIG1       -0.3550
     38 H           9.9225    4.8073   -0.0038 H       1  LIG1        0.1424
     39 H           9.2653    6.3113   -0.3801 H       1  LIG1        0.1424
     40 C           6.5657    6.6258   -1.4382 C.ar    1  LIG1        0.1261
     41 C           7.2443    7.8291   -1.4254 C.ar    1  LIG1        0.1483
     42 C           6.5538    8.7365   -2.2711 C.ar    1  LIG1       -0.0018
     43 C           5.4702    8.0539   -2.7725 C.ar    1  LIG1        0.0058
     44 N           5.4907    6.7887   -2.2663 N.ar    1  LIG1       -0.3553
     45 H           4.8155    6.0609   -2.4428 H       1  LIG1        0.1655
     46 H           4.6932    8.3714   -3.4451 H       1  LIG1        0.0808
     47 O           8.3770    8.0966   -0.6959 O.3     1  LIG1       -0.4929
     48 C           8.0907    8.4456    0.6612 C.3     1  LIG1        0.0789
     49 H           9.0494    8.6369    1.1382 H       1  LIG1        0.0660
     50 H           7.4656    9.3398    0.6859 H       1  LIG1        0.0660
     51 H           7.5839    7.6176    1.1596 H       1  LIG1        0.0660
     52 H           6.8346    9.7551   -2.4761 H       1  LIG1        0.0669
@<TRIPOS>BOND
     1    46    43    1
     2    43    42   ar
     3    43    44   ar
     4    52    42    1
     5    45    44    1
     6    42    41   ar
     7    44    40   ar
     8    11    10    1
     9    12    10    1
    10    40    41   ar
    11    40    34    1
    12    41    47    1
    13    10    13    1
    14    10     1    1
    15     5     2    1
    16    34    35   ar
    17    34    33   ar
    18    35    31   ar
    19    47    48    1
    20    26    24    1
    21     2     1   ar
    22     2     4   ar
    23     1     3   ar
    24    29    28    1
    25    39    37    1
    26    30    28    1
    27    33    37    1
    28    33    32   ar
    29    31    22    1
    30    31    32   ar
    31    22    23   ar
    32    22    21   ar
    33    38    37    1
    34    23    19   ar
    35    21    28    1
    36    21    20   ar
    37    19    20   ar
    38    19     4    1
    39    20    24    1
    40     4     7   ar
    41    32    36    1
    42    24    27    1
    43    24    25    1
    44     3     9    1
    45     3     6   ar
    46    48    50    1
    47    48    49    1
    48    48    51    1
    49     7     6   ar
    50     7    14    1
    51     6     8    1
    52    14    15    1
    53    18    15    1
    54    15    16    1
    55    15    17    1
