@<TRIPOS>MOLECULE
mol_data/opt/m06hf/geoms/mol2/4la.out
 16 16 0 0 0
SMALL
GASTEIGER

@<TRIPOS>ATOM
      1 C           0.0489    0.1597    0.0002 C.ar    1  LIG1        0.1201
      2 C           1.4453    0.0835   -0.0001 C.ar    1  LIG1       -0.0200
      3 C          -0.5827    1.4024    0.0001 C.ar    1  LIG1       -0.0200
      4 C           2.2024    1.2436   -0.0004 C.ar    1  LIG1       -0.0583
      5 H           1.9002   -0.8977   -0.0000 H       1  LIG1        0.0654
      6 C           0.1952    2.5624   -0.0002 C.ar    1  LIG1       -0.0583
      7 C           1.5811    2.4948   -0.0004 C.ar    1  LIG1       -0.0615
      8 H          -0.2996    3.5255   -0.0002 H       1  LIG1        0.0619
      9 H           3.2825    1.1742   -0.0006 H       1  LIG1        0.0619
     10 H          -1.6605    1.4820    0.0003 H       1  LIG1        0.0654
     11 O          -0.6089   -1.0298    0.0005 O.3     1  LIG1       -0.4951
     12 C          -2.0213   -1.0024    0.0008 C.3     1  LIG1        0.0788
     13 H          -2.3412   -2.0408    0.0010 H       1  LIG1        0.0660
     14 H          -2.3995   -0.5004    0.8954 H       1  LIG1        0.0660
     15 H          -2.3999   -0.5007   -0.8939 H       1  LIG1        0.0660
     16 H           2.1731    3.3999   -0.0007 H       1  LIG1        0.0618
@<TRIPOS>BOND
     1    15    12    1
     2    16     7    1
     3     9     4    1
     4     7     4   ar
     5     7     6   ar
     6     4     2   ar
     7     8     6    1
     8     6     3   ar
     9     2     5    1
    10     2     1   ar
    11     3     1   ar
    12     3    10    1
    13     1    11    1
    14    11    12    1
    15    12    13    1
    16    12    14    1
