@<TRIPOS>MOLECULE
mol_data/opt/m06hf/geoms/mol2/4la13af-4ed13fi.out
 50 53 0 0 0
SMALL
GASTEIGER

@<TRIPOS>ATOM
      1 C          -0.0889    0.0104   -0.4156 C.ar    1  LIG1        0.1207
      2 C           1.2788    0.0171   -0.1313 C.ar    1  LIG1       -0.0108
      3 C          -0.8214    1.1963   -0.3660 C.ar    1  LIG1       -0.0199
      4 C           1.9169    1.2004    0.2200 C.ar    1  LIG1        0.0019
      5 H           1.8276   -0.9117   -0.2117 H       1  LIG1        0.0661
      6 C          -0.1696    2.3806   -0.0174 C.ar    1  LIG1       -0.0577
      7 C           1.1837    2.3944    0.2815 C.ar    1  LIG1       -0.0524
      8 H          -0.7402    3.2989    0.0340 H       1  LIG1        0.0619
      9 H          -1.8786    1.2118   -0.5875 H       1  LIG1        0.0654
     10 O          -0.6143   -1.1967   -0.7443 O.3     1  LIG1       -0.4951
     11 C          -1.9908   -1.2591   -1.0608 C.3     1  LIG1        0.0788
     12 H          -2.1943   -2.2992   -1.3004 H       1  LIG1        0.0660
     13 H          -2.5995   -0.9512   -0.2067 H       1  LIG1        0.0660
     14 H          -2.2180   -0.6304   -1.9260 H       1  LIG1        0.0660
     15 H           1.6659    3.3110    0.5961 H       1  LIG1        0.0624
     16 C           3.3595    1.1881    0.5293 C.ar    1  LIG1        0.0506
     17 C           4.1417    0.2205    1.1244 C.ar    1  LIG1        0.0058
     18 C           5.4686    0.7180    1.1554 C.ar    1  LIG1        0.1426
     19 C           5.4666    1.9796    0.5804 C.ar    1  LIG1        0.0901
     20 N           4.1622    2.2458    0.2237 N.ar    1  LIG1       -0.3512
     21 H           3.8889    2.9993   -0.3890 H       1  LIG1        0.1660
     22 H           3.8080   -0.7154    1.5390 H       1  LIG1        0.0675
     23 O           6.4987    0.0665    1.7549 O.3     1  LIG1       -0.5046
     24 H           7.3075    0.1960    1.2418 H       1  LIG1        0.2922
     25 C           7.8220    2.7098   -0.0013 C.ar    1  LIG1        0.0346
     26 C           8.7865    3.7065   -0.1234 C.ar    1  LIG1       -0.0352
     27 C           6.5105    2.9988    0.4255 C.ar    1  LIG1        0.0185
     28 C           8.4986    5.0534    0.1398 C.ar    1  LIG1        0.0204
     29 H           9.7794    3.4333   -0.4486 H       1  LIG1        0.0637
     30 C           6.2180    4.3329    0.6959 C.ar    1  LIG1       -0.0333
     31 C           7.1785    5.3329    0.5460 C.ar    1  LIG1        0.0617
     32 H           5.2338    4.6028    1.0567 H       1  LIG1        0.0637
     33 C           8.1938    1.3612   -0.3631 C.1     1  LIG1       -0.0690
     34 C           8.5129    0.2413   -0.6700 C.1     1  LIG1       -0.1139
     35 H           8.7877   -0.7456   -0.9658 H       1  LIG1        0.1232
     36 N           6.3845    7.7426    1.1034 N.1     1  LIG1       -0.1908
     37 C           6.7404    6.6784    0.8545 C.1     1  LIG1        0.0998
     38 C           9.5578    6.0538   -0.0224 C.ar    1  LIG1        0.0900
     39 C          10.8581    5.8859   -0.4786 C.ar    1  LIG1        0.1449
     40 C          11.5245    7.1350   -0.4657 C.ar    1  LIG1        0.0089
     41 C          10.5997    8.0413    0.0057 C.ar    1  LIG1        0.0087
     42 N           9.4396    7.3981    0.2650 N.ar    1  LIG1       -0.3574
     43 H           8.6100    7.8465    0.6220 H       1  LIG1        0.1655
     44 H          10.6982    9.1011    0.1711 H       1  LIG1        0.0811
     45 O          11.4009    4.6998   -0.8804 O.3     1  LIG1       -0.5044
     46 H          12.3218    4.8341   -1.1259 H       1  LIG1        0.2922
     47 C          12.9521    7.3868   -0.8825 C.3     1  LIG1       -0.0348
     48 H          13.1747    8.4511   -0.8147 H       1  LIG1        0.0279
     49 H          13.1224    7.0750   -1.9160 H       1  LIG1        0.0279
     50 H          13.6536    6.8546   -0.2354 H       1  LIG1        0.0279
@<TRIPOS>BOND
     1    14    11    1
     2    49    47    1
     3    12    11    1
     4    46    45    1
     5    11    10    1
     6    11    13    1
     7    35    34    1
     8    47    48    1
     9    47    40    1
    10    47    50    1
    11    45    39    1
    12    10     1    1
    13    34    33    3
    14     9     3    1
    15    39    40   ar
    16    39    38   ar
    17    40    41   ar
    18    29    26    1
    19     1     3   ar
    20     1     2   ar
    21    21    20    1
    22     3     6   ar
    23    33    25    1
    24     5     2    1
    25     2     4   ar
    26    26    25   ar
    27    26    28   ar
    28    38    28    1
    29    38    42   ar
    30     6     8    1
    31     6     7   ar
    32    25    27   ar
    33    41    44    1
    34    41    42   ar
    35    28    31   ar
    36     4     7   ar
    37     4    16    1
    38    20    16   ar
    39    20    19   ar
    40    42    43    1
    41     7    15    1
    42    27    19    1
    43    27    30   ar
    44    16    17   ar
    45    31    30   ar
    46    31    37    1
    47    19    18   ar
    48    30    32    1
    49    37    36    3
    50    17    18   ar
    51    17    22    1
    52    18    23    1
    53    24    23    1
