@<TRIPOS>MOLECULE
mol_data/opt/m06hf/geoms/mol2/4la4la-.out
 30 31 0 0 0
SMALL
GASTEIGER

@<TRIPOS>ATOM
      1 C           0.0022    0.2673    0.1805 C.ar    1  LIG1        0.1207
      2 C           1.3985    0.2476    0.2514 C.ar    1  LIG1       -0.0121
      3 C          -0.6498    1.3218   -0.4523 C.ar    1  LIG1       -0.0199
      4 C           2.1511    1.2724   -0.3086 C.ar    1  LIG1       -0.0109
      5 H           1.8709   -0.5778    0.7680 H       1  LIG1        0.0660
      6 C           0.1139    2.3523   -1.0073 C.ar    1  LIG1       -0.0577
      7 C           1.4970    2.3401   -0.9410 C.ar    1  LIG1       -0.0537
      8 H          -0.3922    3.1723   -1.4999 H       1  LIG1        0.0619
      9 H          -1.7277    1.3585   -0.5183 H       1  LIG1        0.0654
     10 O          -0.6319   -0.7856    0.7636 O.3     1  LIG1       -0.4951
     11 C          -2.0432   -0.8133    0.7143 C.3     1  LIG1        0.0788
     12 H          -2.3425   -1.7266    1.2218 H       1  LIG1        0.0660
     13 H          -2.4672    0.0516    1.2308 H       1  LIG1        0.0660
     14 H          -2.3955   -0.8347   -0.3206 H       1  LIG1        0.0660
     15 H           2.0791    3.1424   -1.3709 H       1  LIG1        0.0624
     16 C           4.4394    2.2882    0.0922 C.ar    1  LIG1        0.1278
     17 C           5.8278    2.1692    0.1302 C.ar    1  LIG1       -0.0193
     18 C           3.6426    1.1852   -0.2706 C.ar    1  LIG1        0.0239
     19 C           6.4324    0.9547   -0.1939 C.ar    1  LIG1       -0.0583
     20 H           6.4448    3.0099    0.4136 H       1  LIG1        0.0654
     21 C           4.2751   -0.0131   -0.5910 C.ar    1  LIG1       -0.0505
     22 C           5.6628   -0.1409   -0.5560 C.ar    1  LIG1       -0.0610
     23 H           3.6601   -0.8525   -0.8914 H       1  LIG1        0.0625
     24 H           7.5113    0.8779   -0.1613 H       1  LIG1        0.0619
     25 O           3.7843    3.4365    0.4025 O.3     1  LIG1       -0.4945
     26 C           4.5439    4.5423    0.8481 C.3     1  LIG1        0.0788
     27 H           3.8239    5.3248    1.0709 H       1  LIG1        0.0660
     28 H           5.1042    4.2873    1.7509 H       1  LIG1        0.0660
     29 H           5.2304    4.8826    0.0684 H       1  LIG1        0.0660
     30 H           6.1299   -1.0810   -0.8147 H       1  LIG1        0.0618
@<TRIPOS>BOND
     1     8     6    1
     2    15     7    1
     3     6     7   ar
     4     6     3   ar
     5     7     4   ar
     6    23    21    1
     7    30    22    1
     8    21    22   ar
     9    21    18   ar
    10    22    19   ar
    11     9     3    1
    12     3     1   ar
    13    14    11    1
    14     4    18    1
    15     4     2   ar
    16    18    16   ar
    17    19    24    1
    18    19    17   ar
    19    29    26    1
    20    16    17   ar
    21    16    25    1
    22    17    20    1
    23     1     2   ar
    24     1    10    1
    25     2     5    1
    26    25    26    1
    27    11    10    1
    28    11    12    1
    29    11    13    1
    30    26    27    1
    31    26    28    1
