@<TRIPOS>MOLECULE
mol_data/opt/m06hf/geoms/mol2/4la4la-4la-4la-.out
 58 61 0 0 0
SMALL
GASTEIGER

@<TRIPOS>ATOM
      1 C          -0.1025    0.1460   -0.3384 C.ar    1  LIG1        0.1207
      2 C           1.2905    0.2050   -0.2347 C.ar    1  LIG1       -0.0121
      3 C          -0.8428    1.3174   -0.4675 C.ar    1  LIG1       -0.0199
      4 C           1.9527    1.4265   -0.2624 C.ar    1  LIG1       -0.0109
      5 H           1.8323   -0.7238   -0.1126 H       1  LIG1        0.0660
      6 C          -0.1703    2.5426   -0.4893 C.ar    1  LIG1       -0.0577
      7 C           1.2093    2.6094   -0.3868 C.ar    1  LIG1       -0.0537
      8 H          -0.7449    3.4539   -0.5918 H       1  LIG1        0.0619
      9 H          -1.9204    1.2958   -0.5483 H       1  LIG1        0.0654
     10 O          -0.6438   -1.1018   -0.3001 O.3     1  LIG1       -0.4951
     11 C          -2.0497   -1.2119   -0.3807 C.3     1  LIG1        0.0788
     12 H          -2.2702   -2.2747   -0.3259 H       1  LIG1        0.0660
     13 H          -2.5276   -0.6930    0.4547 H       1  LIG1        0.0660
     14 H          -2.4184   -0.8071   -1.3268 H       1  LIG1        0.0660
     15 H           1.7199    3.5614   -0.4007 H       1  LIG1        0.0624
     16 C           4.1463    2.3185    0.6481 C.ar    1  LIG1        0.1283
     17 C           5.5355    2.2797    0.7141 C.ar    1  LIG1       -0.0115
     18 C           3.4451    1.4404   -0.2000 C.ar    1  LIG1        0.0239
     19 C           6.2576    1.3728   -0.0694 C.ar    1  LIG1       -0.0109
     20 H           6.0805    2.9437    1.3679 H       1  LIG1        0.0660
     21 C           4.1823    0.5564   -0.9821 C.ar    1  LIG1       -0.0500
     22 C           5.5731    0.5154   -0.9269 C.ar    1  LIG1       -0.0531
     23 H           3.6493   -0.0976   -1.6612 H       1  LIG1        0.0625
     24 O           3.3965    3.1726    1.3942 O.3     1  LIG1       -0.4945
     25 C           4.0628    4.0247    2.3040 C.3     1  LIG1        0.0788
     26 H           3.2820    4.5974    2.7976 H       1  LIG1        0.0660
     27 H           4.6186    3.4424    3.0432 H       1  LIG1        0.0660
     28 H           4.7429    4.6998    1.7776 H       1  LIG1        0.0660
     29 H           6.1244   -0.1639   -1.5637 H       1  LIG1        0.0624
     30 C           8.5709    2.4163    0.0542 C.ar    1  LIG1        0.1283
     31 C           9.9526    2.2868    0.1469 C.ar    1  LIG1       -0.0115
     32 C           7.7430    1.2772    0.0435 C.ar    1  LIG1        0.0239
     33 C          10.5430    1.0208    0.2320 C.ar    1  LIG1       -0.0109
     34 H          10.5934    3.1555    0.1470 H       1  LIG1        0.0660
     35 C           8.3504    0.0275    0.1269 C.ar    1  LIG1       -0.0500
     36 C           9.7328   -0.1112    0.2168 C.ar    1  LIG1       -0.0531
     37 H           7.7191   -0.8524    0.1349 H       1  LIG1        0.0625
     38 O           7.9499    3.6235   -0.0343 O.3     1  LIG1       -0.4945
     39 C           8.7543    4.7781   -0.1705 C.3     1  LIG1        0.0788
     40 H           8.0631    5.6055   -0.3092 H       1  LIG1        0.0660
     41 H           9.3542    4.9443    0.7282 H       1  LIG1        0.0660
     42 H           9.4090    4.6901   -1.0417 H       1  LIG1        0.0660
     43 H          10.1799   -1.0956    0.2625 H       1  LIG1        0.0624
     44 C          12.9324    1.5945   -0.4015 C.ar    1  LIG1        0.1278
     45 C          14.3046    1.4096   -0.2400 C.ar    1  LIG1       -0.0193
     46 C          12.0206    0.8730    0.3921 C.ar    1  LIG1        0.0239
     47 C          14.7797    0.5128    0.7167 C.ar    1  LIG1       -0.0583
     48 H          15.0098    1.9538   -0.8515 H       1  LIG1        0.0654
     49 C          12.5254   -0.0105    1.3433 C.ar    1  LIG1       -0.0505
     50 C          13.8956   -0.1997    1.5132 C.ar    1  LIG1       -0.0610
     51 H          11.8224   -0.5437    1.9713 H       1  LIG1        0.0625
     52 H          15.8475    0.3815    0.8332 H       1  LIG1        0.0619
     53 O          12.4024    2.4520   -1.3136 O.3     1  LIG1       -0.4945
     54 C          13.2824    3.1367   -2.1828 C.3     1  LIG1        0.0788
     55 H          12.6489    3.7264   -2.8400 H       1  LIG1        0.0660
     56 H          13.9490    3.7969   -1.6215 H       1  LIG1        0.0660
     57 H          13.8700    2.4297   -2.7736 H       1  LIG1        0.0660
     58 H          14.2609   -0.8885    2.2624 H       1  LIG1        0.0618
@<TRIPOS>BOND
     1    55    54    1
     2    57    54    1
     3    54    56    1
     4    54    53    1
     5    23    21    1
     6    29    22    1
     7    14    11    1
     8    53    44    1
     9    42    39    1
    10    21    22   ar
    11    21    18   ar
    12    22    19   ar
    13    48    45    1
    14     8     6    1
    15     9     3    1
    16     6     3   ar
    17     6     7   ar
    18     3     1   ar
    19    44    45   ar
    20    44    46   ar
    21    15     7    1
    22     7     4   ar
    23    11    12    1
    24    11    10    1
    25    11    13    1
    26     1    10    1
    27     1     2   ar
    28    40    39    1
    29     4     2   ar
    30     4    18    1
    31    45    47   ar
    32     2     5    1
    33    18    16   ar
    34    39    38    1
    35    39    41    1
    36    19    32    1
    37    19    17   ar
    38    38    30    1
    39    32    30   ar
    40    32    35   ar
    41    30    31   ar
    42    35    37    1
    43    35    36   ar
    44    31    34    1
    45    31    33   ar
    46    36    33   ar
    47    36    43    1
    48    33    46    1
    49    46    49   ar
    50    16    17   ar
    51    16    24    1
    52    17    20    1
    53    47    52    1
    54    47    50   ar
    55    49    50   ar
    56    49    51    1
    57    24    25    1
    58    50    58    1
    59    28    25    1
    60    25    26    1
    61    25    27    1
