@<TRIPOS>MOLECULE
mol_data/opt/m06hf/geoms/mol2/4la6ie-6ld-12af-.out
 52 55 0 0 0
SMALL
GASTEIGER

@<TRIPOS>ATOM
      1 C          -0.1658    0.6171    0.5285 C.ar    1  LIG1        0.1207
      2 C           1.2315    0.6551    0.5891 C.ar    1  LIG1       -0.0122
      3 C          -0.8231    0.9681   -0.6491 C.ar    1  LIG1       -0.0199
      4 C           1.9704    1.0430   -0.5205 C.ar    1  LIG1       -0.0127
      5 H           1.7144    0.3909    1.5212 H       1  LIG1        0.0660
      6 C          -0.0699    1.3518   -1.7606 C.ar    1  LIG1       -0.0577
      7 C           1.3145    1.3927   -1.7086 C.ar    1  LIG1       -0.0537
      8 H          -0.5818    1.6147   -2.6771 H       1  LIG1        0.0619
      9 H          -1.9014    0.9463   -0.7165 H       1  LIG1        0.0654
     10 O          -0.7937    0.2309    1.6671 O.3     1  LIG1       -0.4951
     11 C          -2.2078    0.2072    1.6731 C.3     1  LIG1        0.0788
     12 H          -2.4953   -0.1071    2.6725 H       1  LIG1        0.0660
     13 H          -2.6123    1.2018    1.4686 H       1  LIG1        0.0660
     14 H          -2.5872   -0.5071    0.9383 H       1  LIG1        0.0660
     15 H           1.8915    1.6739   -2.5799 H       1  LIG1        0.0624
     16 C           4.2008    2.2493   -0.6259 C.ar    1  LIG1        0.0467
     17 C           3.4627    1.0649   -0.4414 C.ar    1  LIG1        0.0045
     18 C           4.1602   -0.1022   -0.1634 C.ar    1  LIG1       -0.0348
     19 C           5.5550   -0.0819   -0.0887 C.ar    1  LIG1        0.0514
     20 C           6.2000    1.1439   -0.3043 C.ar    1  LIG1        0.0917
     21 N           5.5293    2.2639   -0.5581 N.ar    1  LIG1       -0.2499
     22 H           3.6279   -1.0321   -0.0081 H       1  LIG1        0.0637
     23 C           3.5363    3.5844   -0.8928 C.3     1  LIG1       -0.0217
     24 H           2.5882    3.6582   -0.3617 H       1  LIG1        0.0293
     25 H           3.3450    3.7048   -1.9611 H       1  LIG1        0.0293
     26 H           4.2192    4.3672   -0.5706 H       1  LIG1        0.0293
     27 C           6.2840   -1.2904    0.2080 C.1     1  LIG1       -0.0675
     28 C           6.8701   -2.3108    0.4511 C.1     1  LIG1       -0.1138
     29 H           7.3963   -3.2119    0.6674 H       1  LIG1        0.1232
     30 C           8.3326    2.2024    0.5638 C.ar    1  LIG1        0.2246
     31 C           7.6865    1.2566   -0.2704 C.ar    1  LIG1        0.0643
     32 C           8.5018    0.4711   -1.0521 C.ar    1  LIG1       -0.0278
     33 C           9.8948    0.6433   -1.0190 C.ar    1  LIG1        0.0816
     34 C          10.4296    1.6237   -0.1797 C.ar    1  LIG1        0.1272
     35 N           9.6380    2.3729    0.5927 N.ar    1  LIG1       -0.2079
     36 H           8.0747   -0.2798   -1.7042 H       1  LIG1        0.0639
     37 O           7.5760    2.9317    1.3756 O.3     1  LIG1       -0.4792
     38 C           8.2389    3.8847    2.2072 C.3     1  LIG1        0.0804
     39 H           7.4453    4.3601    2.7757 H       1  LIG1        0.0660
     40 H           8.9464    3.3810    2.8644 H       1  LIG1        0.0660
     41 H           8.7709    4.6094    1.5928 H       1  LIG1        0.0660
     42 N          11.3449   -0.8738   -2.5358 N.1     1  LIG1       -0.1908
     43 C          10.7142   -0.1925   -1.8596 C.1     1  LIG1        0.1014
     44 C          11.8722    1.9039   -0.0691 C.ar    1  LIG1        0.1579
     45 C          12.9944    1.3373   -0.6020 C.ar    1  LIG1        0.0273
     46 C          14.0870    2.0931   -0.0723 C.ar    1  LIG1        0.1551
     47 C          13.5485    3.0498    0.7294 C.ar    1  LIG1        0.1339
     48 O          12.2053    2.9340    0.7323 O.2     1  LIG1       -0.4576
     49 H          13.9737    3.8364    1.3266 H       1  LIG1        0.1068
     50 H          13.0705    0.5018   -1.2755 H       1  LIG1        0.0693
     51 O          15.3849    1.8290   -0.3708 O.3     1  LIG1       -0.5036
     52 H          15.9719    2.4088    0.1250 H       1  LIG1        0.2923
@<TRIPOS>BOND
     1     8     6    1
     2    15     7    1
     3    42    43    3
     4    25    23    1
     5    43    33    1
     6     6     7   ar
     7     6     3   ar
     8     7     4   ar
     9    36    32    1
    10    50    45    1
    11    32    33   ar
    12    32    31   ar
    13    33    34   ar
    14    23    16    1
    15    23    26    1
    16    23    24    1
    17     9     3    1
    18     3     1   ar
    19    16    21   ar
    20    16    17   ar
    21    45    46   ar
    22    45    44   ar
    23    21    20   ar
    24     4    17    1
    25     4     2   ar
    26    17    18   ar
    27    51    46    1
    28    51    52    1
    29    20    31    1
    30    20    19   ar
    31    31    30   ar
    32    34    44    1
    33    34    35   ar
    34    18    19   ar
    35    18    22    1
    36    19    27    1
    37    46    47   ar
    38    44    48   ar
    39    27    28    3
    40    28    29    1
    41     1     2   ar
    42     1    10    1
    43    30    35   ar
    44    30    37    1
    45     2     5    1
    46    47    48   ar
    47    47    49    1
    48    14    11    1
    49    37    38    1
    50    13    11    1
    51    41    38    1
    52    10    11    1
    53    11    12    1
    54    38    39    1
    55    38    40    1
