@<TRIPOS>MOLECULE
mol_data/opt/m06hf/geoms/mol2/4ld13if13al-13al-.out
 53 56 0 0 0
SMALL
GASTEIGER

@<TRIPOS>ATOM
      1 C          -0.1314    0.1558   -0.2960 C.ar    1  LIG1        0.1208
      2 C           1.2624    0.0495   -0.2467 C.ar    1  LIG1       -0.0096
      3 C          -0.7511    1.4061   -0.2142 C.ar    1  LIG1       -0.0187
      4 C           2.0651    1.1720   -0.0942 C.ar    1  LIG1        0.0195
      5 H           1.7029   -0.9319   -0.3534 H       1  LIG1        0.0661
      6 C           0.0432    2.5379   -0.0788 C.ar    1  LIG1       -0.0403
      7 C           1.4295    2.4349   -0.0122 C.ar    1  LIG1        0.0611
      8 H          -0.4162    3.5151   -0.0121 H       1  LIG1        0.0632
      9 H          -1.8250    1.5099   -0.2560 H       1  LIG1        0.0654
     10 O          -0.7982   -1.0059   -0.4404 O.3     1  LIG1       -0.4951
     11 C          -2.2135   -0.9692   -0.5092 C.3     1  LIG1        0.0788
     12 H          -2.5299   -2.0013   -0.6286 H       1  LIG1        0.0660
     13 H          -2.6318   -0.5574    0.4120 H       1  LIG1        0.0660
     14 H          -2.5409   -0.3796   -1.3690 H       1  LIG1        0.0660
     15 N           2.8243    4.6122    0.2495 N.1     1  LIG1       -0.1908
     16 C           2.1968    3.6531    0.1549 C.1     1  LIG1        0.0998
     17 C           3.5229    1.0295    0.0144 C.ar    1  LIG1        0.0548
     18 C           4.2896    0.0520    0.6367 C.ar    1  LIG1        0.0170
     19 C           5.6318    0.5046    0.5627 C.ar    1  LIG1        0.1469
     20 C           5.6548    1.7171   -0.0954 C.ar    1  LIG1        0.1057
     21 N           4.3626    2.0110   -0.4223 N.ar    1  LIG1       -0.3498
     22 H           4.1019    2.8026   -0.9900 H       1  LIG1        0.1661
     23 C           3.8482   -1.1896    1.3689 C.3     1  LIG1       -0.0342
     24 H           4.5728   -1.4085    2.1528 H       1  LIG1        0.0279
     25 H           3.8019   -2.0506    0.6991 H       1  LIG1        0.0279
     26 H           2.8663   -1.0409    1.8200 H       1  LIG1        0.0279
     27 O           6.6866   -0.1441    1.1302 O.3     1  LIG1       -0.5043
     28 H           7.4099    0.4851    1.2504 H       1  LIG1        0.2922
     29 C           6.6901    2.7295   -0.2543 C.ar    1  LIG1        0.0706
     30 C           8.0218    2.6756   -0.6202 C.ar    1  LIG1        0.0076
     31 C           8.5041    4.0159   -0.5686 C.ar    1  LIG1        0.1473
     32 C           7.4639    4.8387   -0.1841 C.ar    1  LIG1        0.1057
     33 N           6.3714    4.0321    0.0036 N.ar    1  LIG1       -0.3488
     34 H           5.5093    4.3145    0.4519 H       1  LIG1        0.1661
     35 H           8.5432    1.7909   -0.9454 H       1  LIG1        0.0676
     36 O           9.7459    4.4905   -0.8491 O.3     1  LIG1       -0.4929
     37 C          10.6772    3.5256   -1.2966 C.3     1  LIG1        0.0789
     38 H          11.6045    4.0600   -1.4842 H       1  LIG1        0.0660
     39 H          10.8386    2.7628   -0.5301 H       1  LIG1        0.0660
     40 H          10.3285    3.0541   -2.2193 H       1  LIG1        0.0660
     41 C           7.4160    6.2832   -0.0031 C.ar    1  LIG1        0.0701
     42 C           8.4407    7.1802    0.2255 C.ar    1  LIG1        0.0069
     43 C           7.8321    8.4632    0.3343 C.ar    1  LIG1        0.1379
     44 C           6.4760    8.3105    0.1727 C.ar    1  LIG1        0.0444
     45 N           6.2406    6.9758   -0.0304 N.ar    1  LIG1       -0.3564
     46 H           5.3380    6.5846   -0.2498 H       1  LIG1        0.1655
     47 H           5.6893    9.0419    0.1873 H       1  LIG1        0.0844
     48 H           9.4801    6.9129    0.3034 H       1  LIG1        0.0676
     49 O           8.4207    9.6693    0.5667 O.3     1  LIG1       -0.4936
     50 C           9.8298    9.6409    0.6584 C.3     1  LIG1        0.0789
     51 H          10.1469   10.6677    0.8251 H       1  LIG1        0.0660
     52 H          10.1495    9.0153    1.4965 H       1  LIG1        0.0660
     53 H          10.2691    9.2631   -0.2690 H       1  LIG1        0.0660
@<TRIPOS>BOND
     1    40    37    1
     2    38    37    1
     3    14    11    1
     4    37    36    1
     5    37    39    1
     6    22    21    1
     7    35    30    1
     8    36    31    1
     9    12    11    1
    10    30    31   ar
    11    30    29   ar
    12    31    32   ar
    13    11    10    1
    14    11    13    1
    15    10     1    1
    16    21    20   ar
    17    21    17   ar
    18     5     2    1
    19     1     2   ar
    20     1     3   ar
    21    53    50    1
    22     9     3    1
    23    29    20    1
    24    29    33   ar
    25    46    45    1
    26     2     4   ar
    27     3     6   ar
    28    32    41    1
    29    32    33   ar
    30    20    19   ar
    31     4     7   ar
    32     4    17    1
    33     6     7   ar
    34     6     8    1
    35    45    41   ar
    36    45    44   ar
    37     7    16    1
    38    41    42   ar
    39    33    34    1
    40    17    18   ar
    41    16    15    3
    42    44    47    1
    43    44    43   ar
    44    42    48    1
    45    42    43   ar
    46    43    49    1
    47    19    18   ar
    48    19    27    1
    49    49    50    1
    50    18    23    1
    51    50    51    1
    52    50    52    1
    53    25    23    1
    54    27    28    1
    55    23    26    1
    56    23    24    1
