@<TRIPOS>MOLECULE
mol_data/opt/m06hf/geoms/mol2/4ld12ee12da6al-.out
 49 52 0 0 0
SMALL
GASTEIGER

@<TRIPOS>ATOM
      1 C          -0.1087   -0.1174    0.3379 C.ar    1  LIG1        0.1208
      2 C           1.2875   -0.0454    0.2751 C.ar    1  LIG1       -0.0080
      3 C          -0.8817    1.0234    0.1175 C.ar    1  LIG1       -0.0187
      4 C           1.9211    1.1527   -0.0176 C.ar    1  LIG1        0.0393
      5 H           1.8560   -0.9455    0.4636 H       1  LIG1        0.0661
      6 C          -0.2441    2.2259   -0.1697 C.ar    1  LIG1       -0.0402
      7 C           1.1427    2.3072   -0.2425 C.ar    1  LIG1        0.0627
      8 H          -0.8284    3.1183   -0.3476 H       1  LIG1        0.0632
      9 H          -1.9601    0.9933    0.1655 H       1  LIG1        0.0654
     10 O          -0.6153   -1.3319    0.6289 O.3     1  LIG1       -0.4951
     11 C          -2.0243   -1.4791    0.6804 C.3     1  LIG1        0.0788
     12 H          -2.2028   -2.5233    0.9187 H       1  LIG1        0.0660
     13 H          -2.4493   -0.8438    1.4610 H       1  LIG1        0.0660
     14 H          -2.4703   -1.2374   -0.2870 H       1  LIG1        0.0660
     15 N           2.1157    4.6311   -0.8623 N.1     1  LIG1       -0.1908
     16 C           1.7189    3.5917   -0.5819 C.1     1  LIG1        0.0999
     17 C           3.3891    1.1850   -0.0862 C.ar    1  LIG1        0.1537
     18 C           4.3281    0.2308   -0.3738 C.ar    1  LIG1        0.0865
     19 C           5.6087    0.8972   -0.3012 C.ar    1  LIG1        0.0895
     20 C           5.3263    2.1906    0.0352 C.ar    1  LIG1        0.1884
     21 O           3.9984    2.3555    0.1650 O.2     1  LIG1       -0.4491
     22 C           4.1226   -1.1395   -0.7227 C.1     1  LIG1       -0.0646
     23 C           3.9660   -2.2942   -1.0131 C.1     1  LIG1       -0.1138
     24 H           3.8325   -3.3179   -1.2767 H       1  LIG1        0.1232
     25 C           6.8868    0.3307   -0.5866 C.1     1  LIG1       -0.0645
     26 C           7.9665   -0.1350   -0.8284 C.1     1  LIG1       -0.1138
     27 H           8.9346   -0.5358   -1.0249 H       1  LIG1        0.1232
     28 C           6.1452    3.3723    0.2357 C.ar    1  LIG1        0.1891
     29 C           7.4232    3.5825    0.6769 C.ar    1  LIG1        0.1011
     30 C           7.6375    5.0007    0.6251 C.ar    1  LIG1        0.0024
     31 C           6.4737    5.5372    0.1664 C.ar    1  LIG1        0.1387
     32 O           5.5818    4.5493   -0.0673 O.2     1  LIG1       -0.4503
     33 N           9.1095    1.8629    1.6029 N.1     1  LIG1       -0.1907
     34 C           8.3472    2.6075    1.1774 C.1     1  LIG1        0.1031
     35 H           8.5368    5.5131    0.9176 H       1  LIG1        0.0668
     36 C           4.7110    7.1694   -0.4624 C.ar    1  LIG1        0.0385
     37 C           6.0295    6.9125   -0.0974 C.ar    1  LIG1        0.0388
     38 C           6.9337    7.9761    0.0212 C.ar    1  LIG1       -0.0063
     39 C           6.4657    9.2557   -0.2260 C.ar    1  LIG1        0.1388
     40 C           5.1169    9.4183   -0.5837 C.ar    1  LIG1        0.0692
     41 N           4.2736    8.4106   -0.6984 N.ar    1  LIG1       -0.2589
     42 H           7.9639    7.7921    0.2929 H       1  LIG1        0.0662
     43 H           4.7511   10.4198   -0.7774 H       1  LIG1        0.0867
     44 H           3.9909    6.3665   -0.5693 H       1  LIG1        0.0837
     45 O           7.2039   10.3876   -0.1572 O.3     1  LIG1       -0.4936
     46 C           8.5790   10.2598    0.1522 C.3     1  LIG1        0.0789
     47 H           8.9842   11.2674    0.1304 H       1  LIG1        0.0660
     48 H           8.7124    9.8297    1.1484 H       1  LIG1        0.0660
     49 H           9.0846    9.6405   -0.5932 H       1  LIG1        0.0660
@<TRIPOS>BOND
     1    24    23    1
     2    27    26    1
     3    23    22    3
     4    15    16    3
     5    26    25    3
     6    43    40    1
     7    22    18    1
     8    41    40   ar
     9    41    36   ar
    10    49    46    1
    11    25    19    1
    12    40    39   ar
    13    16     7    1
    14    44    36    1
    15    36    37   ar
    16    18    19   ar
    17    18    17   ar
    18     8     6    1
    19    19    20   ar
    20    14    11    1
    21     7     6   ar
    22     7     4   ar
    23    39    45    1
    24    39    38   ar
    25     6     3   ar
    26    45    46    1
    27    37    38   ar
    28    37    31    1
    29    17     4    1
    30    17    21   ar
    31    32    31   ar
    32    32    28   ar
    33     4     2   ar
    34    38    42    1
    35    20    21   ar
    36    20    28    1
    37     3     9    1
    38     3     1   ar
    39    47    46    1
    40    46    48    1
    41    31    30   ar
    42    28    29   ar
    43     2     1   ar
    44     2     5    1
    45     1    10    1
    46    30    29   ar
    47    30    35    1
    48    10    11    1
    49    29    34    1
    50    11    12    1
    51    11    13    1
    52    34    33    3
