@<TRIPOS>MOLECULE
mol_data/opt/m06hf/geoms/mol2/4ld13fd-12fl13eh.out
 51 54 0 0 0
SMALL
GASTEIGER

@<TRIPOS>ATOM
      1 C          -0.1435    0.2727    0.0646 C.ar    1  LIG1        0.1208
      2 C           1.2408    0.1364    0.1893 C.ar    1  LIG1       -0.0095
      3 C          -0.7145    1.5068   -0.2640 C.ar    1  LIG1       -0.0187
      4 C           2.0943    1.2168   -0.0129 C.ar    1  LIG1        0.0227
      5 H           1.6386   -0.8339    0.4517 H       1  LIG1        0.0661
      6 C           0.1259    2.5900   -0.4703 C.ar    1  LIG1       -0.0403
      7 C           1.5086    2.4613   -0.3551 C.ar    1  LIG1        0.0612
      8 H          -0.2896    3.5545   -0.7298 H       1  LIG1        0.0632
      9 H          -1.7824    1.6325   -0.3597 H       1  LIG1        0.0654
     10 O          -0.8592   -0.8457    0.2906 O.3     1  LIG1       -0.4951
     11 C          -2.2713   -0.7742    0.1980 C.3     1  LIG1        0.0788
     12 H          -2.6322   -1.7741    0.4199 H       1  LIG1        0.0660
     13 H          -2.6688   -0.0663    0.9288 H       1  LIG1        0.0660
     14 H          -2.5762   -0.4857   -0.8105 H       1  LIG1        0.0660
     15 N           2.9483    4.5796   -0.7862 N.1     1  LIG1       -0.1908
     16 C           2.2995    3.6468   -0.6063 C.1     1  LIG1        0.0998
     17 C           3.5384    1.0160    0.1331 C.ar    1  LIG1        0.0917
     18 C           4.2818   -0.1472    0.2342 C.ar    1  LIG1        0.1602
     19 C           5.6572    0.2078    0.3195 C.ar    1  LIG1        0.1220
     20 C           5.7133    1.5976    0.2715 C.ar    1  LIG1        0.1076
     21 N           4.4524    2.0450    0.1710 N.ar    1  LIG1       -0.3477
     22 H           4.2439    3.0329    0.1321 H       1  LIG1        0.1661
     23 O           3.7853   -1.4043    0.2385 O.3     1  LIG1       -0.5034
     24 H           4.5076   -2.0447    0.2811 H       1  LIG1        0.2923
     25 N           7.4676   -1.6137    0.4792 N.1     1  LIG1       -0.1907
     26 C           6.7079   -0.7539    0.4113 C.1     1  LIG1        0.1051
     27 C           6.7636    2.5909    0.2628 C.ar    1  LIG1        0.1982
     28 C           8.1195    2.6194    0.2993 C.ar    1  LIG1        0.2076
     29 C           8.5031    4.0025    0.1790 C.ar    1  LIG1        0.2099
     30 C           7.3484    4.7242    0.0878 C.ar    1  LIG1        0.1983
     31 O           6.2995    3.8697    0.1325 O.2     1  LIG1       -0.4442
     32 O           8.9727    1.5880    0.4028 O.3     1  LIG1       -0.5008
     33 H           9.8677    1.9444    0.4872 H       1  LIG1        0.2924
     34 O           9.8070    4.3715    0.1436 O.3     1  LIG1       -0.4884
     35 C          10.2283    4.8838   -1.1275 C.3     1  LIG1        0.0791
     36 H          11.2792    5.1365   -1.0148 H       1  LIG1        0.0660
     37 H          10.0948    4.1175   -1.8936 H       1  LIG1        0.0660
     38 H           9.6574    5.7778   -1.3769 H       1  LIG1        0.0660
     39 C           6.9915    6.1214   -0.0748 C.ar    1  LIG1        0.1033
     40 C           7.7084    7.2947    0.1273 C.ar    1  LIG1        0.0736
     41 C           6.8283    8.3785   -0.1798 C.ar    1  LIG1        0.0584
     42 C           5.6235    7.8245   -0.5439 C.ar    1  LIG1        0.0243
     43 N           5.7440    6.4646   -0.4879 N.ar    1  LIG1       -0.3555
     44 H           5.0002    5.8058   -0.6915 H       1  LIG1        0.1655
     45 H           4.6997    8.2987   -0.8231 H       1  LIG1        0.0826
     46 C           9.0463    7.4388    0.6111 C.1     1  LIG1       -0.0656
     47 C          10.1662    7.6082    1.0191 C.1     1  LIG1       -0.1138
     48 H          11.1510    7.7415    1.4025 H       1  LIG1        0.1232
     49 N           7.1345    9.7520   -0.0778 N.pl3   1  LIG1       -0.3559
     50 H           8.0487    9.8822    0.3419 H       1  LIG1        0.1424
     51 H           7.1124   10.2159   -0.9786 H       1  LIG1        0.1424
@<TRIPOS>BOND
     1    37    35    1
     2    38    35    1
     3    35    36    1
     4    35    34    1
     5    51    49    1
     6    45    42    1
     7    14    11    1
     8    15    16    3
     9     8     6    1
    10    44    43    1
    11    16     7    1
    12    42    43   ar
    13    42    41   ar
    14    43    39   ar
    15     6     7   ar
    16     6     3   ar
    17     9     3    1
    18     7     4   ar
    19     3     1   ar
    20    41    49    1
    21    41    40   ar
    22    49    50    1
    23    39    30    1
    24    39    40   ar
    25     4    17    1
    26     4     2   ar
    27     1     2   ar
    28     1    10    1
    29    30    31   ar
    30    30    29   ar
    31    40    46    1
    32    22    21    1
    33    31    27   ar
    34    17    21   ar
    35    17    18   ar
    36    34    29    1
    37    21    20   ar
    38    29    28   ar
    39     2     5    1
    40    11    10    1
    41    11    12    1
    42    11    13    1
    43    18    23    1
    44    18    19   ar
    45    23    24    1
    46    27    20    1
    47    27    28   ar
    48    20    19   ar
    49    28    32    1
    50    19    26    1
    51    32    33    1
    52    26    25    3
    53    46    47    3
    54    47    48    1
