@<TRIPOS>MOLECULE
mol_data/opt/m06hf/geoms/mol2/4le.out
 18 18 0 0 0
SMALL
GASTEIGER

@<TRIPOS>ATOM
      1 C           0.0164    0.1293    0.0002 C.ar    1  LIG1        0.1202
      2 C           1.4153    0.0608   -0.0001 C.ar    1  LIG1       -0.0188
      3 C          -0.6213    1.3697    0.0002 C.ar    1  LIG1       -0.0188
      4 C           2.1670    1.2203   -0.0004 C.ar    1  LIG1       -0.0429
      5 H           1.8775   -0.9166   -0.0000 H       1  LIG1        0.0654
      6 C           0.1448    2.5330   -0.0002 C.ar    1  LIG1       -0.0429
      7 C           1.5372    2.4736   -0.0004 C.ar    1  LIG1        0.0249
      8 H          -0.3423    3.4985   -0.0002 H       1  LIG1        0.0631
      9 H           3.2474    1.1710   -0.0006 H       1  LIG1        0.0631
     10 H          -1.6993    1.4462    0.0004 H       1  LIG1        0.0654
     11 O          -0.6316   -1.0601    0.0005 O.3     1  LIG1       -0.4951
     12 C          -2.0463   -1.0521    0.0008 C.3     1  LIG1        0.0788
     13 H          -2.3483   -2.0957    0.0009 H       1  LIG1        0.0660
     14 H          -2.4298   -0.5556    0.8961 H       1  LIG1        0.0660
     15 H          -2.4301   -0.5558   -0.8946 H       1  LIG1        0.0660
     16 C           2.3197    3.6867   -0.0007 C.1     1  LIG1       -0.0697
     17 C           2.9693    4.6982   -0.0011 C.1     1  LIG1       -0.1139
     18 H           3.5423    5.5963   -0.0025 H       1  LIG1        0.1232
@<TRIPOS>BOND
     1    15    12    1
     2    18    17    1
     3    17    16    3
     4    16     7    1
     5     9     4    1
     6     7     4   ar
     7     7     6   ar
     8     4     2   ar
     9     8     6    1
    10     6     3   ar
    11     2     5    1
    12     2     1   ar
    13     3     1   ar
    14     3    10    1
    15     1    11    1
    16    11    12    1
    17    12    13    1
    18    12    14    1
