@<TRIPOS>MOLECULE
mol_data/opt/m06hf/geoms/mol2/4le13fl-13dd13fd-.out
 51 54 0 0 0
SMALL
GASTEIGER

@<TRIPOS>ATOM
      1 C          -0.2046    0.0981    0.2128 C.ar    1  LIG1        0.1208
      2 C           1.1801    0.1032    0.0355 C.ar    1  LIG1       -0.0096
      3 C          -0.8830    1.2836    0.5028 C.ar    1  LIG1       -0.0188
      4 C           1.9164    1.2798    0.1342 C.ar    1  LIG1        0.0208
      5 H           1.6704   -0.8346   -0.1847 H       1  LIG1        0.0661
      6 C          -0.1509    2.4588    0.6091 C.ar    1  LIG1       -0.0422
      7 C           1.2325    2.4837    0.4285 C.ar    1  LIG1        0.0341
      8 H          -0.6569    3.3874    0.8367 H       1  LIG1        0.0631
      9 H          -1.9530    1.3060    0.6477 H       1  LIG1        0.0654
     10 O          -0.8042   -1.1060    0.0911 O.3     1  LIG1       -0.4951
     11 C          -2.2032   -1.1833    0.2912 C.3     1  LIG1        0.0788
     12 H          -2.4636   -2.2300    0.1614 H       1  LIG1        0.0660
     13 H          -2.4674   -0.8580    1.3006 H       1  LIG1        0.0660
     14 H          -2.7331   -0.5766   -0.4477 H       1  LIG1        0.0660
     15 C           1.8782    3.7711    0.5646 C.1     1  LIG1       -0.0690
     16 C           2.3554    4.8690    0.7104 C.1     1  LIG1       -0.1139
     17 H           2.7416    5.8524    0.8563 H       1  LIG1        0.1232
     18 C           3.3694    1.2036   -0.0825 C.ar    1  LIG1        0.0940
     19 C           4.1406    0.1640   -0.5778 C.ar    1  LIG1        0.1851
     20 C           5.4938    0.5786   -0.5809 C.ar    1  LIG1        0.1888
     21 C           5.5226    1.8710   -0.0962 C.ar    1  LIG1        0.1106
     22 N           4.2372    2.2261    0.1962 N.ar    1  LIG1       -0.3471
     23 H           3.9593    3.0626    0.6904 H       1  LIG1        0.1662
     24 O           3.7042   -1.0487   -1.0250 O.3     1  LIG1       -0.5019
     25 H           4.2931   -1.3366   -1.7344 H       1  LIG1        0.2924
     26 O           6.5313   -0.1521   -1.0653 O.3     1  LIG1       -0.4895
     27 C           6.8724   -1.2739   -0.2336 C.3     1  LIG1        0.0791
     28 H           7.7254   -1.7502   -0.7089 H       1  LIG1        0.0660
     29 H           7.1474   -0.9264    0.7602 H       1  LIG1        0.0660
     30 H           6.0277   -1.9630   -0.1736 H       1  LIG1        0.0660
     31 C           6.6001    2.8468   -0.0401 C.ar    1  LIG1        0.0860
     32 C           7.9391    2.7390    0.2804 C.ar    1  LIG1        0.0965
     33 C           8.5163    4.0384    0.1382 C.ar    1  LIG1        0.0965
     34 C           7.5121    4.8962   -0.2541 C.ar    1  LIG1        0.0859
     35 N           6.3691    4.1552   -0.3545 N.ar    1  LIG1       -0.3496
     36 H           5.4663    4.5155   -0.6313 H       1  LIG1        0.1661
     37 N           9.1616    0.6022    1.0474 N.1     1  LIG1       -0.1908
     38 C           8.6118    1.5479    0.6998 C.1     1  LIG1        0.1027
     39 N          10.9740    4.7384    0.4949 N.1     1  LIG1       -0.1908
     40 C           9.8825    4.4188    0.3432 C.1     1  LIG1        0.1027
     41 C           7.5724    6.3276   -0.5198 C.ar    1  LIG1        0.1075
     42 C           8.0984    7.3264    0.2610 C.ar    1  LIG1        0.1609
     43 C           7.9387    8.5502   -0.4551 C.ar    1  LIG1        0.1110
     44 C           7.3195    8.2470   -1.6528 C.ar    1  LIG1        0.0233
     45 N           7.0965    6.9182   -1.6756 N.ar    1  LIG1       -0.3554
     46 H           6.7452    6.4069   -2.4708 H       1  LIG1        0.1655
     47 H           7.0452    8.8943   -2.4673 H       1  LIG1        0.0821
     48 O           8.6112    7.1389    1.4925 O.3     1  LIG1       -0.5034
     49 H           9.2379    7.8379    1.7157 H       1  LIG1        0.2923
     50 N           8.7020   10.8476    0.4322 N.1     1  LIG1       -0.1907
     51 C           8.3508    9.8376    0.0140 C.1     1  LIG1        0.1043
@<TRIPOS>BOND
     1    46    45    1
     2    47    44    1
     3    25    24    1
     4    45    44   ar
     5    45    41   ar
     6    44    43   ar
     7    26    20    1
     8    26    27    1
     9    24    19    1
    10    28    27    1
    11    36    35    1
    12    20    19   ar
    13    20    21   ar
    14    19    18   ar
    15    41    34    1
    16    41    42   ar
    17    43    51    1
    18    43    42   ar
    19    14    11    1
    20    35    34   ar
    21    35    31   ar
    22    34    33   ar
    23    27    30    1
    24    27    29    1
    25     5     2    1
    26    21    31    1
    27    21    22   ar
    28    18     4    1
    29    18    22   ar
    30    31    32   ar
    31    51    50    3
    32     2     4   ar
    33     2     1   ar
    34    10     1    1
    35    10    11    1
    36     4     7   ar
    37    33    32   ar
    38    33    40    1
    39    12    11    1
    40    22    23    1
    41     1     3   ar
    42    42    48    1
    43    32    38    1
    44    11    13    1
    45    40    39    3
    46     7    15    1
    47     7     6   ar
    48     3     6   ar
    49     3     9    1
    50    15    16    3
    51     6     8    1
    52    38    37    3
    53    16    17    1
    54    48    49    1
