@<TRIPOS>MOLECULE
mol_data/opt/m06hf/geoms/mol2/4le13ie12ha6lh.out
 55 58 0 0 0
SMALL
GASTEIGER

@<TRIPOS>ATOM
      1 C          -0.0635    0.2626   -0.5138 C.ar    1  LIG1        0.1208
      2 C           1.3331    0.2595   -0.5581 C.ar    1  LIG1       -0.0097
      3 C          -0.7378    1.2294    0.2314 C.ar    1  LIG1       -0.0188
      4 C           2.0807    1.1953    0.1463 C.ar    1  LIG1        0.0174
      5 H           1.8191   -0.4786   -1.1811 H       1  LIG1        0.0661
      6 C           0.0054    2.1829    0.9201 C.ar    1  LIG1       -0.0422
      7 C           1.3983    2.1831    0.8951 C.ar    1  LIG1        0.0340
      8 H          -0.5017    2.9434    1.4986 H       1  LIG1        0.0631
      9 H          -1.8162    1.2584    0.2790 H       1  LIG1        0.0654
     10 O          -0.6754   -0.7016   -1.2409 O.3     1  LIG1       -0.4951
     11 C          -2.0897   -0.7317   -1.2493 C.3     1  LIG1        0.0788
     12 H          -2.3649   -1.5642   -1.8906 H       1  LIG1        0.0660
     13 H          -2.4795   -0.8967   -0.2420 H       1  LIG1        0.0660
     14 H          -2.4930    0.1982   -1.6575 H       1  LIG1        0.0660
     15 C           2.1030    3.1978    1.6451 C.1     1  LIG1       -0.0690
     16 C           2.6882    4.0531    2.2580 C.1     1  LIG1       -0.1139
     17 H           3.2331    4.7989    2.7911 H       1  LIG1        0.1232
     18 C           3.5528    1.1216    0.0878 C.ar    1  LIG1        0.0524
     19 C           4.3862    0.0205    0.0175 C.ar    1  LIG1       -0.0091
     20 C           5.7224    0.5253   -0.0217 C.ar    1  LIG1        0.0565
     21 C           5.6490    1.9128    0.0432 C.ar    1  LIG1        0.1002
     22 N           4.3401    2.2426    0.1000 N.ar    1  LIG1       -0.3505
     23 H           4.0112    3.1953    0.1966 H       1  LIG1        0.1660
     24 C           4.0240   -1.4428    0.0220 C.3     1  LIG1       -0.0365
     25 H           4.8051   -2.0018    0.5373 H       1  LIG1        0.0279
     26 H           3.9437   -1.8338   -0.9949 H       1  LIG1        0.0279
     27 H           3.0758   -1.6009    0.5359 H       1  LIG1        0.0279
     28 C           6.9062   -0.2674   -0.1483 C.1     1  LIG1       -0.0672
     29 C           7.8887   -0.9560   -0.2651 C.1     1  LIG1       -0.1138
     30 H           8.7472   -1.5733   -0.3942 H       1  LIG1        0.1232
     31 C           6.6344    2.9775    0.1024 C.ar    1  LIG1        0.1735
     32 C           7.9237    3.0955    0.5447 C.ar    1  LIG1        0.0731
     33 C           8.2263    4.5005    0.4687 C.ar    1  LIG1        0.0058
     34 C           7.1034    5.1156    0.0023 C.ar    1  LIG1        0.1427
     35 O           6.1439    4.2060   -0.2232 O.2     1  LIG1       -0.4512
     36 N           8.7555    2.1228    1.0897 N.pl3   1  LIG1       -0.3550
     37 H           8.4829    1.1723    0.8689 H       1  LIG1        0.1424
     38 H           9.7355    2.2836    0.9005 H       1  LIG1        0.1424
     39 H           9.1417    4.9749    0.7817 H       1  LIG1        0.0674
     40 C           5.5241    7.0881   -0.1894 C.ar    1  LIG1        0.2255
     41 C           6.8182    6.5264   -0.2927 C.ar    1  LIG1        0.0805
     42 C           7.8487    7.3729   -0.6681 C.ar    1  LIG1       -0.0238
     43 C           7.6061    8.7267   -0.9275 C.ar    1  LIG1        0.0438
     44 C           6.2926    9.1604   -0.7985 C.ar    1  LIG1        0.0520
     45 N           5.2892    8.3568   -0.4384 N.ar    1  LIG1       -0.2189
     46 H           8.8501    6.9732   -0.7762 H       1  LIG1        0.0645
     47 H           6.0335   10.1958   -0.9911 H       1  LIG1        0.0849
     48 O           4.4990    6.2954    0.1817 O.3     1  LIG1       -0.4792
     49 C           3.2051    6.8945    0.1762 C.3     1  LIG1        0.0804
     50 H           2.5211    6.0933    0.4429 H       1  LIG1        0.0660
     51 H           3.1611    7.7063    0.9025 H       1  LIG1        0.0660
     52 H           2.9785    7.2905   -0.8131 H       1  LIG1        0.0660
     53 N           8.6498    9.6031   -1.2578 N.pl3   1  LIG1       -0.3568
     54 H           9.3910    9.1744   -1.7960 H       1  LIG1        0.1424
     55 H           8.3403   10.4639   -1.6888 H       1  LIG1        0.1424
@<TRIPOS>BOND
     1    12    11    1
     2    54    53    1
     3    55    53    1
     4    14    11    1
     5    53    43    1
     6    11    10    1
     7    11    13    1
     8    10     1    1
     9     5     2    1
    10    26    24    1
    11    47    44    1
    12    43    44   ar
    13    43    42   ar
    14    52    49    1
    15    44    45   ar
    16    46    42    1
    17    42    41   ar
    18     2     1   ar
    19     2     4   ar
    20     1     3   ar
    21    45    40   ar
    22    30    29    1
    23    41    40   ar
    24    41    34    1
    25    29    28    3
    26    35    34   ar
    27    35    31   ar
    28    40    48    1
    29    28    20    1
    30    20    19   ar
    31    20    21   ar
    32    34    33   ar
    33    19    24    1
    34    19    18   ar
    35    24    27    1
    36    24    25    1
    37    21    22   ar
    38    21    31    1
    39    18    22   ar
    40    18     4    1
    41    22    23    1
    42    31    32   ar
    43     4     7   ar
    44    49    48    1
    45    49    50    1
    46    49    51    1
    47     3     9    1
    48     3     6   ar
    49    33    32   ar
    50    33    39    1
    51    32    36    1
    52    37    36    1
    53     7     6   ar
    54     7    15    1
    55    38    36    1
    56     6     8    1
    57    15    16    3
    58    16    17    1
