@<TRIPOS>MOLECULE
mol_data/opt/m06hf/geoms/mol2/4le4le-.out
 34 35 0 0 0
SMALL
GASTEIGER

@<TRIPOS>ATOM
      1 C          -0.0117    0.3244    0.4640 C.ar    1  LIG1        0.1207
      2 C           1.3864    0.2761    0.5075 C.ar    1  LIG1       -0.0110
      3 C          -0.6513    1.3900   -0.1650 C.ar    1  LIG1       -0.0188
      4 C           2.1519    1.2755   -0.0704 C.ar    1  LIG1        0.0045
      5 H           1.8561   -0.5558    1.0157 H       1  LIG1        0.0660
      6 C           0.1196    2.3933   -0.7493 C.ar    1  LIG1       -0.0423
      7 C           1.5104    2.3539   -0.7143 C.ar    1  LIG1        0.0327
      8 H          -0.3659    3.2206   -1.2489 H       1  LIG1        0.0631
      9 H          -1.7287    1.4539   -0.2118 H       1  LIG1        0.0654
     10 O          -0.6547   -0.7065    1.0628 O.3     1  LIG1       -0.4951
     11 C          -2.0691   -0.7019    1.0561 C.3     1  LIG1        0.0788
     12 H          -2.3714   -1.6032    1.5822 H       1  LIG1        0.0660
     13 H          -2.4554    0.1778    1.5764 H       1  LIG1        0.0660
     14 H          -2.4510   -0.7267    0.0323 H       1  LIG1        0.0660
     15 C           2.2653    3.3958   -1.3703 C.1     1  LIG1       -0.0690
     16 C           2.8636    4.2663   -1.9451 C.1     1  LIG1       -0.1139
     17 H           3.3944    5.0292   -2.4651 H       1  LIG1        0.1232
     18 C           4.4169    2.1857    0.5360 C.ar    1  LIG1        0.1279
     19 C           5.8082    2.0944    0.5299 C.ar    1  LIG1       -0.0182
     20 C           3.6399    1.1659   -0.0411 C.ar    1  LIG1        0.0262
     21 C           6.4265    0.9782   -0.0251 C.ar    1  LIG1       -0.0428
     22 H           6.4123    2.8770    0.9667 H       1  LIG1        0.0655
     23 C           4.2713    0.0553   -0.5807 C.ar    1  LIG1       -0.0351
     24 C           5.6677   -0.0524   -0.5765 C.ar    1  LIG1        0.0255
     25 H           3.6762   -0.7292   -1.0301 H       1  LIG1        0.0637
     26 H           7.5054    0.9003   -0.0253 H       1  LIG1        0.0631
     27 O           3.7356    3.2075    1.0966 O.3     1  LIG1       -0.4945
     28 C           4.4258    4.4154    1.3532 C.3     1  LIG1        0.0788
     29 H           3.6614    5.1413    1.6158 H       1  LIG1        0.0660
     30 H           5.1231    4.2961    2.1862 H       1  LIG1        0.0660
     31 H           4.9587    4.7437    0.4576 H       1  LIG1        0.0660
     32 C           6.3101   -1.2127   -1.1474 C.1     1  LIG1       -0.0696
     33 C           6.8426   -2.1802   -1.6218 C.1     1  LIG1       -0.1139
     34 H           7.3120   -3.0384   -2.0427 H       1  LIG1        0.1232
@<TRIPOS>BOND
     1    17    16    1
     2    34    33    1
     3    16    15    3
     4    33    32    3
     5    15     7    1
     6     8     6    1
     7    32    24    1
     8    25    23    1
     9     6     7   ar
    10     6     3   ar
    11     7     4   ar
    12    23    24   ar
    13    23    20   ar
    14    24    21   ar
    15     9     3    1
    16     3     1   ar
    17     4    20    1
    18     4     2   ar
    19    20    18   ar
    20    26    21    1
    21    21    19   ar
    22    14    11    1
    23    31    28    1
    24     1     2   ar
    25     1    10    1
    26     2     5    1
    27    19    18   ar
    28    19    22    1
    29    18    27    1
    30    11    10    1
    31    11    13    1
    32    11    12    1
    33    27    28    1
    34    28    29    1
    35    28    30    1
