@<TRIPOS>MOLECULE
mol_data/opt/m06hf/geoms/mol2/4le4le-4le-4le-.out
 66 69 0 0 0
SMALL
GASTEIGER

@<TRIPOS>ATOM
      1 C          -0.1978    0.2748   -0.0029 C.ar    1  LIG1        0.1207
      2 C           1.2001    0.2102    0.0232 C.ar    1  LIG1       -0.0110
      3 C          -0.8362    1.5108   -0.0788 C.ar    1  LIG1       -0.0188
      4 C           1.9666    1.3632   -0.0254 C.ar    1  LIG1        0.0045
      5 H           1.6685   -0.7620    0.1005 H       1  LIG1        0.0660
      6 C          -0.0645    2.6696   -0.1345 C.ar    1  LIG1       -0.0423
      7 C           1.3262    2.6172   -0.1111 C.ar    1  LIG1        0.0327
      8 H          -0.5480    3.6344   -0.2058 H       1  LIG1        0.0631
      9 H          -1.9137    1.5881   -0.0987 H       1  LIG1        0.0654
     10 O          -0.8440   -0.9150    0.0541 O.3     1  LIG1       -0.4951
     11 C          -2.2581   -0.9017    0.0656 C.3     1  LIG1        0.0788
     12 H          -2.5648   -1.9417    0.1340 H       1  LIG1        0.0660
     13 H          -2.6318   -0.3484    0.9310 H       1  LIG1        0.0660
     14 H          -2.6491   -0.4613   -0.8549 H       1  LIG1        0.0660
     15 C           2.0816    3.8437   -0.2141 C.1     1  LIG1       -0.0690
     16 C           2.6826    4.8798   -0.3240 C.1     1  LIG1       -0.1139
     17 H           3.2184    5.7934   -0.4345 H       1  LIG1        0.1232
     18 C           4.2157    1.9003    0.9665 C.ar    1  LIG1        0.1285
     19 C           5.6033    1.8210    0.9442 C.ar    1  LIG1       -0.0104
     20 C           3.4547    1.2555   -0.0242 C.ar    1  LIG1        0.0263
     21 C           6.2642    1.0927   -0.0484 C.ar    1  LIG1        0.0045
     22 H           6.1961    2.3188    1.6977 H       1  LIG1        0.0661
     23 C           4.1126    0.5237   -0.9988 C.ar    1  LIG1       -0.0345
     24 C           5.5113    0.4335   -1.0292 C.ar    1  LIG1        0.0333
     25 H           3.5381    0.0351   -1.7752 H       1  LIG1        0.0637
     26 O           3.5231    2.5594    1.9206 O.3     1  LIG1       -0.4945
     27 C           4.2120    3.5246    2.6927 C.3     1  LIG1        0.0788
     28 H           3.4439    4.0805    3.2233 H       1  LIG1        0.0660
     29 H           4.8824    3.0433    3.4087 H       1  LIG1        0.0660
     30 H           4.7776    4.1953    2.0407 H       1  LIG1        0.0660
     31 C           6.1293   -0.3113   -2.1019 C.1     1  LIG1       -0.0690
     32 C           6.6104   -0.9373   -3.0088 C.1     1  LIG1       -0.1139
     33 H           7.0472   -1.4861   -3.8106 H       1  LIG1        0.1232
     34 C           8.5456    2.1699    0.0709 C.ar    1  LIG1        0.1285
     35 C           9.9333    2.0734    0.0959 C.ar    1  LIG1       -0.0104
     36 C           7.7547    1.0089   -0.0224 C.ar    1  LIG1        0.0263
     37 C          10.5680    0.8314    0.0334 C.ar    1  LIG1        0.0045
     38 H          10.5498    2.9582    0.1543 H       1  LIG1        0.0661
     39 C           8.3932   -0.2205   -0.0850 C.ar    1  LIG1       -0.0345
     40 C           9.7893   -0.3289   -0.0611 C.ar    1  LIG1        0.0333
     41 H           7.8011   -1.1223   -0.1619 H       1  LIG1        0.0637
     42 O           7.8882    3.3545    0.1341 O.3     1  LIG1       -0.4945
     43 C           8.6492    4.5464    0.0844 C.3     1  LIG1        0.0788
     44 H           7.9252    5.3569    0.0654 H       1  LIG1        0.0660
     45 H           9.2855    4.6396    0.9683 H       1  LIG1        0.0660
     46 H           9.2620    4.5730   -0.8200 H       1  LIG1        0.0660
     47 C          10.3802   -1.6439   -0.1560 C.1     1  LIG1       -0.0690
     48 C          10.8419   -2.7512   -0.2354 C.1     1  LIG1       -0.1139
     49 H          11.2613   -3.7278   -0.3051 H       1  LIG1        0.1232
     50 C          12.8581    1.5396   -0.7588 C.ar    1  LIG1        0.1279
     51 C          14.2495    1.4652   -0.6821 C.ar    1  LIG1       -0.0182
     52 C          12.0585    0.7657    0.1040 C.ar    1  LIG1        0.0262
     53 C          14.8502    0.6345    0.2570 C.ar    1  LIG1       -0.0428
     54 H          14.8718    2.0477   -1.3459 H       1  LIG1        0.0655
     55 C          12.6785   -0.0564    1.0362 C.ar    1  LIG1       -0.0351
     56 C          14.0730   -0.1297    1.1252 C.ar    1  LIG1        0.0255
     57 H          12.0706   -0.6517    1.7045 H       1  LIG1        0.0637
     58 H          15.9286    0.5793    0.3206 H       1  LIG1        0.0631
     59 O          12.2068    2.3363   -1.6410 O.3     1  LIG1       -0.4945
     60 C          12.9693    3.0431   -2.6011 C.3     1  LIG1        0.0788
     61 H          12.2473    3.5643   -3.2237 H       1  LIG1        0.0660
     62 H          13.6312    3.7659   -2.1173 H       1  LIG1        0.0660
     63 H          13.5541    2.3517   -3.2119 H       1  LIG1        0.0660
     64 C          14.6976   -0.9843    2.1071 C.1     1  LIG1       -0.0696
     65 C          15.2194   -1.6935    2.9250 C.1     1  LIG1       -0.1139
     66 H          15.6793   -2.3221    3.6513 H       1  LIG1        0.1232
@<TRIPOS>BOND
     1    33    32    1
     2    61    60    1
     3    63    60    1
     4    32    31    3
     5    60    62    1
     6    60    59    1
     7    31    24    1
     8    25    23    1
     9    59    50    1
    10    54    51    1
    11    24    23   ar
    12    24    21   ar
    13    23    20   ar
    14    14    11    1
    15    46    43    1
    16    50    51   ar
    17    50    52   ar
    18    51    53   ar
    19    17    16    1
    20    16    15    3
    21    49    48    1
    22    48    47    3
    23    15     7    1
    24     8     6    1
    25    41    39    1
    26    47    40    1
    27     6     7   ar
    28     6     3   ar
    29     7     4   ar
    30     9     3    1
    31    39    40   ar
    32    39    36   ar
    33     3     1   ar
    34    40    37   ar
    35    21    36    1
    36    21    19   ar
    37     4    20    1
    38     4     2   ar
    39    20    18   ar
    40    36    34   ar
    41     1     2   ar
    42     1    10    1
    43     2     5    1
    44    37    35   ar
    45    37    52    1
    46    10    11    1
    47    44    43    1
    48    11    12    1
    49    11    13    1
    50    34    35   ar
    51    34    42    1
    52    43    42    1
    53    43    45    1
    54    35    38    1
    55    52    55   ar
    56    53    58    1
    57    53    56   ar
    58    19    18   ar
    59    19    22    1
    60    18    26    1
    61    55    56   ar
    62    55    57    1
    63    56    64    1
    64    26    27    1
    65    30    27    1
    66    64    65    3
    67    27    28    1
    68    27    29    1
    69    65    66    1
