@<TRIPOS>MOLECULE
mol_data/opt/m06hf/geoms/mol2/4le6fi4hf6he-13hl-6ee-12ai-4fe-.out
 107 114 0 0 0
SMALL
GASTEIGER

@<TRIPOS>ATOM
      1 C          -0.5053    0.8421    0.7904 C.ar    1  LIG1        0.1207
      2 C           0.8932    0.8473    0.7816 C.ar    1  LIG1       -0.0109
      3 C          -1.2102    1.0441   -0.3975 C.ar    1  LIG1       -0.0188
      4 C           1.5994    1.0442   -0.3970 C.ar    1  LIG1        0.0060
      5 H           1.4140    0.7104    1.7200 H       1  LIG1        0.0660
      6 C          -0.5051    1.2423   -1.5795 C.ar    1  LIG1       -0.0423
      7 C           0.8895    1.2397   -1.6011 C.ar    1  LIG1        0.0328
      8 H          -1.0398    1.3921   -2.5075 H       1  LIG1        0.0631
      9 H          -2.2902    1.0499   -0.4174 H       1  LIG1        0.0654
     10 O          -1.0866    0.6445    1.9941 O.3     1  LIG1       -0.4951
     11 C          -2.5009    0.6680    2.0649 C.3     1  LIG1        0.0788
     12 H          -2.7476    0.5137    3.1114 H       1  LIG1        0.0660
     13 H          -2.8867    1.6346    1.7319 H       1  LIG1        0.0660
     14 H          -2.9304   -0.1353    1.4611 H       1  LIG1        0.0660
     15 C           1.5877    1.4282   -2.8511 C.1     1  LIG1       -0.0690
     16 C           2.1685    1.6110   -3.8873 C.1     1  LIG1       -0.1139
     17 H           2.6907    1.7770   -4.8011 H       1  LIG1        0.1232
     18 C           3.8626    2.1399   -0.7481 C.ar    1  LIG1        0.2208
     19 C           3.0910    1.0235   -0.3662 C.ar    1  LIG1        0.0451
     20 C           3.7794   -0.0840    0.1079 C.ar    1  LIG1       -0.0440
     21 C           5.1742   -0.1035    0.1748 C.ar    1  LIG1       -0.0236
     22 C           5.8241    1.0521   -0.2740 C.ar    1  LIG1        0.0796
     23 N           5.1792    2.1420   -0.7013 N.ar    1  LIG1       -0.2122
     24 H           3.2111   -0.9482    0.4341 H       1  LIG1        0.0629
     25 O           3.3066    3.2942   -1.1586 O.3     1  LIG1       -0.4920
     26 H           2.3551    3.1914   -1.2780 H       1  LIG1        0.2937
     27 C           5.9235   -1.2870    0.7564 C.3     1  LIG1       -0.0377
     28 H           6.6280   -0.9428    1.5152 H       1  LIG1        0.0278
     29 H           6.4885   -1.8043   -0.0209 H       1  LIG1        0.0278
     30 H           5.2177   -1.9779    1.2169 H       1  LIG1        0.0278
     31 C           8.1360    0.3040   -0.9969 C.ar    1  LIG1        0.0346
     32 C           9.5218    0.4671   -0.9135 C.ar    1  LIG1       -0.0291
     33 C           7.3177    1.1614   -0.2499 C.ar    1  LIG1        0.0248
     34 C          10.1088    1.4646   -0.1376 C.ar    1  LIG1        0.0286
     35 H          10.1692   -0.1841   -1.4895 H       1  LIG1        0.0643
     36 C           7.8940    2.1855    0.4987 C.ar    1  LIG1       -0.0086
     37 C           9.2701    2.3344    0.5680 C.ar    1  LIG1        0.1254
     38 H           7.2381    2.8702    1.0256 H       1  LIG1        0.0661
     39 N           7.5904   -0.7069   -1.8018 N.pl3   1  LIG1       -0.3574
     40 H           6.6559   -0.4995   -2.1345 H       1  LIG1        0.1423
     41 H           8.1966   -0.9926   -2.5590 H       1  LIG1        0.1423
     42 O           9.8540    3.3375    1.3045 O.3     1  LIG1       -0.5061
     43 H           9.2000    3.7601    1.8717 H       1  LIG1        0.2922
     44 C          12.3506    2.6995   -0.3854 C.ar    1  LIG1        0.1248
     45 C          11.5964    1.5354   -0.0625 C.ar    1  LIG1        0.0264
     46 C          12.3197    0.4083    0.2691 C.ar    1  LIG1       -0.0331
     47 C          13.7232    0.3964    0.2539 C.ar    1  LIG1        0.0528
     48 C          14.3701    1.5687   -0.1609 C.ar    1  LIG1        0.1065
     49 N          13.6777    2.6807   -0.4348 N.ar    1  LIG1       -0.2291
     50 H          11.7940   -0.4896    0.5707 H       1  LIG1        0.0638
     51 N          11.7478    3.8725   -0.7285 N.pl3   1  LIG1       -0.3426
     52 H          12.3893    4.6372   -0.8757 H       1  LIG1        0.1437
     53 H          10.8661    4.0883   -0.2851 H       1  LIG1        0.1437
     54 C          14.4179   -0.7597    0.7502 C.1     1  LIG1       -0.0674
     55 C          14.9698   -1.7315    1.1972 C.1     1  LIG1       -0.1138
     56 H          15.4818   -2.5718    1.6049 H       1  LIG1        0.1232
     57 C          15.8258    1.7393   -0.2904 C.ar    1  LIG1        0.0913
     58 C          16.9247    0.9179   -0.5432 C.ar    1  LIG1        0.0947
     59 C          18.0445    1.7774   -0.6165 C.ar    1  LIG1        0.1665
     60 C          17.6231    3.0884   -0.4181 C.ar    1  LIG1        0.0938
     61 N          16.2844    3.0256   -0.2296 N.ar    1  LIG1       -0.3484
     62 H          15.6500    3.8057   -0.1190 H       1  LIG1        0.1661
     63 N          17.0649   -0.4634   -0.7341 N.pl3   1  LIG1       -0.3534
     64 H          16.1910   -0.9689   -0.7671 H       1  LIG1        0.1425
     65 H          17.6523   -0.6560   -1.5381 H       1  LIG1        0.1425
     66 O          19.3185    1.3373   -0.8542 O.3     1  LIG1       -0.4911
     67 C          19.9174    0.7641    0.3129 C.3     1  LIG1        0.0790
     68 H          20.8935    0.3933    0.0070 H       1  LIG1        0.0660
     69 H          20.0269    1.5303    1.0828 H       1  LIG1        0.0660
     70 H          19.2932   -0.0526    0.6779 H       1  LIG1        0.0660
     71 C          17.9674    5.5721    0.0537 C.ar    1  LIG1        0.1232
     72 C          18.4209    4.3193   -0.4023 C.ar    1  LIG1        0.0370
     73 C          19.7387    4.2785   -0.8688 C.ar    1  LIG1       -0.0323
     74 C          20.5365    5.4159   -0.8495 C.ar    1  LIG1        0.0543
     75 C          19.9850    6.6133   -0.3449 C.ar    1  LIG1        0.1227
     76 N          18.7294    6.6630    0.0794 N.ar    1  LIG1       -0.2334
     77 H          20.1348    3.3485   -1.2558 H       1  LIG1        0.0638
     78 C          16.6170    5.7743    0.5516 C.1     1  LIG1       -0.0491
     79 C          15.5054    5.9647    0.9689 C.1     1  LIG1       -0.1124
     80 H          14.5273    6.1352    1.3568 H       1  LIG1        0.1232
     81 C          21.8766    5.3214   -1.3720 C.1     1  LIG1       -0.0674
     82 C          22.9797    5.1807   -1.8283 C.1     1  LIG1       -0.1138
     83 H          23.9556    5.0663   -2.2401 H       1  LIG1        0.1232
     84 C          20.7452    7.8696   -0.2437 C.ar    1  LIG1        0.1553
     85 C          22.0716    8.1855   -0.2716 C.ar    1  LIG1       -0.0108
     86 C          22.1652    9.5993   -0.0483 C.ar    1  LIG1       -0.0039
     87 C          20.8741   10.0267    0.0818 C.ar    1  LIG1        0.1422
     88 O          20.0213    8.9857   -0.0269 O.2     1  LIG1       -0.4529
     89 H          22.8899    7.5002   -0.4047 H       1  LIG1        0.0659
     90 C          23.4409   10.3922    0.0809 C.3     1  LIG1       -0.0361
     91 H          23.2923   11.2455    0.7410 H       1  LIG1        0.0279
     92 H          23.7609   10.7653   -0.8919 H       1  LIG1        0.0279
     93 H          24.2206    9.7528    0.4949 H       1  LIG1        0.0279
     94 C          20.7213   12.5245   -0.1575 C.ar    1  LIG1        0.1276
     95 C          20.1013   13.7334    0.1591 C.ar    1  LIG1       -0.0183
     96 C          20.2438   11.3234    0.3822 C.ar    1  LIG1        0.0600
     97 C          18.9895   13.7529    0.9873 C.ar    1  LIG1       -0.0428
     98 H          20.4849   14.6569   -0.2592 H       1  LIG1        0.0655
     99 C          19.1134   11.3543    1.1983 C.ar    1  LIG1       -0.0321
    100 C          18.4816   12.5591    1.5079 C.ar    1  LIG1        0.0256
    101 H          18.7260   10.4232    1.5907 H       1  LIG1        0.0638
    102 H          18.5049   14.6885    1.2312 H       1  LIG1        0.0631
    103 O          21.7830   12.4682   -1.0028 O.3     1  LIG1       -0.5061
    104 H          21.9889   13.3446   -1.3444 H       1  LIG1        0.2922
    105 C          17.3178   12.5743    2.3626 C.1     1  LIG1       -0.0696
    106 C          16.3494   12.5877    3.0739 C.1     1  LIG1       -0.1139
    107 H          15.4905   12.5936    3.7035 H       1  LIG1        0.1232
@<TRIPOS>BOND
     1    17    16    1
     2    16    15    3
     3    15     7    1
     4    41    39    1
     5     8     6    1
     6    83    82    1
     7    40    39    1
     8    82    81    3
     9    39    31    1
    10     7     6   ar
    11     7     4   ar
    12     6     3   ar
    13    65    63    1
    14    35    32    1
    15    81    74    1
    16   104   103    1
    17    26    25    1
    18    77    73    1
    19    25    18    1
    20   103    94    1
    21    31    32   ar
    22    31    33   ar
    23    32    34   ar
    24    92    90    1
    25    52    51    1
    26    73    74   ar
    27    73    72   ar
    28    66    59    1
    29    66    67    1
    30    74    75   ar
    31    64    63    1
    32    18    23   ar
    33    18    19   ar
    34    63    58    1
    35    51    44    1
    36    51    53    1
    37    23    22   ar
    38    59    58   ar
    39    59    60   ar
    40    58    57   ar
    41    49    44   ar
    42    49    48   ar
    43    60    72    1
    44    60    61   ar
    45     9     3    1
    46    89    85    1
    47    72    71   ar
    48     3     1   ar
    49     4    19    1
    50     4     2   ar
    51    44    45   ar
    52    19    20   ar
    53    75    84    1
    54    75    76   ar
    55    57    61   ar
    56    57    48    1
    57    22    33    1
    58    22    21   ar
    59    85    84   ar
    60    85    86   ar
    61    98    95    1
    62    33    36   ar
    63    84    88   ar
    64    61    62    1
    65    48    47   ar
    66    94    95   ar
    67    94    96   ar
    68    34    45    1
    69    34    37   ar
    70    45    46   ar
    71    86    90    1
    72    86    87   ar
    73    88    87   ar
    74    29    27    1
    75    68    67    1
    76    71    76   ar
    77    71    78    1
    78    90    93    1
    79    90    91    1
    80    87    96    1
    81    20    21   ar
    82    20    24    1
    83    95    97   ar
    84    21    27    1
    85    47    46   ar
    86    47    54    1
    87    46    50    1
    88    67    70    1
    89    67    69    1
    90    96    99   ar
    91    36    37   ar
    92    36    38    1
    93    78    79    3
    94    37    42    1
    95    54    55    3
    96    27    30    1
    97    27    28    1
    98     2     1   ar
    99     2     5    1
   100     1    10    1
   101    79    80    1
   102    97   102    1
   103    97   100   ar
   104    55    56    1
   105    99   100   ar
   106    99   101    1
   107    42    43    1
   108    14    11    1
   109   100   105    1
   110    13    11    1
   111    10    11    1
   112    11    12    1
   113   105   106    3
   114   106   107    1
