@<TRIPOS>MOLECULE
mol_data/opt/m06hf/geoms/mol2/4le6le-13di-13al-.out
 57 60 0 0 0
SMALL
GASTEIGER

@<TRIPOS>ATOM
      1 C          -0.0201    0.6052   -1.1247 C.ar    1  LIG1        0.1207
      2 C           1.3729    0.5476   -0.9975 C.ar    1  LIG1       -0.0109
      3 C          -0.7704    1.3498   -0.2169 C.ar    1  LIG1       -0.0188
      4 C           2.0184    1.2233    0.0244 C.ar    1  LIG1        0.0061
      5 H           1.9321   -0.0227   -1.7274 H       1  LIG1        0.0660
      6 C          -0.1182    2.0243    0.8130 C.ar    1  LIG1       -0.0423
      7 C           1.2658    1.9727    0.9515 C.ar    1  LIG1        0.0328
      8 H          -0.6925    2.5957    1.5292 H       1  LIG1        0.0631
      9 H          -1.8464    1.4126   -0.2946 H       1  LIG1        0.0654
     10 O          -0.5444   -0.0874   -2.1621 O.3     1  LIG1       -0.4951
     11 C          -1.9464   -0.0459   -2.3517 C.3     1  LIG1        0.0788
     12 H          -2.1446   -0.6521   -3.2310 H       1  LIG1        0.0660
     13 H          -2.4655   -0.4675   -1.4874 H       1  LIG1        0.0660
     14 H          -2.2823    0.9793   -2.5247 H       1  LIG1        0.0660
     15 C           1.9027    2.6480    2.0571 C.1     1  LIG1       -0.0690
     16 C           2.4142    3.1996    2.9953 C.1     1  LIG1       -0.1139
     17 H           2.8636    3.6766    3.8351 H       1  LIG1        0.1232
     18 C           4.3181    2.2719    0.1364 C.ar    1  LIG1        0.2231
     19 C           3.4974    1.1186    0.1528 C.ar    1  LIG1        0.0461
     20 C           4.1417   -0.0910    0.2770 C.ar    1  LIG1       -0.0314
     21 C           5.5429   -0.1556    0.4196 C.ar    1  LIG1        0.0529
     22 C           6.2372    1.0506    0.4720 C.ar    1  LIG1        0.1075
     23 N           5.6195    2.2344    0.3044 N.ar    1  LIG1       -0.2096
     24 H           3.5717   -1.0116    0.2736 H       1  LIG1        0.0638
     25 O           3.7152    3.4441   -0.0716 O.3     1  LIG1       -0.4792
     26 C           4.4689    4.6217    0.1879 C.3     1  LIG1        0.0804
     27 H           3.7630    5.4407    0.0880 H       1  LIG1        0.0660
     28 H           4.8790    4.5836    1.1970 H       1  LIG1        0.0660
     29 H           5.2793    4.7211   -0.5344 H       1  LIG1        0.0660
     30 C           6.1893   -1.4381    0.4496 C.1     1  LIG1       -0.0674
     31 C           6.6944   -2.5278    0.4581 C.1     1  LIG1       -0.1138
     32 H           7.1720   -3.4792    0.5004 H       1  LIG1        0.1232
     33 C           7.7005    1.1668    0.6311 C.ar    1  LIG1        0.0846
     34 C           8.6962    0.4502    1.2856 C.ar    1  LIG1        0.0820
     35 C           9.9409    1.1148    1.0711 C.ar    1  LIG1       -0.0057
     36 C           9.6579    2.2166    0.2924 C.ar    1  LIG1        0.0677
     37 N           8.3116    2.2283    0.0522 N.ar    1  LIG1       -0.3505
     38 H           7.8041    2.9023   -0.5036 H       1  LIG1        0.1660
     39 N           8.5568   -1.5439    2.9166 N.1     1  LIG1       -0.1908
     40 C           8.5687   -0.6717    2.1689 C.1     1  LIG1        0.1016
     41 C          11.2771    0.7036    1.6300 C.3     1  LIG1       -0.0364
     42 H          11.9874    1.5225    1.5198 H       1  LIG1        0.0279
     43 H          11.6597   -0.1723    1.1033 H       1  LIG1        0.0279
     44 H          11.1768    0.4491    2.6857 H       1  LIG1        0.0279
     45 C          10.5409    3.2600   -0.2332 C.ar    1  LIG1        0.0667
     46 C          11.7312    3.1558   -0.9244 C.ar    1  LIG1        0.0068
     47 C          12.1603    4.4880   -1.1919 C.ar    1  LIG1        0.1379
     48 C          11.2276    5.3496   -0.6648 C.ar    1  LIG1        0.0444
     49 N          10.2479    4.5844   -0.0915 N.ar    1  LIG1       -0.3564
     50 H           9.4856    4.9374    0.4644 H       1  LIG1        0.1655
     51 H          11.2068    6.4238   -0.6605 H       1  LIG1        0.0844
     52 H          12.1957    2.2295   -1.2175 H       1  LIG1        0.0676
     53 O          13.2725    4.9104   -1.8502 O.3     1  LIG1       -0.4936
     54 C          14.1186    3.8823   -2.3244 C.3     1  LIG1        0.0789
     55 H          14.9555    4.3756   -2.8115 H       1  LIG1        0.0660
     56 H          14.4825    3.2691   -1.4957 H       1  LIG1        0.0660
     57 H          13.5915    3.2510   -3.0448 H       1  LIG1        0.0660
@<TRIPOS>BOND
     1    12    11    1
     2    57    54    1
     3    55    54    1
     4    14    11    1
     5    11    10    1
     6    11    13    1
     7    54    53    1
     8    54    56    1
     9    10     1    1
    10    53    47    1
    11     5     2    1
    12    52    46    1
    13    47    46   ar
    14    47    48   ar
    15     1     2   ar
    16     1     3   ar
    17     2     4   ar
    18    46    45   ar
    19    48    51    1
    20    48    49   ar
    21    29    26    1
    22    38    37    1
    23     9     3    1
    24    45    49   ar
    25    45    36    1
    26     3     6   ar
    27    49    50    1
    28    25    18    1
    29    25    26    1
    30     4    19    1
    31     4     7   ar
    32    37    36   ar
    33    37    33   ar
    34    27    26    1
    35    18    19   ar
    36    18    23   ar
    37    19    20   ar
    38    26    28    1
    39    24    20    1
    40    20    21   ar
    41    36    35   ar
    42    23    22   ar
    43    21    30    1
    44    21    22   ar
    45    30    31    3
    46    31    32    1
    47    22    33    1
    48    33    34   ar
    49     6     7   ar
    50     6     8    1
    51     7    15    1
    52    35    34   ar
    53    35    41    1
    54    43    41    1
    55    34    40    1
    56    42    41    1
    57    41    44    1
    58    15    16    3
    59    40    39    3
    60    16    17    1
