@<TRIPOS>MOLECULE
mol_data/opt/m06hf/geoms/mol2/4lf.out
 17 17 0 0 0
SMALL
GASTEIGER

@<TRIPOS>ATOM
      1 C           0.0208    0.1394    0.0002 C.ar    1  LIG1        0.1203
      2 C           1.4196    0.0781   -0.0001 C.ar    1  LIG1       -0.0165
      3 C          -0.6098    1.3781    0.0001 C.ar    1  LIG1       -0.0165
      4 C           2.1738    1.2363   -0.0004 C.ar    1  LIG1       -0.0167
      5 H           1.8868   -0.8972    0.0000 H       1  LIG1        0.0655
      6 C           0.1564    2.5482   -0.0003 C.ar    1  LIG1       -0.0167
      7 C           1.5411    2.4825   -0.0005 C.ar    1  LIG1        0.1171
      8 H          -0.3422    3.5107   -0.0004 H       1  LIG1        0.0655
      9 H           3.2547    1.2046   -0.0006 H       1  LIG1        0.0655
     10 H          -1.6875    1.4600    0.0003 H       1  LIG1        0.0655
     11 O          -0.6281   -1.0585    0.0006 O.3     1  LIG1       -0.4951
     12 C          -2.0400   -1.0408    0.0008 C.3     1  LIG1        0.0788
     13 H          -2.3526   -2.0815    0.0010 H       1  LIG1        0.0660
     14 H          -2.4225   -0.5410    0.8955 H       1  LIG1        0.0660
     15 H          -2.4228   -0.5414   -0.8940 H       1  LIG1        0.0660
     16 O           2.3415    3.5900   -0.0009 O.3     1  LIG1       -0.5068
     17 H           1.8063    4.3899   -0.0009 H       1  LIG1        0.2921
@<TRIPOS>BOND
     1    15    12    1
     2    17    16    1
     3    16     7    1
     4     9     4    1
     5     7     4   ar
     6     7     6   ar
     7     4     2   ar
     8     8     6    1
     9     6     3   ar
    10     2     5    1
    11     2     1   ar
    12     3     1   ar
    13     3    10    1
    14     1    11    1
    15    11    12    1
    16    12    13    1
    17    12    14    1
