@<TRIPOS>MOLECULE
mol_data/opt/m06hf/geoms/mol2/4lf13ea13hf13hl-4fd13fl-13ld-4hd.out
 103 110 0 0 0
SMALL
GASTEIGER

@<TRIPOS>ATOM
      1 C          -0.7933    0.1946   -0.0094 C.ar    1  LIG1        0.1209
      2 C           0.5661    0.2382    0.2949 C.ar    1  LIG1       -0.0073
      3 C          -1.4300    1.3306   -0.4968 C.ar    1  LIG1       -0.0165
      4 C           1.3116    1.4045    0.1405 C.ar    1  LIG1        0.0443
      5 H           1.0320   -0.6645    0.6629 H       1  LIG1        0.0662
      6 C          -0.6895    2.4984   -0.6751 C.ar    1  LIG1       -0.0161
      7 C           0.6601    2.5499   -0.3611 C.ar    1  LIG1        0.1262
      8 H          -1.1702    3.3873   -1.0625 H       1  LIG1        0.0655
      9 H          -2.4810    1.3289   -0.7469 H       1  LIG1        0.0655
     10 O          -1.4115   -1.0035    0.1971 O.3     1  LIG1       -0.4951
     11 C          -2.7893   -1.0854   -0.0937 C.3     1  LIG1        0.0788
     12 H          -3.0866   -2.1032    0.1454 H       1  LIG1        0.0660
     13 H          -3.3594   -0.3824    0.5204 H       1  LIG1        0.0660
     14 H          -2.9782   -0.8862   -1.1526 H       1  LIG1        0.0660
     15 O           1.3782    3.7044   -0.5447 O.3     1  LIG1       -0.5061
     16 H           0.7800    4.4460   -0.7341 H       1  LIG1        0.2922
     17 C           2.7443    1.4019    0.4976 C.ar    1  LIG1        0.0662
     18 C           3.5025    0.4900    1.2319 C.ar    1  LIG1        0.0506
     19 C           4.8449    0.9581    1.2425 C.ar    1  LIG1       -0.0189
     20 C           4.8726    2.1328    0.5234 C.ar    1  LIG1        0.0665
     21 N           3.6010    2.3785    0.0836 N.ar    1  LIG1       -0.3519
     22 H           3.2736    3.1555   -0.4748 H       1  LIG1        0.1660
     23 C           3.0595   -0.6943    1.9073 C.1     1  LIG1       -0.0675
     24 C           2.7286   -1.6935    2.4901 C.1     1  LIG1       -0.1138
     25 H           2.4319   -2.5738    3.0102 H       1  LIG1        0.1232
     26 H           5.6829    0.5112    1.7506 H       1  LIG1        0.0652
     27 C           6.0112    3.0050    0.2670 C.ar    1  LIG1        0.0880
     28 C           7.3498    2.6667    0.2526 C.ar    1  LIG1        0.0944
     29 C           8.0806    3.8584    0.0014 C.ar    1  LIG1        0.1650
     30 C           7.1716    4.8900   -0.1315 C.ar    1  LIG1        0.1092
     31 N           5.9122    4.3541    0.0332 N.ar    1  LIG1       -0.3474
     32 H           5.0486    4.8420   -0.1322 H       1  LIG1        0.1662
     33 N           7.9219    1.4032    0.4901 N.pl3   1  LIG1       -0.3534
     34 H           7.4582    0.6735   -0.0425 H       1  LIG1        0.1425
     35 H           8.9120    1.4266    0.2710 H       1  LIG1        0.1425
     36 O           9.4296    3.9059   -0.0642 O.3     1  LIG1       -0.5030
     37 H           9.6869    4.7353   -0.5475 H       1  LIG1        0.2923
     38 C           7.4109    6.3018   -0.3536 C.ar    1  LIG1        0.0916
     39 C           8.5218    6.9564   -0.8469 C.ar    1  LIG1        0.0947
     40 C           8.2250    8.3540   -0.8527 C.ar    1  LIG1        0.1666
     41 C           6.9427    8.5164   -0.3757 C.ar    1  LIG1        0.0946
     42 N           6.4660    7.2501   -0.0936 N.ar    1  LIG1       -0.3484
     43 H           5.6628    7.0870    0.4950 H       1  LIG1        0.1661
     44 N           9.6876    6.2932   -1.3474 N.pl3   1  LIG1       -0.3534
     45 H           9.6461    6.2022   -2.3607 H       1  LIG1        0.1425
     46 H          10.5326    6.8065   -1.1162 H       1  LIG1        0.1425
     47 O           9.0435    9.3283   -1.3379 O.3     1  LIG1       -0.4911
     48 C          10.0660    9.7206   -0.4225 C.3     1  LIG1        0.0790
     49 H          10.6046   10.5364   -0.8993 H       1  LIG1        0.0660
     50 H           9.6177   10.0513    0.5129 H       1  LIG1        0.0660
     51 H          10.7522    8.8917   -0.2304 H       1  LIG1        0.0660
     52 C           6.2971   10.9336    0.1210 C.ar    1  LIG1        0.1268
     53 C           5.3056   11.9090    0.2273 C.ar    1  LIG1       -0.0091
     54 C           5.9933    9.6363   -0.3308 C.ar    1  LIG1        0.0446
     55 C           3.9820   11.6328   -0.1116 C.ar    1  LIG1        0.0228
     56 H           5.5477   12.8942    0.6089 H       1  LIG1        0.0661
     57 C           4.6844    9.3849   -0.7263 C.ar    1  LIG1       -0.0310
     58 C           3.6903   10.3539   -0.6241 C.ar    1  LIG1        0.0618
     59 H           4.4377    8.4173   -1.1436 H       1  LIG1        0.0638
     60 O           7.5703   11.1834    0.4890 O.3     1  LIG1       -0.5061
     61 H           7.6719   12.0962    0.7806 H       1  LIG1        0.2922
     62 N           1.3073    9.6991   -1.4223 N.1     1  LIG1       -0.1908
     63 C           2.3682    9.9921   -1.0884 C.1     1  LIG1        0.0998
     64 C           2.9226   12.6278    0.0620 C.ar    1  LIG1        0.0941
     65 C           2.8905   14.0030   -0.0587 C.ar    1  LIG1        0.1851
     66 C           1.5333   14.4190    0.0221 C.ar    1  LIG1        0.1889
     67 C           0.7608   13.2856    0.2141 C.ar    1  LIG1        0.1130
     68 N           1.6260   12.2330    0.2508 N.ar    1  LIG1       -0.3470
     69 H           1.3461   11.3069    0.5347 H       1  LIG1        0.1662
     70 O           3.9489   14.8206   -0.2811 O.3     1  LIG1       -0.5019
     71 H           3.6076   15.7100   -0.4460 H       1  LIG1        0.2924
     72 O           1.1861   15.7283   -0.1138 O.3     1  LIG1       -0.4895
     73 C           0.0295   15.9771   -0.9192 C.3     1  LIG1        0.0791
     74 H           0.0151   17.0488   -1.0985 H       1  LIG1        0.0660
     75 H           0.1122   15.4326   -1.8609 H       1  LIG1        0.0660
     76 H          -0.8760   15.6762   -0.3887 H       1  LIG1        0.0660
     77 C          -0.6579   12.9298    0.2055 C.ar    1  LIG1        0.1106
     78 C          -1.8190   13.4181    0.7645 C.ar    1  LIG1        0.1647
     79 C          -2.8593   12.4857    0.4618 C.ar    1  LIG1        0.1192
     80 C          -2.3005   11.4471   -0.2776 C.ar    1  LIG1        0.0700
     81 N          -0.9906   11.7434   -0.4201 N.ar    1  LIG1       -0.3489
     82 H          -0.3547   11.2140   -1.0124 H       1  LIG1        0.1661
     83 O          -2.0323   14.5415    1.4794 O.3     1  LIG1       -0.4916
     84 C          -0.9956   14.9219    2.3889 C.3     1  LIG1        0.0789
     85 H          -1.4400   15.6681    3.0416 H       1  LIG1        0.0660
     86 H          -0.6757   14.0529    2.9659 H       1  LIG1        0.0660
     87 H          -0.1472   15.3505    1.8519 H       1  LIG1        0.0660
     88 N          -5.3061   12.6289    1.2618 N.1     1  LIG1       -0.1907
     89 C          -4.2067   12.5731    0.9323 C.1     1  LIG1        0.1050
     90 C          -4.0287   10.0019   -1.4767 C.ar    1  LIG1        0.0339
     91 C          -4.3599    8.7226   -1.9791 C.ar    1  LIG1       -0.0392
     92 C          -2.7952   10.1549   -0.7990 C.ar    1  LIG1        0.0215
     93 C          -3.5014    7.6521   -1.8547 C.ar    1  LIG1       -0.0426
     94 H          -5.3040    8.5970   -2.4926 H       1  LIG1        0.0636
     95 C          -1.9443    9.0601   -0.6687 C.ar    1  LIG1       -0.0334
     96 C          -2.2738    7.8188   -1.2008 C.ar    1  LIG1        0.0525
     97 H          -1.0011    9.1745   -0.1515 H       1  LIG1        0.0637
     98 H          -3.7703    6.6874   -2.2631 H       1  LIG1        0.0631
     99 N          -4.8647   11.0470   -1.7003 N.pl3   1  LIG1       -0.3575
    100 H          -4.7488   11.9145   -1.2022 H       1  LIG1        0.1423
    101 H          -5.7932   10.8594   -2.0413 H       1  LIG1        0.1423
    102 N          -0.5550    5.8913   -0.9870 N.1     1  LIG1       -0.1909
    103 C          -1.3288    6.7336   -1.0818 C.1     1  LIG1        0.0992
@<TRIPOS>BOND
     1    94    91    1
     2    45    44    1
     3    98    93    1
     4   101    99    1
     5    91    93   ar
     6    91    90   ar
     7    75    73    1
     8    93    96   ar
     9    99    90    1
    10    99   100    1
    11    90    92   ar
    12    62    63    3
    13    44    46    1
    14    44    39    1
    15    47    40    1
    16    47    48    1
    17    96   103    1
    18    96    95   ar
    19    14    11    1
    20    59    57    1
    21    74    73    1
    22    63    58    1
    23   103   102    3
    24     8     6    1
    25    82    81    1
    26    73    76    1
    27    73    72    1
    28    49    48    1
    29    40    39   ar
    30    40    41   ar
    31    39    38   ar
    32    92    95   ar
    33    92    80    1
    34     9     3    1
    35    16    15    1
    36    57    58   ar
    37    57    54   ar
    38     6     3   ar
    39     6     7   ar
    40    95    97    1
    41    58    55   ar
    42    37    36    1
    43    15     7    1
    44     3     1   ar
    45    22    21    1
    46    71    70    1
    47    48    51    1
    48    48    50    1
    49    81    80   ar
    50    81    77   ar
    51    41    54    1
    52    41    42   ar
    53     7     4   ar
    54    38    30    1
    55    38    42   ar
    56    54    52   ar
    57    70    65    1
    58    80    79   ar
    59    32    31    1
    60    30    29   ar
    61    30    31   ar
    62    72    66    1
    63    55    64    1
    64    55    53   ar
    65    11    12    1
    66    11    10    1
    67    11    13    1
    68    42    43    1
    69    36    29    1
    70    65    66   ar
    71    65    64   ar
    72    34    33    1
    73     1    10    1
    74     1     2   ar
    75    29    28   ar
    76    66    67   ar
    77    31    27   ar
    78    64    68   ar
    79    21    17   ar
    80    21    20   ar
    81    52    53   ar
    82    52    60    1
    83     4     2   ar
    84     4    17    1
    85    77    67    1
    86    77    78   ar
    87    67    68   ar
    88    53    56    1
    89    68    69    1
    90    28    27   ar
    91    28    33    1
    92    27    20    1
    93    35    33    1
    94     2     5    1
    95    79    78   ar
    96    79    89    1
    97    60    61    1
    98    17    18   ar
    99    20    19   ar
   100    78    83    1
   101    89    88    3
   102    18    19   ar
   103    18    23    1
   104    19    26    1
   105    83    84    1
   106    87    84    1
   107    23    24    3
   108    84    86    1
   109    84    85    1
   110    24    25    1
