@<TRIPOS>MOLECULE
mol_data/opt/m06hf/geoms/mol2/4lf13lf-13eh-12aa-4eh-12ah-4ie-4hf-.out
 100 107 0 0 0
SMALL
GASTEIGER

@<TRIPOS>ATOM
      1 C           1.3005   -1.0422    3.0562 C.ar    1  LIG1        0.1209
      2 C           2.2405   -0.7836    2.0581 C.ar    1  LIG1       -0.0072
      3 C           1.2003   -0.1951    4.1550 C.ar    1  LIG1       -0.0165
      4 C           3.0991    0.3107    2.1338 C.ar    1  LIG1        0.0469
      5 H           2.2950   -1.4498    1.2084 H       1  LIG1        0.0662
      6 C           2.0504    0.9086    4.2346 C.ar    1  LIG1       -0.0161
      7 C           2.9847    1.1644    3.2475 C.ar    1  LIG1        0.1263
      8 H           1.9766    1.5783    5.0843 H       1  LIG1        0.0655
      9 H           0.4818   -0.3663    4.9432 H       1  LIG1        0.0655
     10 O           0.5228   -2.1430    2.8658 O.3     1  LIG1       -0.4951
     11 C          -0.4488   -2.4353    3.8475 C.3     1  LIG1        0.0788
     12 H          -0.9521   -3.3378    3.5123 H       1  LIG1        0.0660
     13 H           0.0215   -2.6148    4.8186 H       1  LIG1        0.0660
     14 H          -1.1721   -1.6194    3.9329 H       1  LIG1        0.0660
     15 O           3.8209    2.2563    3.3281 O.3     1  LIG1       -0.5061
     16 H           3.6840    2.7235    4.1581 H       1  LIG1        0.2922
     17 C           4.0884    0.5313    1.0647 C.ar    1  LIG1        0.0966
     18 C           4.4429   -0.2948    0.0072 C.ar    1  LIG1        0.1875
     19 C           5.4678    0.3503   -0.7291 C.ar    1  LIG1        0.1865
     20 C           5.7106    1.5615   -0.1065 C.ar    1  LIG1        0.1104
     21 N           4.8608    1.6535    0.9635 N.ar    1  LIG1       -0.3470
     22 H           4.9028    2.3439    1.6994 H       1  LIG1        0.1662
     23 O           3.8910   -1.5018   -0.3047 O.3     1  LIG1       -0.4895
     24 C           4.8147   -2.5839   -0.1831 C.3     1  LIG1        0.0791
     25 H           4.2754   -3.4807   -0.4783 H       1  LIG1        0.0660
     26 H           5.6648   -2.4171   -0.8450 H       1  LIG1        0.0660
     27 H           5.1498   -2.6673    0.8532 H       1  LIG1        0.0660
     28 O           6.0112   -0.1644   -1.8627 O.3     1  LIG1       -0.5019
     29 H           6.9257    0.1369   -1.9605 H       1  LIG1        0.2924
     30 C           6.5910    2.6525   -0.4895 C.ar    1  LIG1        0.0845
     31 C           7.8532    2.6262   -1.0742 C.ar    1  LIG1        0.0728
     32 C           8.2606    3.9791   -1.2839 C.ar    1  LIG1        0.0695
     33 C           7.2448    4.7768   -0.8058 C.ar    1  LIG1        0.1047
     34 N           6.2438    3.9523   -0.3400 N.ar    1  LIG1       -0.3481
     35 H           5.3399    4.2788   -0.0339 H       1  LIG1        0.1661
     36 C           8.6063    1.4570   -1.3955 C.1     1  LIG1       -0.0656
     37 C           9.2354    0.4695   -1.6852 C.1     1  LIG1       -0.1138
     38 H           9.8070   -0.4003   -1.9133 H       1  LIG1        0.1232
     39 N           9.4724    4.4154   -1.8334 N.pl3   1  LIG1       -0.3553
     40 H          10.0201    3.6421   -2.1920 H       1  LIG1        0.1424
     41 H           9.3367    5.1179   -2.5531 H       1  LIG1        0.1424
     42 C           7.1435    6.2198   -0.7586 C.ar    1  LIG1        0.1536
     43 C           8.0558    7.2241   -0.8798 C.ar    1  LIG1       -0.0137
     44 C           7.3152    8.4443   -0.7418 C.ar    1  LIG1       -0.0152
     45 C           6.0136    8.0934   -0.5419 C.ar    1  LIG1        0.1370
     46 O           5.9101    6.7341   -0.5580 O.2     1  LIG1       -0.4533
     47 H           9.1169    7.0997   -1.0114 H       1  LIG1        0.0656
     48 H           7.6963    9.4480   -0.7844 H       1  LIG1        0.0656
     49 C           4.7127   10.2145   -0.0967 C.ar    1  LIG1        0.0361
     50 C           3.4693   10.8221    0.0678 C.ar    1  LIG1       -0.0332
     51 C           4.7559    8.8274   -0.3488 C.ar    1  LIG1        0.0344
     52 C           2.2744   10.1130    0.0130 C.ar    1  LIG1        0.0391
     53 H           3.4380   11.8907    0.2361 H       1  LIG1        0.0638
     54 C           3.5633    8.1166   -0.4249 C.ar    1  LIG1       -0.0285
     55 C           2.3121    8.7225   -0.2441 C.ar    1  LIG1        0.0361
     56 H           3.6021    7.0545   -0.6278 H       1  LIG1        0.0643
     57 C           5.8850   11.0463    0.0098 C.1     1  LIG1       -0.0689
     58 C           6.8199   11.7966    0.1156 C.1     1  LIG1       -0.1139
     59 H           7.6509   12.4559    0.2155 H       1  LIG1        0.1232
     60 N           1.1753    7.9584   -0.2731 N.pl3   1  LIG1       -0.3574
     61 H           0.2900    8.4194   -0.4138 H       1  LIG1        0.1423
     62 H           1.2548    7.0205   -0.6304 H       1  LIG1        0.1423
     63 C           1.0187   10.8336    0.2743 C.ar    1  LIG1        0.1393
     64 C           0.7424   11.9107    1.0585 C.ar    1  LIG1        0.0056
     65 C          -0.6619   12.1795    0.8964 C.ar    1  LIG1        0.0716
     66 C          -1.1417   11.2237    0.0524 C.ar    1  LIG1        0.1565
     67 O          -0.1099   10.4186   -0.3437 O.2     1  LIG1       -0.4529
     68 H           1.4357   12.4385    1.6924 H       1  LIG1        0.0674
     69 N          -1.3844   13.2134    1.5079 N.pl3   1  LIG1       -0.3550
     70 H          -0.7961   13.9898    1.7810 H       1  LIG1        0.1424
     71 H          -2.1543   13.5392    0.9341 H       1  LIG1        0.1424
     72 C          -3.6106   10.8436    0.2953 C.ar    1  LIG1       -0.0391
     73 C          -4.8415   10.6190   -0.3216 C.ar    1  LIG1       -0.0492
     74 C          -2.4734   10.9656   -0.5226 C.ar    1  LIG1        0.0232
     75 C          -4.9764   10.4818   -1.7052 C.ar    1  LIG1       -0.0004
     76 H          -5.7326   10.5224    0.2883 H       1  LIG1        0.0627
     77 C          -2.5876   10.8245   -1.9055 C.ar    1  LIG1       -0.0348
     78 C          -3.8243   10.5825   -2.5049 C.ar    1  LIG1        0.0331
     79 H          -1.7059   10.9156   -2.5267 H       1  LIG1        0.0637
     80 C          -3.5059   10.8673    1.8089 C.3     1  LIG1       -0.0390
     81 H          -4.4822   10.6703    2.2491 H       1  LIG1        0.0278
     82 H          -3.1273   11.8238    2.1741 H       1  LIG1        0.0278
     83 H          -2.8071   10.0942    2.1345 H       1  LIG1        0.0278
     84 C          -3.8874   10.4772   -3.9457 C.1     1  LIG1       -0.0690
     85 C          -3.9100   10.4012   -5.1450 C.1     1  LIG1       -0.1139
     86 H          -3.9420   10.3439   -6.2085 H       1  LIG1        0.1232
     87 C          -7.4139   11.0266   -2.0078 C.ar    1  LIG1        0.0326
     88 C          -8.6637   10.6892   -2.5414 C.ar    1  LIG1       -0.0370
     89 C          -6.3218   10.1933   -2.2872 C.ar    1  LIG1        0.0074
     90 C          -8.8291    9.5674   -3.3370 C.ar    1  LIG1       -0.0184
     91 H          -9.5160   11.3216   -2.3240 H       1  LIG1        0.0637
     92 C          -6.4936    9.0652   -3.0939 C.ar    1  LIG1       -0.0107
     93 C          -7.7371    8.7496   -3.6202 C.ar    1  LIG1        0.1176
     94 H          -5.6349    8.4360   -3.3012 H       1  LIG1        0.0661
     95 H          -9.7946    9.3080   -3.7500 H       1  LIG1        0.0655
     96 N          -7.2818   12.1541   -1.1784 N.pl3   1  LIG1       -0.3575
     97 H          -6.3513   12.5537   -1.1839 H       1  LIG1        0.1423
     98 H          -7.9853   12.8604   -1.3511 H       1  LIG1        0.1423
     99 O          -7.9518    7.6549   -4.4116 O.3     1  LIG1       -0.5067
    100 H          -7.1222    7.1947   -4.5745 H       1  LIG1        0.2921
@<TRIPOS>BOND
     1    86    85    1
     2    85    84    3
     3   100    99    1
     4    99    93    1
     5    84    78    1
     6    95    90    1
     7    93    90   ar
     8    93    92   ar
     9    90    88   ar
    10    94    92    1
    11    92    89   ar
    12    41    39    1
    13    88    91    1
    14    88    87   ar
    15    79    77    1
    16    78    77   ar
    17    78    75   ar
    18    89    87   ar
    19    89    75    1
    20    40    39    1
    21    87    96    1
    22    29    28    1
    23    38    37    1
    24    77    74   ar
    25    28    19    1
    26    39    32    1
    27    75    73   ar
    28    37    36    3
    29    36    31    1
    30    98    96    1
    31    32    31   ar
    32    32    33   ar
    33    97    96    1
    34    31    30   ar
    35    47    43    1
    36    43    42   ar
    37    43    44   ar
    38    26    24    1
    39    33    42    1
    40    33    34   ar
    41    48    44    1
    42    42    46   ar
    43    44    45   ar
    44    19    20   ar
    45    19    18   ar
    46    62    60    1
    47    56    54    1
    48    46    45   ar
    49    45    51    1
    50    74    66    1
    51    74    72   ar
    52    30    34   ar
    53    30    20    1
    54    25    24    1
    55    54    51   ar
    56    54    55   ar
    57    61    60    1
    58    51    49   ar
    59    67    66   ar
    60    67    63   ar
    61    34    35    1
    62    73    76    1
    63    73    72   ar
    64    23    24    1
    65    23    18    1
    66    60    55    1
    67    55    52   ar
    68    24    27    1
    69    20    21   ar
    70    49    57    1
    71    49    50   ar
    72    18    17   ar
    73    57    58    3
    74    52    50   ar
    75    52    63    1
    76    66    65   ar
    77    50    53    1
    78    58    59    1
    79    63    64   ar
    80    72    80    1
    81    65    64   ar
    82    65    69    1
    83    71    69    1
    84    21    17   ar
    85    21    22    1
    86    64    68    1
    87    17     4    1
    88     5     2    1
    89    69    70    1
    90    80    83    1
    91    80    82    1
    92    80    81    1
    93     2     4   ar
    94     2     1   ar
    95     4     7   ar
    96    10     1    1
    97    10    11    1
    98     1     3   ar
    99     7    15    1
   100     7     6   ar
   101    15    16    1
   102    12    11    1
   103    11    14    1
   104    11    13    1
   105     3     6   ar
   106     3     9    1
   107     6     8    1
