@<TRIPOS>MOLECULE
mol_data/opt/m06hf/geoms/mol2/4lf4lf-4lf-4lf-.out
 62 65 0 0 0
SMALL
GASTEIGER

@<TRIPOS>ATOM
      1 C          -0.1336    0.2101   -0.1936 C.ar    1  LIG1        0.1209
      2 C           1.2629    0.2105   -0.1090 C.ar    1  LIG1       -0.0086
      3 C          -0.8073    1.4111   -0.3709 C.ar    1  LIG1       -0.0165
      4 C           1.9886    1.3874   -0.1988 C.ar    1  LIG1        0.0306
      5 H           1.7716   -0.7323    0.0441 H       1  LIG1        0.0661
      6 C          -0.0786    2.6006   -0.4709 C.ar    1  LIG1       -0.0161
      7 C           1.3046    2.5997   -0.3923 C.ar    1  LIG1        0.1249
      8 H          -0.6069    3.5354   -0.6210 H       1  LIG1        0.0655
      9 H          -1.8854    1.4488   -0.4378 H       1  LIG1        0.0655
     10 O          -0.7372   -1.0083   -0.0877 O.3     1  LIG1       -0.4951
     11 C          -2.1460   -1.0448   -0.1621 C.3     1  LIG1        0.0788
     12 H          -2.4258   -2.0897   -0.0555 H       1  LIG1        0.0660
     13 H          -2.5930   -0.4599    0.6468 H       1  LIG1        0.0660
     14 H          -2.4950   -0.6667   -1.1271 H       1  LIG1        0.0660
     15 O           2.0470    3.7350   -0.5246 O.3     1  LIG1       -0.5062
     16 H           1.4718    4.4884   -0.6902 H       1  LIG1        0.2922
     17 C           4.1546    2.0583    0.8869 C.ar    1  LIG1        0.1287
     18 C           5.5398    2.0209    0.9413 C.ar    1  LIG1       -0.0080
     19 C           3.4786    1.3568   -0.1278 C.ar    1  LIG1        0.0309
     20 C           6.2742    1.2729    0.0112 C.ar    1  LIG1        0.0306
     21 H           6.0859    2.5589    1.7032 H       1  LIG1        0.0661
     22 C           4.2070    0.6216   -1.0489 C.ar    1  LIG1       -0.0082
     23 C           5.6010    0.5754   -0.9899 C.ar    1  LIG1        0.1255
     24 H           3.7044    0.0915   -1.8471 H       1  LIG1        0.0661
     25 O           3.3774    2.7209    1.7839 O.3     1  LIG1       -0.4945
     26 C           4.0201    3.6087    2.6721 C.3     1  LIG1        0.0788
     27 H           3.2258    4.1148    3.2150 H       1  LIG1        0.0660
     28 H           4.6561    3.0663    3.3772 H       1  LIG1        0.0660
     29 H           4.6193    4.3379    2.1201 H       1  LIG1        0.0660
     30 O           6.2427   -0.1549   -1.9468 O.3     1  LIG1       -0.5061
     31 H           7.1932    0.0068   -1.8921 H       1  LIG1        0.2922
     32 C           8.5496    2.3729    0.0873 C.ar    1  LIG1        0.1287
     33 C           9.9329    2.2751    0.1391 C.ar    1  LIG1       -0.0080
     34 C           7.7639    1.2029    0.0914 C.ar    1  LIG1        0.0309
     35 C          10.5670    1.0283    0.2008 C.ar    1  LIG1        0.0306
     36 H          10.5561    3.1580    0.1247 H       1  LIG1        0.0661
     37 C           8.4006   -0.0326    0.1472 C.ar    1  LIG1       -0.0082
     38 C           9.7927   -0.1303    0.1956 C.ar    1  LIG1        0.1255
     39 H           7.8199   -0.9471    0.1637 H       1  LIG1        0.0661
     40 O           7.8819    3.5574    0.0302 O.3     1  LIG1       -0.4945
     41 C           8.6426    4.7341   -0.1528 C.3     1  LIG1        0.0788
     42 H           7.9206    5.5387   -0.2648 H       1  LIG1        0.0660
     43 H           9.2784    4.9280    0.7157 H       1  LIG1        0.0660
     44 H           9.2585    4.6579   -1.0527 H       1  LIG1        0.0660
     45 O          10.3279   -1.3819    0.2368 O.3     1  LIG1       -0.5061
     46 H          11.2853   -1.3308    0.1213 H       1  LIG1        0.2922
     47 C          12.8804    1.5515   -0.6693 C.ar    1  LIG1        0.1281
     48 C          14.2616    1.4241   -0.5728 C.ar    1  LIG1       -0.0159
     49 C          12.0550    0.9293    0.2881 C.ar    1  LIG1        0.0308
     50 C          14.8350    0.6867    0.4655 C.ar    1  LIG1       -0.0167
     51 H          14.9111    1.8894   -1.3002 H       1  LIG1        0.0655
     52 C          12.6413    0.2047    1.3217 C.ar    1  LIG1       -0.0089
     53 C          14.0289    0.0789    1.4151 C.ar    1  LIG1        0.1177
     54 H          12.0248   -0.2586    2.0827 H       1  LIG1        0.0661
     55 H          15.9136    0.5960    0.5246 H       1  LIG1        0.0655
     56 O          12.2527    2.2545   -1.6495 O.3     1  LIG1       -0.4945
     57 C          13.0515    2.8498   -2.6529 C.3     1  LIG1        0.0788
     58 H          12.3580    3.3344   -3.3347 H       1  LIG1        0.0660
     59 H          13.7270    3.5936   -2.2216 H       1  LIG1        0.0660
     60 H          13.6269    2.0910   -3.1895 H       1  LIG1        0.0660
     61 O          14.5183   -0.6466    2.4604 O.3     1  LIG1       -0.5067
     62 H          15.4807   -0.6636    2.4426 H       1  LIG1        0.2921
@<TRIPOS>BOND
     1    58    57    1
     2    60    57    1
     3    57    59    1
     4    57    56    1
     5    30    31    1
     6    30    23    1
     7    24    22    1
     8    56    47    1
     9    51    48    1
    10    14    11    1
    11    44    41    1
    12    22    23   ar
    13    22    19   ar
    14    23    20   ar
    15    16    15    1
    16    47    48   ar
    17    47    49   ar
    18     8     6    1
    19    48    50   ar
    20    15     7    1
    21     6     7   ar
    22     6     3   ar
    23     9     3    1
    24     7     4   ar
    25     3     1   ar
    26    42    41    1
    27     4    19    1
    28     4     2   ar
    29     1     2   ar
    30     1    10    1
    31    11    10    1
    32    11    12    1
    33    11    13    1
    34    41    40    1
    35    41    43    1
    36    19    17   ar
    37     2     5    1
    38    20    34    1
    39    20    18   ar
    40    40    32    1
    41    32    34   ar
    42    32    33   ar
    43    34    37   ar
    44    46    45    1
    45    36    33    1
    46    33    35   ar
    47    37    39    1
    48    37    38   ar
    49    38    35   ar
    50    38    45    1
    51    35    49    1
    52    49    52   ar
    53    50    55    1
    54    50    53   ar
    55    17    18   ar
    56    17    25    1
    57    18    21    1
    58    52    53   ar
    59    52    54    1
    60    53    61    1
    61    25    26    1
    62    29    26    1
    63    62    61    1
    64    26    27    1
    65    26    28    1
