@<TRIPOS>MOLECULE
mol_data/opt/m06hf/geoms/mol2/4lf4lf-.out
 32 33 0 0 0
SMALL
GASTEIGER

@<TRIPOS>ATOM
      1 C           0.0164    0.3240    0.3854 C.ar    1  LIG1        0.1209
      2 C           1.4147    0.2889    0.3688 C.ar    1  LIG1       -0.0086
      3 C          -0.6489    1.3480   -0.2760 C.ar    1  LIG1       -0.0165
      4 C           2.1502    1.2584   -0.2937 C.ar    1  LIG1        0.0306
      5 H           1.9176   -0.5077    0.9015 H       1  LIG1        0.0661
      6 C           0.0893    2.3232   -0.9535 C.ar    1  LIG1       -0.0161
      7 C           1.4741    2.2861   -0.9718 C.ar    1  LIG1        0.1249
      8 H          -0.4334    3.1144   -1.4790 H       1  LIG1        0.0655
      9 H          -1.7278    1.4078   -0.2832 H       1  LIG1        0.0655
     10 O          -0.5974   -0.6795    1.0744 O.3     1  LIG1       -0.4951
     11 C          -2.0082   -0.6699    1.1215 C.3     1  LIG1        0.0788
     12 H          -2.2945   -1.5341    1.7152 H       1  LIG1        0.0660
     13 H          -2.3746    0.2430    1.5995 H       1  LIG1        0.0660
     14 H          -2.4316   -0.7569    0.1169 H       1  LIG1        0.0660
     15 O           2.2247    3.1993   -1.6500 O.3     1  LIG1       -0.5062
     16 H           1.6552    3.8618   -2.0534 H       1  LIG1        0.2922
     17 C           4.4032    2.2331    0.2457 C.ar    1  LIG1        0.1281
     18 C           5.7900    2.1520    0.2290 C.ar    1  LIG1       -0.0159
     19 C           3.6409    1.1895   -0.3109 C.ar    1  LIG1        0.0308
     20 C           6.4240    1.0349   -0.3224 C.ar    1  LIG1       -0.0167
     21 H           6.3964    2.9426    0.6476 H       1  LIG1        0.0655
     22 C           4.2800    0.0825   -0.8462 C.ar    1  LIG1       -0.0089
     23 C           5.6740   -0.0013   -0.8534 C.ar    1  LIG1        0.1177
     24 H           3.7039   -0.7245   -1.2797 H       1  LIG1        0.0661
     25 H           7.5068    0.9835   -0.3273 H       1  LIG1        0.0655
     26 O           3.7067    3.2597    0.7976 O.3     1  LIG1       -0.4945
     27 C           4.4364    4.3699    1.2717 C.3     1  LIG1        0.0788
     28 H           3.6971    5.0883    1.6162 H       1  LIG1        0.0660
     29 H           5.0845    4.0839    2.1050 H       1  LIG1        0.0660
     30 H           5.0356    4.8108    0.4700 H       1  LIG1        0.0660
     31 O           6.2312   -1.1233   -1.4010 O.3     1  LIG1       -0.5067
     32 H           7.1914   -1.0753   -1.3553 H       1  LIG1        0.2921
@<TRIPOS>BOND
     1    16    15    1
     2    15     7    1
     3     8     6    1
     4    31    32    1
     5    31    23    1
     6    24    22    1
     7     7     6   ar
     8     7     4   ar
     9     6     3   ar
    10    23    22   ar
    11    23    20   ar
    12    22    19   ar
    13    25    20    1
    14    20    18   ar
    15    19     4    1
    16    19    17   ar
    17     4     2   ar
    18     9     3    1
    19     3     1   ar
    20    14    11    1
    21    18    17   ar
    22    18    21    1
    23    17    26    1
    24     2     1   ar
    25     2     5    1
    26     1    10    1
    27    30    27    1
    28    26    27    1
    29    10    11    1
    30    11    13    1
    31    11    12    1
    32    27    28    1
    33    27    29    1
