@<TRIPOS>MOLECULE
mol_data/opt/m06hf/geoms/mol2/4lf6aa-12lh12af-6fd4ih12hl6ei.out
 100 107 0 0 0
SMALL
GASTEIGER

@<TRIPOS>ATOM
      1 C          -0.0001   -1.8322    0.3158 C.ar    1  LIG1        0.1209
      2 C           1.3537   -1.5062    0.2028 C.ar    1  LIG1       -0.0087
      3 C          -0.8504   -0.9839    1.0154 C.ar    1  LIG1       -0.0165
      4 C           1.8742   -0.3536    0.7768 C.ar    1  LIG1        0.0285
      5 H           1.9901   -2.1712   -0.3670 H       1  LIG1        0.0661
      6 C          -0.3366    0.1803    1.5904 C.ar    1  LIG1       -0.0161
      7 C           1.0072    0.5016    1.4783 C.ar    1  LIG1        0.1248
      8 H          -1.0001    0.8406    2.1373 H       1  LIG1        0.0655
      9 H          -1.9030   -1.2033    1.1226 H       1  LIG1        0.0655
     10 O          -0.3876   -2.9851   -0.2945 O.3     1  LIG1       -0.4951
     11 C          -1.7460   -3.3588   -0.1866 C.3     1  LIG1        0.0788
     12 H          -1.8418   -4.2978   -0.7251 H       1  LIG1        0.0660
     13 H          -2.0258   -3.5045    0.8603 H       1  LIG1        0.0660
     14 H          -2.3934   -2.6048   -0.6426 H       1  LIG1        0.0660
     15 O           1.5385    1.6267    2.0394 O.3     1  LIG1       -0.5062
     16 H           0.8745    2.0953    2.5558 H       1  LIG1        0.2922
     17 C           3.8017    1.2199    0.3391 C.ar    1  LIG1        0.0362
     18 C           3.3297   -0.0595    0.6607 C.ar    1  LIG1        0.0039
     19 C           4.2778   -1.0661    0.8434 C.ar    1  LIG1       -0.0503
     20 C           5.6262   -0.7747    0.6928 C.ar    1  LIG1       -0.0320
     21 C           5.9775    0.5337    0.3530 C.ar    1  LIG1        0.1097
     22 N           5.0864    1.5106    0.1831 N.ar    1  LIG1       -0.2512
     23 H           3.9588   -2.0615    1.1270 H       1  LIG1        0.0625
     24 H           3.1024    2.0344    0.2011 H       1  LIG1        0.0836
     25 H           6.3972   -1.5177    0.8508 H       1  LIG1        0.0640
     26 C           7.3939    0.8851    0.1696 C.ar    1  LIG1        0.1972
     27 C           8.5070    0.1132   -0.0099 C.ar    1  LIG1        0.1887
     28 C           9.6252    1.0029   -0.1315 C.ar    1  LIG1        0.1171
     29 C           9.0902    2.2515   -0.0091 C.ar    1  LIG1        0.1950
     30 O           7.7492    2.1832    0.1558 O.2     1  LIG1       -0.4445
     31 O           8.5956   -1.2449   -0.0950 O.3     1  LIG1       -0.4896
     32 C           8.3277   -1.7343   -1.4139 C.3     1  LIG1        0.0791
     33 H           8.4823   -2.8100   -1.3782 H       1  LIG1        0.0660
     34 H           7.2984   -1.5060   -1.6940 H       1  LIG1        0.0660
     35 H           9.0151   -1.2761   -2.1276 H       1  LIG1        0.0660
     36 N          10.9651    0.6423   -0.3010 N.pl3   1  LIG1       -0.3521
     37 H          11.0793   -0.3648   -0.3189 H       1  LIG1        0.1425
     38 H          11.3996    1.0768   -1.1079 H       1  LIG1        0.1425
     39 C           9.7251    3.5495   -0.0036 C.ar    1  LIG1        0.1762
     40 C          11.0261    3.9291    0.1250 C.ar    1  LIG1        0.0296
     41 C          11.0082    5.3608    0.0728 C.ar    1  LIG1        0.1635
     42 C           9.7122    5.7472   -0.0980 C.ar    1  LIG1        0.1821
     43 O           8.9274    4.6326   -0.1398 O.2     1  LIG1       -0.4477
     44 H          11.8766    3.2883    0.2829 H       1  LIG1        0.0693
     45 O          12.1118    6.1491    0.1784 O.3     1  LIG1       -0.5032
     46 H          11.9152    6.9222    0.7227 H       1  LIG1        0.2923
     47 C           7.7417    7.3047    0.1884 C.ar    1  LIG1        0.2240
     48 C           9.0859    7.0624   -0.2042 C.ar    1  LIG1        0.0834
     49 C           9.8068    8.1452   -0.6839 C.ar    1  LIG1       -0.0263
     50 C           9.2251    9.4141   -0.6963 C.ar    1  LIG1        0.0786
     51 C           7.9179    9.5660   -0.2127 C.ar    1  LIG1        0.0924
     52 N           7.2074    8.5120    0.1847 N.ar    1  LIG1       -0.2111
     53 H          10.8092    8.0023   -1.0693 H       1  LIG1        0.0640
     54 O           6.9291    6.3303    0.5943 O.3     1  LIG1       -0.4919
     55 H           7.3123    5.4500    0.4707 H       1  LIG1        0.2938
     56 N          10.5900   11.3697   -1.7094 N.1     1  LIG1       -0.1908
     57 C           9.9644   10.5209   -1.2553 C.1     1  LIG1        0.1013
     58 C           7.7770   12.0163    0.4462 C.ar    1  LIG1       -0.0405
     59 C           7.0337   13.1922    0.3795 C.ar    1  LIG1       -0.0457
     60 C           7.2280   10.8908   -0.1837 C.ar    1  LIG1        0.0064
     61 C           5.8086   13.2831   -0.2834 C.ar    1  LIG1        0.0401
     62 H           7.4021   14.0761    0.8912 H       1  LIG1        0.0628
     63 C           5.9774   10.9441   -0.7952 C.ar    1  LIG1       -0.0309
     64 C           5.2396   12.1281   -0.8664 C.ar    1  LIG1        0.0360
     65 H           5.5739   10.0360   -1.2264 H       1  LIG1        0.0643
     66 C           9.0686   12.0062    1.2475 C.3     1  LIG1       -0.0391
     67 H           8.9285   12.5897    2.1579 H       1  LIG1        0.0278
     68 H           9.8868   12.4424    0.6728 H       1  LIG1        0.0278
     69 H           9.3481   10.9922    1.5336 H       1  LIG1        0.0278
     70 N           4.0321   12.1640   -1.5349 N.pl3   1  LIG1       -0.3574
     71 H           3.3622   12.8690   -1.2596 H       1  LIG1        0.1423
     72 H           3.6314   11.2685   -1.7664 H       1  LIG1        0.1423
     73 C           5.1595   14.5939   -0.3577 C.ar    1  LIG1        0.1617
     74 C           5.6765   15.8558   -0.4171 C.ar    1  LIG1        0.1140
     75 C           4.5440   16.7350   -0.4388 C.ar    1  LIG1        0.1871
     76 C           3.4201   15.9592   -0.4037 C.ar    1  LIG1        0.1816
     77 O           3.7997   14.6669   -0.3552 O.2     1  LIG1       -0.4490
     78 N           7.0056   16.2968   -0.4316 N.pl3   1  LIG1       -0.3522
     79 H           7.6379   15.6019   -0.8153 H       1  LIG1        0.1425
     80 H           7.0862   17.1692   -0.9439 H       1  LIG1        0.1425
     81 O           4.6368   18.0944   -0.4873 O.3     1  LIG1       -0.4896
     82 C           4.9296   18.6613    0.7968 C.3     1  LIG1        0.0791
     83 H           5.0516   19.7299    0.6381 H       1  LIG1        0.0660
     84 H           4.1000   18.4672    1.4793 H       1  LIG1        0.0660
     85 H           5.8493   18.2262    1.1914 H       1  LIG1        0.0660
     86 C           0.9555   15.3945   -0.2060 C.ar    1  LIG1        0.1239
     87 C           1.9981   16.3080   -0.4404 C.ar    1  LIG1        0.0550
     88 C           1.6433   17.6325   -0.7295 C.ar    1  LIG1       -0.0439
     89 C           0.3105   18.0089   -0.7699 C.ar    1  LIG1       -0.0316
     90 C          -0.6389   17.0123   -0.5161 C.ar    1  LIG1        0.0319
     91 N          -0.3319   15.7535   -0.2483 N.ar    1  LIG1       -0.2457
     92 H           2.4298   18.3514   -0.9283 H       1  LIG1        0.0629
     93 H          -1.6968   17.2522   -0.5323 H       1  LIG1        0.0832
     94 C           1.1882   13.9981    0.1144 C.1     1  LIG1       -0.0491
     95 C           1.3386   12.8396    0.3956 C.1     1  LIG1       -0.1124
     96 H           1.4818   11.8186    0.6661 H       1  LIG1        0.1232
     97 C          -0.1145   19.4238   -1.1065 C.3     1  LIG1       -0.0383
     98 H          -1.0407   19.6766   -0.5909 H       1  LIG1        0.0278
     99 H          -0.2804   19.5200   -2.1812 H       1  LIG1        0.0278
    100 H           0.6578   20.1332   -0.8113 H       1  LIG1        0.0278
@<TRIPOS>BOND
     1    99    97    1
     2    35    32    1
     3    72    70    1
     4    56    57    3
     5    34    32    1
     6    70    71    1
     7    70    64    1
     8    32    33    1
     9    32    31    1
    10    57    50    1
    11    65    63    1
    12    38    36    1
    13    97   100    1
    14    97    89    1
    15    97    98    1
    16    53    49    1
    17    80    78    1
    18    92    88    1
    19    64    63   ar
    20    64    61   ar
    21    79    78    1
    22    63    60   ar
    23    89    88   ar
    24    89    90   ar
    25    88    87   ar
    26    12    11    1
    27    50    49   ar
    28    50    51   ar
    29    49    48   ar
    30    14    11    1
    31    93    90    1
    32    90    91   ar
    33    81    75    1
    34    81    82    1
    35    87    76    1
    36    87    86   ar
    37    75    74   ar
    38    75    76   ar
    39    78    74    1
    40    74    73   ar
    41    76    77   ar
    42     5     2    1
    43    73    77   ar
    44    73    61    1
    45    37    36    1
    46    36    28    1
    47    10    11    1
    48    10     1    1
    49    61    59   ar
    50    91    86   ar
    51    51    60    1
    52    51    52   ar
    53    86    94    1
    54    48    42    1
    55    48    47   ar
    56    11    13    1
    57    60    58   ar
    58    43    42   ar
    59    43    39   ar
    60    28    27   ar
    61    28    29   ar
    62    42    41   ar
    63    31    27    1
    64    27    26   ar
    65    29    39    1
    66    29    30   ar
    67    39    40   ar
    68    41    40   ar
    69    41    45    1
    70    94    95    3
    71    40    44    1
    72    30    26   ar
    73    26    21    1
    74    45    46    1
    75    22    17   ar
    76    22    21   ar
    77    52    47   ar
    78    47    54    1
    79    24    17    1
    80     2     1   ar
    81     2     4   ar
    82     1     3   ar
    83    17    18   ar
    84    21    20   ar
    85    59    58   ar
    86    59    62    1
    87    95    96    1
    88    58    66    1
    89    55    54    1
    90    83    82    1
    91    18     4    1
    92    18    19   ar
    93    68    66    1
    94    20    19   ar
    95    20    25    1
    96     4     7   ar
    97    82    85    1
    98    82    84    1
    99    19    23    1
   100     3     9    1
   101     3     6   ar
   102    66    69    1
   103    66    67    1
   104     7     6   ar
   105     7    15    1
   106     6     8    1
   107    15    16    1
