@<TRIPOS>MOLECULE
mol_data/opt/m06hf/geoms/mol2/4lg.out
 17 17 0 0 0
SMALL
GASTEIGER

@<TRIPOS>ATOM
      1 C           0.0054    0.1103    0.0002 C.ar    1  LIG1        0.1202
      2 C           1.4029    0.0450   -0.0000 C.ar    1  LIG1       -0.0189
      3 C          -0.6238    1.3517    0.0001 C.ar    1  LIG1       -0.0189
      4 C           2.1564    1.2047   -0.0004 C.ar    1  LIG1       -0.0451
      5 H           1.8695   -0.9305    0.0001 H       1  LIG1        0.0654
      6 C           0.1449    2.5176   -0.0003 C.ar    1  LIG1       -0.0451
      7 C           1.5321    2.4570   -0.0005 C.ar    1  LIG1        0.0050
      8 H          -0.3607    3.4749   -0.0004 H       1  LIG1        0.0630
      9 H           3.2375    1.1408   -0.0006 H       1  LIG1        0.0630
     10 H          -1.7015    1.4353    0.0003 H       1  LIG1        0.0654
     11 O          -0.6456   -1.0815    0.0006 O.3     1  LIG1       -0.4951
     12 C          -2.0592   -1.0653    0.0008 C.3     1  LIG1        0.0788
     13 H          -2.3686   -2.1068    0.0011 H       1  LIG1        0.0660
     14 H          -2.4412   -0.5666    0.8959 H       1  LIG1        0.0660
     15 H          -2.4415   -0.5669   -0.8943 H       1  LIG1        0.0660
     16 S           2.5767    3.9029   -0.0010 S.3     1  LIG1       -0.1426
     17 H           1.5897    4.8048   -0.0010 H       1  LIG1        0.1071
@<TRIPOS>BOND
     1    15    12    1
     2    16    17    1
     3    16     7    1
     4     9     4    1
     5     7     4   ar
     6     7     6   ar
     7     4     2   ar
     8     8     6    1
     9     6     3   ar
    10     2     5    1
    11     2     1   ar
    12     3     1   ar
    13     3    10    1
    14     1    11    1
    15    11    12    1
    16    12    13    1
    17    12    14    1
