@<TRIPOS>MOLECULE
mol_data/opt/m06hf/geoms/mol2/4lh12ee-6hd-13ai.out
 52 55 0 0 0
SMALL
GASTEIGER

@<TRIPOS>ATOM
      1 C          -0.1447    0.0380   -0.3698 C.ar    1  LIG1        0.1209
      2 C           1.2421    0.1247   -0.4020 C.ar    1  LIG1       -0.0075
      3 C          -0.8703    1.0588    0.2422 C.ar    1  LIG1       -0.0182
      4 C           1.9121    1.2006    0.1779 C.ar    1  LIG1        0.0426
      5 H           1.7975   -0.6672   -0.8865 H       1  LIG1        0.0662
      6 C          -0.2039    2.1384    0.8109 C.ar    1  LIG1       -0.0369
      7 C           1.1899    2.2436    0.8023 C.ar    1  LIG1        0.0356
      8 H          -0.7812    2.9207    1.2882 H       1  LIG1        0.0637
      9 H          -1.9504    1.0318    0.2836 H       1  LIG1        0.0655
     10 O          -0.6968   -1.0571   -0.9653 O.3     1  LIG1       -0.4951
     11 C          -2.1004   -1.1976   -0.8991 C.3     1  LIG1        0.0788
     12 H          -2.3315   -2.1356   -1.3964 H       1  LIG1        0.0660
     13 H          -2.4388   -1.2381    0.1402 H       1  LIG1        0.0660
     14 H          -2.5993   -0.3748   -1.4183 H       1  LIG1        0.0660
     15 N           1.8073    3.3013    1.4565 N.pl3   1  LIG1       -0.3574
     16 H           2.7333    3.5705    1.1646 H       1  LIG1        0.1423
     17 H           1.2069    4.0738    1.6984 H       1  LIG1        0.1423
     18 C           3.3798    1.2009    0.1304 C.ar    1  LIG1        0.1541
     19 C           4.3205    0.2130    0.1207 C.ar    1  LIG1        0.0864
     20 C           5.6084    0.8706    0.0177 C.ar    1  LIG1        0.0865
     21 C           5.3537    2.2122   -0.0109 C.ar    1  LIG1        0.1555
     22 O           4.0114    2.4005    0.0481 O.2     1  LIG1       -0.4521
     23 C           4.1122   -1.1981    0.2073 C.1     1  LIG1       -0.0646
     24 C           3.9499   -2.3857    0.2765 C.1     1  LIG1       -0.1138
     25 H           3.8060   -3.4393    0.3430 H       1  LIG1        0.1232
     26 C           6.8753    0.2118   -0.0455 C.1     1  LIG1       -0.0646
     27 C           7.9347   -0.3536   -0.0971 C.1     1  LIG1       -0.1138
     28 H           8.8721   -0.8589   -0.1475 H       1  LIG1        0.1232
     29 C           5.7387    4.6816   -0.4622 C.ar    1  LIG1        0.1277
     30 C           6.2098    3.3969   -0.0605 C.ar    1  LIG1        0.0593
     31 C           7.5464    3.3035    0.2910 C.ar    1  LIG1       -0.0282
     32 C           8.3800    4.4187    0.2344 C.ar    1  LIG1        0.0799
     33 C           7.8345    5.6467   -0.1763 C.ar    1  LIG1        0.1065
     34 N           6.5450    5.7402   -0.5066 N.ar    1  LIG1       -0.2290
     35 H           7.9522    2.3537    0.6136 H       1  LIG1        0.0639
     36 N           4.4455    4.9163   -0.8027 N.pl3   1  LIG1       -0.3426
     37 H           4.2593    5.8188   -1.2097 H       1  LIG1        0.1437
     38 H           3.8197    4.1513   -0.9952 H       1  LIG1        0.1437
     39 N          10.8627    4.1097    0.8969 N.1     1  LIG1       -0.1908
     40 C           9.7641    4.2676    0.6016 C.1     1  LIG1        0.1014
     41 C           8.5923    6.8935   -0.2794 C.ar    1  LIG1        0.0665
     42 C           9.9141    7.2518   -0.0623 C.ar    1  LIG1       -0.0320
     43 C          10.0288    8.6370   -0.3424 C.ar    1  LIG1       -0.0325
     44 C           8.7711    9.0696   -0.7191 C.ar    1  LIG1        0.0051
     45 N           7.9224    8.0159   -0.6768 N.ar    1  LIG1       -0.3592
     46 H           6.9371    7.9913   -0.8939 H       1  LIG1        0.1654
     47 H           8.4373   10.0513   -1.0106 H       1  LIG1        0.0809
     48 H          10.7097    6.6005    0.2586 H       1  LIG1        0.0642
     49 C          11.2790    9.4777   -0.2494 C.3     1  LIG1       -0.0383
     50 H          11.0631   10.5081   -0.5318 H       1  LIG1        0.0278
     51 H          12.0514    9.0915   -0.9156 H       1  LIG1        0.0278
     52 H          11.6706    9.4735    0.7684 H       1  LIG1        0.0278
@<TRIPOS>BOND
     1    14    11    1
     2    12    11    1
     3    37    36    1
     4    47    44    1
     5    38    36    1
     6    10    11    1
     7    10     1    1
     8    51    49    1
     9    11    13    1
    10    46    45    1
    11     5     2    1
    12    36    29    1
    13    44    45   ar
    14    44    43   ar
    15    45    41   ar
    16    50    49    1
    17    34    29   ar
    18    34    33   ar
    19    29    30   ar
    20     2     1   ar
    21     2     4   ar
    22     1     3   ar
    23    43    49    1
    24    43    42   ar
    25    41    33    1
    26    41    42   ar
    27    49    52    1
    28    33    32   ar
    29    28    27    1
    30    27    26    3
    31    42    48    1
    32    30    21    1
    33    30    31   ar
    34    26    20    1
    35    21    20   ar
    36    21    22   ar
    37    20    19   ar
    38    22    18   ar
    39    19    18   ar
    40    19    23    1
    41    18     4    1
    42     4     7   ar
    43    23    24    3
    44    32    31   ar
    45    32    40    1
    46     3     9    1
    47     3     6   ar
    48    24    25    1
    49    31    35    1
    50    40    39    3
    51     7     6   ar
    52     7    15    1
    53     6     8    1
    54    16    15    1
    55    15    17    1
