@<TRIPOS>MOLECULE
mol_data/opt/m06hf/geoms/mol2/4li.out
 19 19 0 0 0
SMALL
GASTEIGER

@<TRIPOS>ATOM
      1 C          -0.0075    0.1021   -0.0215 C.ar    1  LIG1        0.1201
      2 C           1.3899    0.0378   -0.0769 C.ar    1  LIG1       -0.0197
      3 C          -0.6370    1.3410    0.0435 C.ar    1  LIG1       -0.0197
      4 C           2.1374    1.2016   -0.0669 C.ar    1  LIG1       -0.0554
      5 H           1.8541   -0.9377   -0.1269 H       1  LIG1        0.0654
      6 C           0.1390    2.5042    0.0525 C.ar    1  LIG1       -0.0554
      7 C           1.5257    2.4608   -0.0019 C.ar    1  LIG1       -0.0502
      8 H          -0.3619    3.4636    0.1033 H       1  LIG1        0.0621
      9 H           3.2189    1.1373   -0.1102 H       1  LIG1        0.0621
     10 H          -1.7139    1.4227    0.0873 H       1  LIG1        0.0654
     11 O          -0.6582   -1.0917   -0.0362 O.3     1  LIG1       -0.4951
     12 C          -2.0699   -1.0751    0.0183 C.3     1  LIG1        0.0788
     13 H          -2.3819   -2.1157   -0.0042 H       1  LIG1        0.0660
     14 H          -2.4173   -0.6056    0.9429 H       1  LIG1        0.0660
     15 H          -2.4856   -0.5465   -0.8440 H       1  LIG1        0.0660
     16 C           2.3663    3.7250    0.0078 C.3     1  LIG1       -0.0397
     17 H           1.7306    4.6083    0.0628 H       1  LIG1        0.0278
     18 H           2.9695    3.7892   -0.8991 H       1  LIG1        0.0278
     19 H           3.0390    3.7293    0.8669 H       1  LIG1        0.0278
@<TRIPOS>BOND
     1    18    16    1
     2    15    12    1
     3     5     2    1
     4     9     4    1
     5     2     4   ar
     6     2     1   ar
     7     4     7   ar
     8    11     1    1
     9    11    12    1
    10     1     3   ar
    11    13    12    1
    12     7    16    1
    13     7     6   ar
    14    16    17    1
    15    16    19    1
    16    12    14    1
    17     3     6   ar
    18     3    10    1
    19     6     8    1
