@<TRIPOS>MOLECULE
mol_data/opt/m06hf/geoms/mol2/4li12ll12fl13ia.out
 57 60 0 0 0
SMALL
GASTEIGER

@<TRIPOS>ATOM
      1 C          -0.3388   -0.1393   -0.5876 C.ar    1  LIG1        0.1208
      2 C           1.0383   -0.0436   -0.3880 C.ar    1  LIG1       -0.0089
      3 C          -1.1198    1.0119   -0.5700 C.ar    1  LIG1       -0.0197
      4 C           1.6388    1.1923   -0.1614 C.ar    1  LIG1        0.0274
      5 H           1.6303   -0.9486   -0.4140 H       1  LIG1        0.0661
      6 C          -0.5013    2.2418   -0.3411 C.ar    1  LIG1       -0.0547
      7 C           0.8657    2.3732   -0.1297 C.ar    1  LIG1       -0.0395
      8 H          -1.1168    3.1333   -0.3205 H       1  LIG1        0.0622
      9 H          -2.1886    0.9738   -0.7247 H       1  LIG1        0.0654
     10 O          -0.8221   -1.3926   -0.7977 O.3     1  LIG1       -0.4951
     11 C          -2.2089   -1.5342   -1.0246 C.3     1  LIG1        0.0788
     12 H          -2.3809   -2.5972   -1.1720 H       1  LIG1        0.0660
     13 H          -2.7817   -1.1847   -0.1612 H       1  LIG1        0.0660
     14 H          -2.5141   -0.9841   -1.9190 H       1  LIG1        0.0660
     15 C           1.4506    3.7515    0.1353 C.3     1  LIG1       -0.0390
     16 H           0.6372    4.4674    0.2520 H       1  LIG1        0.0278
     17 H           2.0908    4.0664   -0.6894 H       1  LIG1        0.0278
     18 H           2.0559    3.7509    1.0421 H       1  LIG1        0.0278
     19 C           3.0933    1.1968    0.0594 C.ar    1  LIG1        0.1814
     20 C           3.9601    0.2129    0.4396 C.ar    1  LIG1        0.2086
     21 C           5.2624    0.8172    0.5308 C.ar    1  LIG1        0.2118
     22 C           5.0960    2.1150    0.1629 C.ar    1  LIG1        0.2195
     23 O           3.7936    2.3457   -0.1204 O.2     1  LIG1       -0.4440
     24 O           3.6821   -1.0917    0.7062 O.3     1  LIG1       -0.4884
     25 C           3.7563   -1.3927    2.1042 C.3     1  LIG1        0.0791
     26 H           3.5689   -2.4594    2.1972 H       1  LIG1        0.0660
     27 H           4.7487   -1.1424    2.4826 H       1  LIG1        0.0660
     28 H           2.9929   -0.8246    2.6391 H       1  LIG1        0.0660
     29 O           6.4018    0.2201    0.9546 O.3     1  LIG1       -0.4883
     30 C           6.9044   -0.7514    0.0317 C.3     1  LIG1        0.0791
     31 H           7.7761   -1.1938    0.5072 H       1  LIG1        0.0660
     32 H           6.1443   -1.5120   -0.1559 H       1  LIG1        0.0660
     33 H           7.1913   -0.2544   -0.8946 H       1  LIG1        0.0660
     34 C           6.0407    3.1997    0.0199 C.ar    1  LIG1        0.2194
     35 C           7.3639    3.2175   -0.2839 C.ar    1  LIG1        0.2093
     36 C           7.7628    4.5952   -0.2702 C.ar    1  LIG1        0.2099
     37 C           6.6552    5.3230    0.0486 C.ar    1  LIG1        0.1973
     38 O           5.6093    4.4778    0.2194 O.2     1  LIG1       -0.4425
     39 O           8.1734    2.1803   -0.5902 O.3     1  LIG1       -0.5007
     40 H           9.0621    2.5358   -0.7245 H       1  LIG1        0.2924
     41 O           9.0343    4.9793   -0.5740 O.3     1  LIG1       -0.4884
     42 C           9.1236    5.7942   -1.7491 C.3     1  LIG1        0.0791
     43 H          10.1775    6.0289   -1.8744 H       1  LIG1        0.0660
     44 H           8.7487    5.2386   -2.6104 H       1  LIG1        0.0660
     45 H           8.5447    6.7086   -1.6124 H       1  LIG1        0.0660
     46 C           6.3757    6.7456    0.1832 C.ar    1  LIG1        0.0889
     47 C           7.1717    7.8161    0.5459 C.ar    1  LIG1       -0.0221
     48 C           6.3363    8.9690    0.4865 C.ar    1  LIG1       -0.0408
     49 C           5.0793    8.5599    0.1084 C.ar    1  LIG1        0.0025
     50 N           5.1145    7.2127   -0.0736 N.ar    1  LIG1       -0.3580
     51 H           4.3435    6.6211   -0.3419 H       1  LIG1        0.1654
     52 H           4.1720    9.1192   -0.0412 H       1  LIG1        0.0807
     53 C           8.6170    7.7748    0.9815 C.3     1  LIG1       -0.0376
     54 H           8.7133    8.1954    1.9833 H       1  LIG1        0.0278
     55 H           9.2398    8.3650    0.3054 H       1  LIG1        0.0278
     56 H           8.9898    6.7508    0.9921 H       1  LIG1        0.0278
     57 H           6.6334    9.9796    0.7133 H       1  LIG1        0.0635
@<TRIPOS>BOND
     1    44    42    1
     2    14    11    1
     3    43    42    1
     4    42    45    1
     5    42    41    1
     6    12    11    1
     7    11    10    1
     8    11    13    1
     9    33    30    1
    10    10     1    1
    11     9     3    1
    12    40    39    1
    13    17    15    1
    14    39    35    1
    15     1     3   ar
    16     1     2   ar
    17    41    36    1
    18     3     6   ar
    19     5     2    1
    20     2     4   ar
    21    51    50    1
    22     6     8    1
    23     6     7   ar
    24    35    36   ar
    25    35    34   ar
    26    36    37   ar
    27     4     7   ar
    28     4    19    1
    29    32    30    1
    30     7    15    1
    31    23    19   ar
    32    23    22   ar
    33    50    49   ar
    34    50    46   ar
    35    52    49    1
    36    34    22    1
    37    34    38   ar
    38    30    31    1
    39    30    29    1
    40    37    46    1
    41    37    38   ar
    42    19    20   ar
    43    49    48   ar
    44    15    16    1
    45    15    18    1
    46    22    21   ar
    47    46    47   ar
    48    55    53    1
    49    20    21   ar
    50    20    24    1
    51    48    47   ar
    52    48    57    1
    53    21    29    1
    54    47    53    1
    55    24    25    1
    56    53    56    1
    57    53    54    1
    58    25    26    1
    59    25    27    1
    60    25    28    1
