@<TRIPOS>MOLECULE
mol_data/opt/m06hf/geoms/mol2/4li4dd-13hi-12ed-.out
 54 57 0 0 0
SMALL
GASTEIGER

@<TRIPOS>ATOM
      1 C          -0.1028    0.5807   -1.1038 C.ar    1  LIG1        0.1207
      2 C           1.2890    0.6568   -1.0173 C.ar    1  LIG1       -0.0120
      3 C          -0.8801    1.0508   -0.0487 C.ar    1  LIG1       -0.0197
      4 C           1.8953    1.1900    0.1131 C.ar    1  LIG1       -0.0103
      5 H           1.8777    0.2757   -1.8414 H       1  LIG1        0.0660
      6 C          -0.2529    1.5957    1.0715 C.ar    1  LIG1       -0.0548
      7 C           1.1305    1.6815    1.1854 C.ar    1  LIG1       -0.0425
      8 H          -0.8677    1.9711    1.8807 H       1  LIG1        0.0622
      9 H          -1.9594    1.0076   -0.0842 H       1  LIG1        0.0654
     10 O          -0.5985    0.0379   -2.2440 O.3     1  LIG1       -0.4951
     11 C          -2.0001   -0.1262   -2.3436 C.3     1  LIG1        0.0788
     12 H          -2.1769   -0.5970   -3.3066 H       1  LIG1        0.0660
     13 H          -2.3700   -0.7706   -1.5422 H       1  LIG1        0.0660
     14 H          -2.5075    0.8413   -2.3080 H       1  LIG1        0.0660
     15 C           1.7645    2.2986    2.4197 C.3     1  LIG1       -0.0391
     16 H           1.0573    2.9785    2.8941 H       1  LIG1        0.0278
     17 H           2.6615    2.8603    2.1562 H       1  LIG1        0.0278
     18 H           2.0372    1.5247    3.1400 H       1  LIG1        0.0278
     19 C           4.1501    0.4677    1.0342 C.ar    1  LIG1        0.0602
     20 C           5.5395    0.5040    1.0513 C.ar    1  LIG1       -0.0333
     21 C           3.3895    1.2420    0.1430 C.ar    1  LIG1        0.0011
     22 C           6.2448    1.3183    0.1546 C.ar    1  LIG1        0.0187
     23 H           6.0936   -0.1004    1.7588 H       1  LIG1        0.0637
     24 C           4.0846    2.0554   -0.7422 C.ar    1  LIG1       -0.0347
     25 C           5.4816    2.0912   -0.7380 C.ar    1  LIG1        0.0616
     26 H           3.5370    2.6705   -1.4441 H       1  LIG1        0.0637
     27 N           2.9618   -1.1072    2.7263 N.1     1  LIG1       -0.1908
     28 C           3.4768   -0.4133    1.9715 C.1     1  LIG1        0.0998
     29 N           6.6294    3.6820   -2.4408 N.1     1  LIG1       -0.1908
     30 C           6.1213    2.9683   -1.6981 C.1     1  LIG1        0.0998
     31 C           7.7135    1.3212    0.2109 C.ar    1  LIG1        0.0695
     32 C           8.5637    0.3384    0.7077 C.ar    1  LIG1        0.0539
     33 C           9.8959    0.8168    0.6172 C.ar    1  LIG1       -0.0009
     34 C           9.8084    2.0734    0.0423 C.ar    1  LIG1        0.0885
     35 N           8.5029    2.3615   -0.1991 N.ar    1  LIG1       -0.3500
     36 H           8.1830    3.2113   -0.6421 H       1  LIG1        0.1661
     37 N           8.1594   -0.9060    1.2441 N.pl3   1  LIG1       -0.3561
     38 H           7.6900   -1.4855    0.5539 H       1  LIG1        0.1424
     39 H           8.9446   -1.4197    1.6261 H       1  LIG1        0.1424
     40 C          11.1295    0.1063    1.1135 C.3     1  LIG1       -0.0358
     41 H          11.9575    0.8078    1.2033 H       1  LIG1        0.0279
     42 H          11.4313   -0.6868    0.4273 H       1  LIG1        0.0279
     43 H          10.9423   -0.3259    2.0987 H       1  LIG1        0.0279
     44 C          10.8455    3.0341   -0.3023 C.ar    1  LIG1        0.1678
     45 C          12.1101    2.9098   -0.8029 C.ar    1  LIG1        0.0892
     46 C          12.6061    4.2644   -0.9255 C.ar    1  LIG1        0.1054
     47 C          11.6036    5.0794   -0.5170 C.ar    1  LIG1        0.1112
     48 O          10.5469    4.3459   -0.1393 O.2     1  LIG1       -0.4589
     49 H          11.5181    6.1496   -0.4479 H       1  LIG1        0.1043
     50 C          12.7918    1.7207   -1.2050 C.1     1  LIG1       -0.0645
     51 C          13.3864    0.7417   -1.5654 C.1     1  LIG1       -0.1138
     52 H          13.9178   -0.1200   -1.8978 H       1  LIG1        0.1232
     53 N          14.9292    4.9864   -1.7862 N.1     1  LIG1       -0.1907
     54 C          13.8960    4.6668   -1.4047 C.1     1  LIG1        0.1036
@<TRIPOS>BOND
     1    12    11    1
     2    29    30    3
     3    11    14    1
     4    11    10    1
     5    11    13    1
     6    10     1    1
     7    52    51    1
     8     5     2    1
     9    53    54    3
    10    30    25    1
    11    51    50    3
    12    26    24    1
    13    54    46    1
    14    50    45    1
    15     1     2   ar
    16     1     3   ar
    17     2     4   ar
    18    46    45   ar
    19    46    47   ar
    20    45    44   ar
    21    24    25   ar
    22    24    21   ar
    23    25    22   ar
    24    36    35    1
    25    47    49    1
    26    47    48   ar
    27    44    48   ar
    28    44    34    1
    29    35    34   ar
    30    35    31   ar
    31     9     3    1
    32     3     6   ar
    33    34    33   ar
    34     4    21    1
    35     4     7   ar
    36    21    19   ar
    37    22    31    1
    38    22    20   ar
    39    31    32   ar
    40    42    40    1
    41    38    37    1
    42    33    32   ar
    43    33    40    1
    44    32    37    1
    45    19    20   ar
    46    19    28    1
    47    20    23    1
    48     6     7   ar
    49     6     8    1
    50    40    41    1
    51    40    43    1
    52     7    15    1
    53    37    39    1
    54    28    27    3
    55    17    15    1
    56    15    16    1
    57    15    18    1
