@<TRIPOS>MOLECULE
mol_data/opt/m06hf/geoms/mol2/4li4li-4li-4li-.out
 70 73 0 0 0
SMALL
GASTEIGER

@<TRIPOS>ATOM
      1 C          -0.1724    0.2319    0.1204 C.ar    1  LIG1        0.1207
      2 C           1.2249    0.2211    0.0813 C.ar    1  LIG1       -0.0119
      3 C          -0.8500    1.4457    0.1204 C.ar    1  LIG1       -0.0197
      4 C           1.9430    1.4078    0.0409 C.ar    1  LIG1       -0.0080
      5 H           1.7334   -0.7339    0.0714 H       1  LIG1        0.0660
      6 C          -0.1136    2.6331    0.0904 C.ar    1  LIG1       -0.0548
      7 C           1.2742    2.6473    0.0529 C.ar    1  LIG1       -0.0424
      8 H          -0.6481    3.5755    0.1055 H       1  LIG1        0.0622
      9 H          -1.9297    1.4893    0.1508 H       1  LIG1        0.0654
     10 O          -0.7767   -0.9875    0.1592 O.3     1  LIG1       -0.4951
     11 C          -2.1881   -1.0177    0.1842 C.3     1  LIG1        0.0788
     12 H          -2.4651   -2.0684    0.2066 H       1  LIG1        0.0660
     13 H          -2.5731   -0.5161    1.0759 H       1  LIG1        0.0660
     14 H          -2.6020   -0.5468   -0.7117 H       1  LIG1        0.0660
     15 C           2.0400    3.9562    0.0466 C.3     1  LIG1       -0.0391
     16 H           1.3699    4.7848    0.2760 H       1  LIG1        0.0278
     17 H           2.4896    4.1183   -0.9346 H       1  LIG1        0.0278
     18 H           2.8407    3.9315    0.7878 H       1  LIG1        0.0278
     19 C           4.1874    1.8103   -1.0507 C.ar    1  LIG1        0.1284
     20 C           5.5744    1.7428   -1.0192 C.ar    1  LIG1       -0.0113
     21 C           3.4380    1.3372    0.0393 C.ar    1  LIG1        0.0244
     22 C           6.2356    1.1898    0.0842 C.ar    1  LIG1       -0.0080
     23 H           6.1721    2.1081   -1.8426 H       1  LIG1        0.0660
     24 C           4.1159    0.7963    1.1242 C.ar    1  LIG1       -0.0470
     25 C           5.5115    0.7107    1.1776 C.ar    1  LIG1       -0.0418
     26 H           3.5291    0.4471    1.9669 H       1  LIG1        0.0628
     27 O           3.4810    2.3090   -2.1005 O.3     1  LIG1       -0.4945
     28 C           4.2043    2.8956   -3.1637 C.3     1  LIG1        0.0788
     29 H           3.4574    3.2758   -3.8559 H       1  LIG1        0.0660
     30 H           4.8278    3.7168   -2.7987 H       1  LIG1        0.0660
     31 H           4.8280    2.1524   -3.6665 H       1  LIG1        0.0660
     32 C           6.1855    0.1327    2.4112 C.3     1  LIG1       -0.0391
     33 H           7.1434    0.6201    2.5900 H       1  LIG1        0.0278
     34 H           6.3659   -0.9381    2.2938 H       1  LIG1        0.0278
     35 H           5.5441    0.2763    3.2810 H       1  LIG1        0.0278
     36 C           8.5164    2.2662    0.0065 C.ar    1  LIG1        0.1284
     37 C           9.9034    2.1617   -0.0205 C.ar    1  LIG1       -0.0113
     38 C           7.7295    1.1035    0.0481 C.ar    1  LIG1        0.0244
     39 C          10.5217    0.9077   -0.0183 C.ar    1  LIG1       -0.0080
     40 H          10.5321    3.0411   -0.0390 H       1  LIG1        0.0660
     41 C           8.3684   -0.1304    0.0591 C.ar    1  LIG1       -0.0470
     42 C           9.7597   -0.2615    0.0271 C.ar    1  LIG1       -0.0418
     43 H           7.7523   -1.0228    0.0889 H       1  LIG1        0.0628
     44 O           7.8511    3.4520   -0.0034 O.3     1  LIG1       -0.4945
     45 C           8.6177    4.6387    0.0272 C.3     1  LIG1        0.0788
     46 H           7.9004    5.4546    0.0534 H       1  LIG1        0.0660
     47 H           9.2469    4.6692    0.9206 H       1  LIG1        0.0660
     48 H           9.2413    4.7228   -0.8669 H       1  LIG1        0.0660
     49 C          10.3975   -1.6404    0.0554 C.3     1  LIG1       -0.0391
     50 H          11.3056   -1.6295    0.6582 H       1  LIG1        0.0278
     51 H          10.6641   -1.9718   -0.9503 H       1  LIG1        0.0278
     52 H           9.6981   -2.3616    0.4783 H       1  LIG1        0.0278
     53 C          12.8133    1.3053    0.9635 C.ar    1  LIG1        0.1278
     54 C          14.2003    1.2258    0.8723 C.ar    1  LIG1       -0.0191
     55 C          12.0157    0.8444   -0.0995 C.ar    1  LIG1        0.0244
     56 C          14.7922    0.6954   -0.2757 C.ar    1  LIG1       -0.0553
     57 H          14.8298    1.5692    1.6811 H       1  LIG1        0.0654
     58 C          12.6366    0.3257   -1.2284 C.ar    1  LIG1       -0.0476
     59 C          14.0283    0.2412   -1.3426 C.ar    1  LIG1       -0.0496
     60 H          12.0093   -0.0157   -2.0456 H       1  LIG1        0.0627
     61 H          15.8732    0.6410   -0.3294 H       1  LIG1        0.0621
     62 O          12.1542    1.8102    2.0388 O.3     1  LIG1       -0.4945
     63 C          12.9171    2.1910    3.1657 C.3     1  LIG1        0.0788
     64 H          12.1991    2.5193    3.9126 H       1  LIG1        0.0660
     65 H          13.4893    1.3428    3.5496 H       1  LIG1        0.0660
     66 H          13.5936    3.0140    2.9189 H       1  LIG1        0.0660
     67 C          14.6639   -0.3244   -2.5996 C.3     1  LIG1       -0.0397
     68 H          15.7459   -0.3888   -2.4861 H       1  LIG1        0.0278
     69 H          14.4427    0.3118   -3.4585 H       1  LIG1        0.0278
     70 H          14.2772   -1.3234   -2.8063 H       1  LIG1        0.0278
@<TRIPOS>BOND
     1    29    28    1
     2    31    28    1
     3    69    67    1
     4    28    30    1
     5    28    27    1
     6    70    67    1
     7    67    68    1
     8    67    59    1
     9    27    19    1
    10    60    58    1
    11    23    20    1
    12    59    58   ar
    13    59    56   ar
    14    58    55   ar
    15    19    20   ar
    16    19    21   ar
    17    20    22   ar
    18    51    49    1
    19    17    15    1
    20    48    45    1
    21    14    11    1
    22    61    56    1
    23    56    54   ar
    24    55    39    1
    25    55    53   ar
    26    40    37    1
    27    37    39   ar
    28    37    36   ar
    29    39    42   ar
    30    44    36    1
    31    44    45    1
    32    36    38   ar
    33    42    49    1
    34    42    41   ar
    35    45    46    1
    36    45    47    1
    37    21     4    1
    38    21    24   ar
    39     4     7   ar
    40     4     2   ar
    41    15     7    1
    42    15    16    1
    43    15    18    1
    44    38    41   ar
    45    38    22    1
    46     7     6   ar
    47    49    52    1
    48    49    50    1
    49    41    43    1
    50     5     2    1
    51     2     1   ar
    52    22    25   ar
    53     6     8    1
    54     6     3   ar
    55     3     1   ar
    56     3     9    1
    57     1    10    1
    58    10    11    1
    59    11    12    1
    60    11    13    1
    61    54    53   ar
    62    54    57    1
    63    53    62    1
    64    24    25   ar
    65    24    26    1
    66    25    32    1
    67    62    63    1
    68    34    32    1
    69    32    33    1
    70    32    35    1
    71    66    63    1
    72    63    65    1
    73    63    64    1
