@<TRIPOS>MOLECULE
mol_data/opt/m06hf/geoms/mol2/4li4li-.out
 36 37 0 0 0
SMALL
GASTEIGER

@<TRIPOS>ATOM
      1 C          -0.0171    0.3559   -0.5181 C.ar    1  LIG1        0.1207
      2 C           1.3802    0.3468   -0.5626 C.ar    1  LIG1       -0.0119
      3 C          -0.6736    1.3299    0.2259 C.ar    1  LIG1       -0.0197
      4 C           2.1181    1.3012    0.1229 C.ar    1  LIG1       -0.0080
      5 H           1.8725   -0.4136   -1.1548 H       1  LIG1        0.0660
      6 C           0.0830    2.2778    0.9199 C.ar    1  LIG1       -0.0548
      7 C           1.4708    2.2896    0.8896 C.ar    1  LIG1       -0.0424
      8 H          -0.4364    3.0253    1.5081 H       1  LIG1        0.0622
      9 H          -1.7523    1.3649    0.2831 H       1  LIG1        0.0654
     10 O          -0.6415   -0.6214   -1.2301 O.3     1  LIG1       -0.4951
     11 C          -2.0535   -0.6369   -1.2234 C.3     1  LIG1        0.0788
     12 H          -2.3470   -1.4746   -1.8506 H       1  LIG1        0.0660
     13 H          -2.4360   -0.7838   -0.2097 H       1  LIG1        0.0660
     14 H          -2.4539    0.2922   -1.6379 H       1  LIG1        0.0660
     15 C           2.2583    3.3237    1.6709 C.3     1  LIG1       -0.0391
     16 H           1.6087    3.8310    2.3841 H       1  LIG1        0.0278
     17 H           2.6854    4.0599    0.9875 H       1  LIG1        0.0278
     18 H           3.0765    2.8480    2.2142 H       1  LIG1        0.0278
     19 C           4.3697    2.2453   -0.5292 C.ar    1  LIG1        0.1278
     20 C           5.7570    2.1516   -0.5635 C.ar    1  LIG1       -0.0191
     21 C           3.6121    1.2215    0.0686 C.ar    1  LIG1        0.0244
     22 C           6.3913    1.0337   -0.0158 C.ar    1  LIG1       -0.0553
     23 H           6.3545    2.9299   -1.0168 H       1  LIG1        0.0654
     24 C           4.2732    0.1207    0.5967 C.ar    1  LIG1       -0.0476
     25 C           5.6680    0.0027    0.5669 C.ar    1  LIG1       -0.0496
     26 H           3.6766   -0.6622    1.0531 H       1  LIG1        0.0627
     27 H           7.4725    0.9754   -0.0531 H       1  LIG1        0.0621
     28 O           3.6684    3.2827   -1.0568 O.3     1  LIG1       -0.4945
     29 C           4.3931    4.3541   -1.6254 C.3     1  LIG1        0.0788
     30 H           3.6484    5.0702   -1.9627 H       1  LIG1        0.0660
     31 H           5.0445    4.8194   -0.8798 H       1  LIG1        0.0660
     32 H           4.9877    4.0121   -2.4764 H       1  LIG1        0.0660
     33 C           6.3466   -1.2191    1.1590 C.3     1  LIG1       -0.0397
     34 H           7.4298   -1.1345    1.0761 H       1  LIG1        0.0278
     35 H           6.0293   -2.1224    0.6352 H       1  LIG1        0.0278
     36 H           6.0864   -1.3270    2.2131 H       1  LIG1        0.0278
@<TRIPOS>BOND
     1    32    29    1
     2    30    29    1
     3    12    11    1
     4    14    11    1
     5    29    28    1
     6    29    31    1
     7    10    11    1
     8    10     1    1
     9    11    13    1
    10     5     2    1
    11    28    19    1
    12    23    20    1
    13    20    19   ar
    14    20    22   ar
    15     2     1   ar
    16     2     4   ar
    17    19    21   ar
    18     1     3   ar
    19    27    22    1
    20    22    25   ar
    21    21     4    1
    22    21    24   ar
    23     4     7   ar
    24     3     9    1
    25     3     6   ar
    26    25    24   ar
    27    25    33    1
    28    24    26    1
    29    35    33    1
    30     7     6   ar
    31     7    15    1
    32     6     8    1
    33    17    15    1
    34    34    33    1
    35    33    36    1
    36    15    18    1
    37    15    16    1
