@<TRIPOS>MOLECULE
mol_data/opt/m06hf/geoms/mol2/4li6dd-4hi-6le-.out
 60 63 0 0 0
SMALL
GASTEIGER

@<TRIPOS>ATOM
      1 C          -0.1652    0.2028   -0.6066 C.ar    1  LIG1        0.1207
      2 C           1.2283    0.2757   -0.5946 C.ar    1  LIG1       -0.0119
      3 C          -0.9034    1.1330    0.1217 C.ar    1  LIG1       -0.0197
      4 C           1.8763    1.2682    0.1317 C.ar    1  LIG1       -0.0088
      5 H           1.7855   -0.4469   -1.1768 H       1  LIG1        0.0660
      6 C          -0.2344    2.1118    0.8549 C.ar    1  LIG1       -0.0548
      7 C           1.1534    2.2091    0.8846 C.ar    1  LIG1       -0.0424
      8 H          -0.8191    2.8206    1.4289 H       1  LIG1        0.0622
      9 H          -1.9839    1.1056    0.1345 H       1  LIG1        0.0654
     10 O          -0.7013   -0.7982   -1.3476 O.3     1  LIG1       -0.4951
     11 C          -2.1116   -0.8957   -1.4082 C.3     1  LIG1        0.0788
     12 H          -2.3234   -1.7450   -2.0517 H       1  LIG1        0.0660
     13 H          -2.5304   -1.0725   -0.4146 H       1  LIG1        0.0660
     14 H          -2.5432    0.0111   -1.8391 H       1  LIG1        0.0660
     15 C           1.8230    3.2887    1.7171 C.3     1  LIG1       -0.0391
     16 H           1.2019    3.5216    2.5818 H       1  LIG1        0.0278
     17 H           1.9552    4.1981    1.1285 H       1  LIG1        0.0278
     18 H           2.7996    2.9603    2.0744 H       1  LIG1        0.0278
     19 C           4.1159    2.3142   -0.4621 C.ar    1  LIG1        0.1485
     20 C           3.3700    1.2743    0.1013 C.ar    1  LIG1        0.0196
     21 C           4.1057    0.2131    0.6269 C.ar    1  LIG1       -0.0318
     22 C           5.4945    0.2420    0.5652 C.ar    1  LIG1        0.0784
     23 C           6.1456    1.3354   -0.0422 C.ar    1  LIG1        0.0916
     24 N           5.4438    2.3507   -0.5351 N.ar    1  LIG1       -0.2344
     25 H           3.5975   -0.6169    1.1006 H       1  LIG1        0.0638
     26 N           2.8751    4.3605   -1.4959 N.1     1  LIG1       -0.1893
     27 C           3.4238    3.4596   -1.0465 C.1     1  LIG1        0.1197
     28 N           6.7805   -1.6755    1.7460 N.1     1  LIG1       -0.1908
     29 C           6.2447   -0.8238    1.1962 C.1     1  LIG1        0.1013
     30 C           8.3819    0.4078   -0.7181 C.ar    1  LIG1        0.0345
     31 C           9.7755    0.5098   -0.6746 C.ar    1  LIG1       -0.0323
     32 C           7.6311    1.4220   -0.1112 C.ar    1  LIG1        0.0226
     33 C          10.4002    1.6016   -0.0819 C.ar    1  LIG1       -0.0081
     34 H          10.3824   -0.2617   -1.1340 H       1  LIG1        0.0642
     35 C           8.2673    2.5314    0.4463 C.ar    1  LIG1       -0.0473
     36 C           9.6513    2.6473    0.4820 C.ar    1  LIG1       -0.0418
     37 H           7.6499    3.3097    0.8794 H       1  LIG1        0.0627
     38 N           7.7514   -0.6802   -1.3246 N.pl3   1  LIG1       -0.3574
     39 H           6.9275   -0.4514   -1.8647 H       1  LIG1        0.1423
     40 H           8.3725   -1.2991   -1.8259 H       1  LIG1        0.1423
     41 C          10.3174    3.8476    1.1258 C.3     1  LIG1       -0.0391
     42 H           9.5875    4.4179    1.6994 H       1  LIG1        0.0278
     43 H          10.7500    4.4901    0.3568 H       1  LIG1        0.0278
     44 H          11.1168    3.5262    1.7958 H       1  LIG1        0.0278
     45 C          12.6516    2.5785   -0.7431 C.ar    1  LIG1        0.2224
     46 C          11.8935    1.6150   -0.0391 C.ar    1  LIG1        0.0451
     47 C          12.6013    0.6646    0.6699 C.ar    1  LIG1       -0.0320
     48 C          14.0066    0.6947    0.6822 C.ar    1  LIG1        0.0436
     49 C          14.6367    1.7007   -0.0391 C.ar    1  LIG1        0.0468
     50 N          13.9696    2.6206   -0.7384 N.ar    1  LIG1       -0.2196
     51 H          12.0714   -0.0995    1.2249 H       1  LIG1        0.0638
     52 H          15.7173    1.7650   -0.0558 H       1  LIG1        0.0843
     53 O          11.9766    3.4880   -1.4567 O.3     1  LIG1       -0.4792
     54 C          12.7463    4.4582   -2.1650 C.3     1  LIG1        0.0804
     55 H          12.0163    5.0841   -2.6699 H       1  LIG1        0.0660
     56 H          13.3480    5.0414   -1.4687 H       1  LIG1        0.0660
     57 H          13.4018    3.9654   -2.8816 H       1  LIG1        0.0660
     58 C          14.7725   -0.2790    1.4177 C.1     1  LIG1       -0.0681
     59 C          15.4043   -1.0935    2.0350 C.1     1  LIG1       -0.1139
     60 H          15.9615   -1.8165    2.5841 H       1  LIG1        0.1232
@<TRIPOS>BOND
     1    57    54    1
     2    55    54    1
     3    54    56    1
     4    54    53    1
     5    12    11    1
     6    39    38    1
     7    14    11    1
     8    40    38    1
     9    26    27    3
    10    53    45    1
    11    11    10    1
    12    11    13    1
    13    10     1    1
    14    38    30    1
    15     5     2    1
    16    34    31    1
    17    27    19    1
    18    45    50   ar
    19    45    46   ar
    20    50    49   ar
    21    30    31   ar
    22    30    32   ar
    23    31    33   ar
    24     1     2   ar
    25     1     3   ar
    26     2     4   ar
    27    24    19   ar
    28    24    23   ar
    29    19    20   ar
    30    32    23    1
    31    32    35   ar
    32    33    46    1
    33    33    36   ar
    34    52    49    1
    35    23    22   ar
    36    46    47   ar
    37    49    48   ar
    38    20     4    1
    39    20    21   ar
    40     3     9    1
    41     3     6   ar
    42     4     7   ar
    43    43    41    1
    44    35    36   ar
    45    35    37    1
    46    36    41    1
    47    22    21   ar
    48    22    29    1
    49    21    25    1
    50    47    48   ar
    51    47    51    1
    52    48    58    1
    53     6     7   ar
    54     6     8    1
    55     7    15    1
    56    41    42    1
    57    41    44    1
    58    17    15    1
    59    29    28    3
    60    58    59    3
    61    15    18    1
    62    15    16    1
    63    59    60    1
