@<TRIPOS>MOLECULE
mol_data/opt/m06hf/geoms/mol2/4ll.out
 20 20 0 0 0
SMALL
GASTEIGER

@<TRIPOS>ATOM
      1 C          -0.0077    0.0767    0.0002 C.ar    1  LIG1        0.1203
      2 C           1.3802   -0.0335   -0.0001 C.ar    1  LIG1       -0.0165
      3 C          -0.5945    1.3440    0.0001 C.ar    1  LIG1       -0.0165
      4 C           2.1870    1.0987   -0.0005 C.ar    1  LIG1       -0.0165
      5 H           1.8122   -1.0250    0.0001 H       1  LIG1        0.0655
      6 C           0.2123    2.4761   -0.0003 C.ar    1  LIG1       -0.0165
      7 C           1.6001    2.3660   -0.0006 C.ar    1  LIG1        0.1203
      8 H          -0.2197    3.4677   -0.0004 H       1  LIG1        0.0655
      9 H           3.2612    0.9792   -0.0007 H       1  LIG1        0.0655
     10 H          -1.6687    1.4635    0.0003 H       1  LIG1        0.0655
     11 O          -0.7056   -1.0943    0.0006 O.3     1  LIG1       -0.4951
     12 C          -2.1152   -1.0154    0.0009 C.3     1  LIG1        0.0788
     13 H          -2.4736   -2.0413    0.0012 H       1  LIG1        0.0660
     14 H          -2.4760   -0.4998    0.8954 H       1  LIG1        0.0660
     15 H          -2.4764   -0.5002   -0.8937 H       1  LIG1        0.0660
     16 O           2.2981    3.5370   -0.0010 O.3     1  LIG1       -0.4951
     17 C           3.7077    3.4580   -0.0013 C.3     1  LIG1        0.0788
     18 H           4.0661    4.4839   -0.0016 H       1  LIG1        0.0660
     19 H           4.0689    2.9428    0.8933 H       1  LIG1        0.0660
     20 H           4.0685    2.9424   -0.8958 H       1  LIG1        0.0660
@<TRIPOS>BOND
     1    20    17    1
     2    15    12    1
     3    18    17    1
     4    17    16    1
     5    17    19    1
     6    16     7    1
     7     9     4    1
     8     7     4   ar
     9     7     6   ar
    10     4     2   ar
    11     8     6    1
    12     6     3   ar
    13     2     5    1
    14     2     1   ar
    15     3     1   ar
    16     3    10    1
    17     1    11    1
    18    11    12    1
    19    12    13    1
    20    12    14    1
