@<TRIPOS>MOLECULE
mol_data/opt/m06hf/geoms/mol2/4ll12lf-12ae4dd-12fe-12hf-4ai13ii-.out
 100 107 0 0 0
SMALL
GASTEIGER

@<TRIPOS>ATOM
      1 C           1.3943   -1.8184    2.1728 C.ar    1  LIG1        0.1210
      2 C           2.3245   -1.3165    1.2630 C.ar    1  LIG1       -0.0056
      3 C           1.0401   -1.0707    3.2943 C.ar    1  LIG1       -0.0165
      4 C           2.9229   -0.0731    1.4628 C.ar    1  LIG1        0.0661
      5 H           2.5643   -1.9060    0.3889 H       1  LIG1        0.0662
      6 C           1.6374    0.1728    3.4908 C.ar    1  LIG1       -0.0158
      7 C           2.5699    0.6790    2.5989 C.ar    1  LIG1        0.1311
      8 H           1.3782    0.7839    4.3455 H       1  LIG1        0.0655
      9 H           0.3132   -1.4315    4.0079 H       1  LIG1        0.0655
     10 O           0.8811   -3.0421    1.8752 O.3     1  LIG1       -0.4951
     11 C          -0.0902   -3.5821    2.7478 C.3     1  LIG1        0.0788
     12 H          -0.3683   -4.5440    2.3253 H       1  LIG1        0.0660
     13 H           0.3239   -3.7254    3.7495 H       1  LIG1        0.0660
     14 H          -0.9691   -2.9341    2.7996 H       1  LIG1        0.0660
     15 O           3.0989    1.9192    2.8407 O.3     1  LIG1       -0.4944
     16 C           4.3682    1.8945    3.4862 C.3     1  LIG1        0.0788
     17 H           4.6910    2.9299    3.5630 H       1  LIG1        0.0660
     18 H           4.2732    1.4521    4.4808 H       1  LIG1        0.0660
     19 H           5.0894    1.3270    2.8948 H       1  LIG1        0.0660
     20 C           3.9067    0.3970    0.4738 C.ar    1  LIG1        0.1847
     21 C           4.5105   -0.2561   -0.5675 C.ar    1  LIG1        0.2085
     22 C           5.3930    0.6902   -1.1850 C.ar    1  LIG1        0.2092
     23 C           5.2616    1.8413   -0.4730 C.ar    1  LIG1        0.2156
     24 O           4.3559    1.6725    0.5157 O.2     1  LIG1       -0.4440
     25 O           4.3188   -1.5350   -0.9753 O.3     1  LIG1       -0.4884
     26 C           5.4508   -2.3771   -0.7381 C.3     1  LIG1        0.0791
     27 H           5.1898   -3.3534   -1.1375 H       1  LIG1        0.0660
     28 H           6.3253   -1.9789   -1.2543 H       1  LIG1        0.0660
     29 H           5.6402   -2.4432    0.3351 H       1  LIG1        0.0660
     30 O           6.1755    0.4240   -2.2585 O.3     1  LIG1       -0.5007
     31 H           6.3817    1.2461   -2.7226 H       1  LIG1        0.2924
     32 C           5.9356    3.1134   -0.6457 C.ar    1  LIG1        0.1756
     33 C           7.1751    3.4068   -1.1252 C.ar    1  LIG1        0.0034
     34 C           7.2639    4.8438   -1.1307 C.ar    1  LIG1        0.0711
     35 C           6.0753    5.2946   -0.6235 C.ar    1  LIG1        0.1524
     36 O           5.2679    4.2483   -0.3496 O.2     1  LIG1       -0.4503
     37 H           7.9497    2.7119   -1.4027 H       1  LIG1        0.0669
     38 C           8.3481    5.6328   -1.6304 C.1     1  LIG1       -0.0658
     39 C           9.2607    6.2847   -2.0603 C.1     1  LIG1       -0.1138
     40 H          10.0717    6.8732   -2.4229 H       1  LIG1        0.1232
     41 C           6.2423    7.6912    0.1570 C.ar    1  LIG1        0.0632
     42 C           5.6809    8.9522    0.3143 C.ar    1  LIG1       -0.0316
     43 C           5.5110    6.6329   -0.4054 C.ar    1  LIG1        0.0371
     44 C           4.3570    9.2028   -0.0693 C.ar    1  LIG1        0.0396
     45 H           6.2683    9.7459    0.7552 H       1  LIG1        0.0638
     46 C           4.1863    6.8707   -0.7596 C.ar    1  LIG1       -0.0317
     47 C           3.6127    8.1315   -0.6001 C.ar    1  LIG1        0.0633
     48 H           3.5927    6.0672   -1.1746 H       1  LIG1        0.0638
     49 N           8.6288    7.3853    1.1315 N.1     1  LIG1       -0.1908
     50 C           7.5821    7.4925    0.6745 C.1     1  LIG1        0.0999
     51 N           1.1523    8.2661   -1.4165 N.1     1  LIG1       -0.1908
     52 C           2.2344    8.2592   -1.0360 C.1     1  LIG1        0.0999
     53 C           3.8227   10.5412    0.1101 C.ar    1  LIG1        0.1795
     54 C           4.3893   11.7095    0.5289 C.ar    1  LIG1        0.1792
     55 C           3.3615   12.7112    0.5149 C.ar    1  LIG1        0.1156
     56 C           2.2260   12.0649    0.0745 C.ar    1  LIG1        0.1915
     57 O           2.5088   10.7799   -0.1615 O.2     1  LIG1       -0.4466
     58 O           5.6697   11.9033    0.8982 O.3     1  LIG1       -0.5024
     59 H           5.7973   12.8293    1.1444 H       1  LIG1        0.2923
     60 C           3.5822   14.0555    0.9376 C.1     1  LIG1       -0.0621
     61 C           3.8569   15.1671    1.3130 C.1     1  LIG1       -0.1137
     62 H           4.0780   16.1487    1.6669 H       1  LIG1        0.1232
     63 C           0.8760   12.4753   -0.1916 C.ar    1  LIG1        0.1962
     64 C           0.2541   13.6946   -0.3141 C.ar    1  LIG1        0.1169
     65 C          -1.1012   13.3766   -0.6651 C.ar    1  LIG1        0.1846
     66 C          -1.2051   12.0190   -0.7238 C.ar    1  LIG1        0.1789
     67 O          -0.0099   11.4701   -0.4467 O.2     1  LIG1       -0.4460
     68 N           0.6987   14.9779   -0.1475 N.pl3   1  LIG1       -0.3521
     69 H           1.6926   15.1461   -0.1501 H       1  LIG1        0.1425
     70 H           0.1185   15.6816   -0.5794 H       1  LIG1        0.1425
     71 O          -2.0333   14.3435   -0.9150 O.3     1  LIG1       -0.5020
     72 H          -2.5463   14.1012   -1.6961 H       1  LIG1        0.2924
     73 C          -3.6371   11.5768   -0.9689 C.ar    1  LIG1       -0.0503
     74 C          -4.6698   10.7267   -1.3405 C.ar    1  LIG1       -0.0517
     75 C          -2.3168   11.1308   -1.0742 C.ar    1  LIG1        0.0213
     76 C          -4.4088    9.4299   -1.7948 C.ar    1  LIG1        0.0015
     77 H          -5.6988   11.0591   -1.2829 H       1  LIG1        0.0624
     78 C          -2.0472    9.8319   -1.5126 C.ar    1  LIG1       -0.0474
     79 C          -3.0812    8.9686   -1.8658 C.ar    1  LIG1       -0.0407
     80 H          -1.0199    9.4861   -1.5575 H       1  LIG1        0.0627
     81 H          -3.8505   12.5632   -0.5756 H       1  LIG1        0.0625
     82 C          -2.7468    7.5473   -2.2868 C.3     1  LIG1       -0.0391
     83 H          -1.7675    7.2746   -1.8957 H       1  LIG1        0.0278
     84 H          -2.7087    7.4577   -3.3756 H       1  LIG1        0.0278
     85 H          -3.5005    6.8546   -1.9117 H       1  LIG1        0.0278
     86 C          -5.5516    8.5628   -2.1640 C.ar    1  LIG1        0.0499
     87 C          -6.6823    8.2196   -1.4513 C.ar    1  LIG1       -0.0223
     88 C          -7.4673    7.3681   -2.2912 C.ar    1  LIG1       -0.0297
     89 C          -6.7841    7.2310   -3.4745 C.ar    1  LIG1        0.0053
     90 N          -5.6268    7.9478   -3.3862 N.ar    1  LIG1       -0.3602
     91 H          -4.9553    8.0726   -4.1256 H       1  LIG1        0.1654
     92 H          -7.0369    6.6805   -4.3650 H       1  LIG1        0.0810
     93 C          -7.0233    8.6194   -0.0371 C.3     1  LIG1       -0.0375
     94 H          -7.2975    7.7392    0.5478 H       1  LIG1        0.0278
     95 H          -7.8680    9.3125   -0.0174 H       1  LIG1        0.0278
     96 H          -6.1687    9.0983    0.4408 H       1  LIG1        0.0278
     97 C          -8.7896    6.7387   -1.9307 C.3     1  LIG1       -0.0380
     98 H          -9.1774    6.1645   -2.7725 H       1  LIG1        0.0278
     99 H          -9.5234    7.5033   -1.6675 H       1  LIG1        0.0278
    100 H          -8.6817    6.0658   -1.0773 H       1  LIG1        0.0278
@<TRIPOS>BOND
     1    92    89    1
     2    91    90    1
     3    89    90   ar
     4    89    88   ar
     5    90    86   ar
     6    84    82    1
     7    98    97    1
     8    31    30    1
     9    40    39    1
    10    88    97    1
    11    88    87   ar
    12    82    85    1
    13    82    83    1
    14    82    79    1
    15    30    22    1
    16    86    76    1
    17    86    87   ar
    18    39    38    3
    19    97    99    1
    20    97   100    1
    21    79    76   ar
    22    79    78   ar
    23    76    74   ar
    24    72    71    1
    25    38    34    1
    26    80    78    1
    27    78    75   ar
    28    87    93    1
    29    51    52    3
    30    37    33    1
    31    74    77    1
    32    74    73   ar
    33    28    26    1
    34    22    21   ar
    35    22    23   ar
    36    48    46    1
    37    27    26    1
    38    34    33   ar
    39    34    35   ar
    40    33    32   ar
    41    75    73   ar
    42    75    66    1
    43    52    47    1
    44    25    26    1
    45    25    21    1
    46    73    81    1
    47    71    65    1
    48    46    47   ar
    49    46    43   ar
    50    26    29    1
    51    66    65   ar
    52    66    67   ar
    53    65    64   ar
    54    32    23    1
    55    32    36   ar
    56    35    43    1
    57    35    36   ar
    58    47    44   ar
    59    70    68    1
    60    21    20   ar
    61    23    24   ar
    62    67    63   ar
    63    43    41   ar
    64    64    63   ar
    65    64    68    1
    66    63    56    1
    67    57    56   ar
    68    57    53   ar
    69    69    68    1
    70    44    53    1
    71    44    42   ar
    72    93    95    1
    73    93    96    1
    74    93    94    1
    75    56    55   ar
    76    53    54   ar
    77    41    42   ar
    78    41    50    1
    79    42    45    1
    80     5     2    1
    81    20    24   ar
    82    20     4    1
    83    55    54   ar
    84    55    60    1
    85    54    58    1
    86    50    49    3
    87    58    59    1
    88    60    61    3
    89     2     4   ar
    90     2     1   ar
    91    61    62    1
    92     4     7   ar
    93    10     1    1
    94    10    11    1
    95     1     3   ar
    96    12    11    1
    97     7    15    1
    98     7     6   ar
    99    11    14    1
   100    11    13    1
   101    15    16    1
   102    19    16    1
   103     3     6   ar
   104     3     9    1
   105    16    17    1
   106    16    18    1
   107     6     8    1
