@<TRIPOS>MOLECULE
mol_data/opt/m06hf/geoms/mol2/4ll12he6ei-12aa13le-13ha-6aa-6al-.out
 98 105 0 0 0
SMALL
GASTEIGER

@<TRIPOS>ATOM
      1 C          -0.5613    0.9031    0.7138 C.ar    1  LIG1        0.1210
      2 C           0.8349    0.9141    0.6786 C.ar    1  LIG1       -0.0057
      3 C          -1.2727    1.7519   -0.1249 C.ar    1  LIG1       -0.0165
      4 C           1.5198    1.7403   -0.2047 C.ar    1  LIG1        0.0642
      5 H           1.3791    0.2770    1.3659 H       1  LIG1        0.0662
      6 C          -0.5902    2.5921   -1.0110 C.ar    1  LIG1       -0.0158
      7 C           0.7967    2.5871   -1.0693 C.ar    1  LIG1        0.1310
      8 H          -1.1560    3.2731   -1.6336 H       1  LIG1        0.0655
      9 H          -2.3530    1.7845   -0.1054 H       1  LIG1        0.0655
     10 O          -1.1285    0.0436    1.6070 O.3     1  LIG1       -0.4951
     11 C          -2.5378    0.0202    1.6829 C.3     1  LIG1        0.0788
     12 H          -2.7858   -0.7263    2.4330 H       1  LIG1        0.0660
     13 H          -2.9266    0.9951    1.9900 H       1  LIG1        0.0660
     14 H          -2.9739   -0.2643    0.7212 H       1  LIG1        0.0660
     15 O           1.5150    3.3541   -1.9295 O.3     1  LIG1       -0.4944
     16 C           0.8379    3.8638   -3.0669 C.3     1  LIG1        0.0788
     17 H           1.6018    4.3507   -3.6676 H       1  LIG1        0.0660
     18 H           0.3819    3.0443   -3.6293 H       1  LIG1        0.0660
     19 H           0.0656    4.5832   -2.7860 H       1  LIG1        0.0660
     20 C           2.9875    1.6839   -0.2158 C.ar    1  LIG1        0.1611
     21 C           3.8358    0.6331   -0.0131 C.ar    1  LIG1        0.0873
     22 C           5.1637    1.1861   -0.0444 C.ar    1  LIG1        0.0917
     23 C           5.0093    2.5366   -0.2634 C.ar    1  LIG1        0.1555
     24 O           3.7126    2.8191   -0.3722 O.2     1  LIG1       -0.4514
     25 N           3.5330   -0.7051    0.2366 N.pl3   1  LIG1       -0.3541
     26 H           2.6789   -1.0122   -0.2133 H       1  LIG1        0.1425
     27 H           4.3105   -1.3199    0.0274 H       1  LIG1        0.1425
     28 C           6.3512    0.4134    0.1476 C.1     1  LIG1       -0.0640
     29 C           7.3137   -0.2914    0.3082 C.1     1  LIG1       -0.1137
     30 H           8.1672   -0.9089    0.4680 H       1  LIG1        0.1232
     31 C           5.6328    4.9886   -0.2317 C.ar    1  LIG1        0.1246
     32 C           5.9808    3.6299   -0.3654 C.ar    1  LIG1        0.0526
     33 C           7.3310    3.3432   -0.5817 C.ar    1  LIG1       -0.0433
     34 C           8.2882    4.3461   -0.6398 C.ar    1  LIG1       -0.0207
     35 C           7.8290    5.6639   -0.4781 C.ar    1  LIG1        0.1103
     36 N           6.5443    5.9551   -0.2881 N.ar    1  LIG1       -0.2343
     37 H           7.6371    2.3119   -0.7024 H       1  LIG1        0.0629
     38 C           4.2741    5.4461   -0.0188 C.1     1  LIG1       -0.0491
     39 C           3.1551    5.8530    0.1454 C.1     1  LIG1       -0.1124
     40 H           2.1574    6.2239    0.2797 H       1  LIG1        0.1232
     41 C           9.7456    4.0100   -0.8631 C.3     1  LIG1       -0.0376
     42 H          10.3559    4.4181   -0.0551 H       1  LIG1        0.0278
     43 H          10.0925    4.4270   -1.8110 H       1  LIG1        0.0278
     44 H           9.8748    2.9292   -0.8896 H       1  LIG1        0.0278
     45 C           8.7133    6.8489   -0.4904 C.ar    1  LIG1        0.1542
     46 C          10.0294    7.1318   -0.7382 C.ar    1  LIG1       -0.0137
     47 C          10.1894    8.5496   -0.5675 C.ar    1  LIG1       -0.0136
     48 C           8.9560    9.0155   -0.2290 C.ar    1  LIG1        0.1555
     49 O           8.0767    7.9996   -0.1833 O.2     1  LIG1       -0.4517
     50 H          10.8031    6.4396   -1.0160 H       1  LIG1        0.0656
     51 H          11.0844    9.1371   -0.6717 H       1  LIG1        0.0656
     52 C           8.3380   10.2936    0.0749 C.ar    1  LIG1        0.1260
     53 C           8.7590   11.6010    0.0362 C.ar    1  LIG1        0.1642
     54 C           7.6417   12.4245    0.3885 C.ar    1  LIG1        0.0937
     55 C           6.5772   11.5662    0.6508 C.ar    1  LIG1        0.0844
     56 N           7.0235   10.3000    0.4599 N.ar    1  LIG1       -0.3466
     57 H           6.5087    9.4521    0.6604 H       1  LIG1        0.1662
     58 O          10.0054   12.0131   -0.3140 O.3     1  LIG1       -0.4916
     59 C          10.0599   12.5874   -1.6208 C.3     1  LIG1        0.0789
     60 H          11.0957   12.8743   -1.7845 H       1  LIG1        0.0660
     61 H           9.7488   11.8481   -2.3619 H       1  LIG1        0.0660
     62 H           9.4146   13.4653   -1.6748 H       1  LIG1        0.0660
     63 C           7.6109   13.8526    0.4147 C.1     1  LIG1       -0.0638
     64 C           7.5847   15.0568    0.4320 C.1     1  LIG1       -0.1137
     65 H           7.5734   16.1222    0.4349 H       1  LIG1        0.1232
     66 C           5.1835   11.7799    1.0083 C.ar    1  LIG1        0.0856
     67 C           4.5441   12.6845    1.8376 C.ar    1  LIG1        0.0523
     68 C           3.1673   12.3120    1.8726 C.ar    1  LIG1       -0.0150
     69 C           3.0169   11.1934    1.0786 C.ar    1  LIG1        0.0502
     70 N           4.2388   10.8723    0.5735 N.ar    1  LIG1       -0.3515
     71 H           4.3773   10.2501   -0.2096 H       1  LIG1        0.1660
     72 N           5.1438   13.6856    2.6026 N.pl3   1  LIG1       -0.3563
     73 H           5.9795   14.0761    2.1834 H       1  LIG1        0.1424
     74 H           4.4981   14.4120    2.8801 H       1  LIG1        0.1424
     75 H           2.3981   12.7715    2.4718 H       1  LIG1        0.0657
     76 C           1.9903    8.9844    0.5841 C.ar    1  LIG1        0.0374
     77 C           1.8448   10.3668    0.7559 C.ar    1  LIG1        0.0165
     78 C           0.5681   10.8999    0.5817 C.ar    1  LIG1       -0.0492
     79 C          -0.4791   10.0573    0.2332 C.ar    1  LIG1       -0.0350
     80 C          -0.2254    8.6935    0.0616 C.ar    1  LIG1        0.0726
     81 N           0.9936    8.1809    0.2423 N.ar    1  LIG1       -0.2543
     82 H           0.4117   11.9664    0.6821 H       1  LIG1        0.0625
     83 H           2.9533    8.5084    0.7412 H       1  LIG1        0.0836
     84 H          -1.4647   10.4597    0.0460 H       1  LIG1        0.0639
     85 C          -0.9083    6.5973   -1.0894 C.ar    1  LIG1        0.0370
     86 C          -1.2810    7.7379   -0.3824 C.ar    1  LIG1        0.0219
     87 C          -2.6384    7.9594   -0.1330 C.ar    1  LIG1       -0.0078
     88 C          -3.5574    7.0382   -0.6197 C.ar    1  LIG1        0.1387
     89 C          -3.0828    5.9333   -1.3388 C.ar    1  LIG1        0.0692
     90 N          -1.7967    5.7219   -1.5637 N.ar    1  LIG1       -0.2590
     91 H          -2.9557    8.8154    0.4468 H       1  LIG1        0.0662
     92 H          -3.7990    5.2191   -1.7264 H       1  LIG1        0.0867
     93 H           0.1387    6.3973   -1.2813 H       1  LIG1        0.0836
     94 O          -4.8987    7.1102   -0.4558 O.3     1  LIG1       -0.4936
     95 C          -5.4196    8.2134    0.2618 C.3     1  LIG1        0.0789
     96 H          -6.4979    8.0829    0.2663 H       1  LIG1        0.0660
     97 H          -5.0430    8.2188    1.2879 H       1  LIG1        0.0660
     98 H          -5.1627    9.1524   -0.2355 H       1  LIG1        0.0660
@<TRIPOS>BOND
     1    17    16    1
     2    18    16    1
     3    16    19    1
     4    16    15    1
     5    61    59    1
     6    15     7    1
     7    43    41    1
     8    60    59    1
     9    92    89    1
    10    62    59    1
    11     8     6    1
    12    59    58    1
    13    90    89   ar
    14    90    85   ar
    15    89    88   ar
    16    93    85    1
    17    85    86   ar
    18     7     6   ar
    19     7     4   ar
    20    50    46    1
    21     6     3   ar
    22    44    41    1
    23    41    34    1
    24    41    42    1
    25    46    47   ar
    26    46    45   ar
    27    37    33    1
    28    51    47    1
    29    34    33   ar
    30    34    35   ar
    31    88    94    1
    32    88    87   ar
    33    33    32   ar
    34    47    48   ar
    35    45    35    1
    36    45    49   ar
    37    35    36   ar
    38    94    95    1
    39    86    87   ar
    40    86    80    1
    41    24    23   ar
    42    24    20   ar
    43    32    23    1
    44    32    31   ar
    45    58    53    1
    46    36    31   ar
    47    23    22   ar
    48    98    95    1
    49    31    38    1
    50    48    49   ar
    51    48    52    1
    52    20     4    1
    53    20    21   ar
    54    26    25    1
    55    71    70    1
    56     4     2   ar
    57    87    91    1
    58     3     9    1
    59     3     1   ar
    60    22    21   ar
    61    22    28    1
    62    38    39    3
    63    21    25    1
    64    27    25    1
    65    53    52   ar
    66    53    54   ar
    67    84    79    1
    68    80    79   ar
    69    80    81   ar
    70    52    56   ar
    71    39    40    1
    72    28    29    3
    73    79    78   ar
    74    81    76   ar
    75    95    96    1
    76    95    97    1
    77    29    30    1
    78    54    63    1
    79    54    55   ar
    80    63    64    3
    81    64    65    1
    82    56    55   ar
    83    56    57    1
    84    70    66   ar
    85    70    69   ar
    86    78    82    1
    87    78    77   ar
    88    76    83    1
    89    76    77   ar
    90    55    66    1
    91     2     1   ar
    92     2     5    1
    93     1    10    1
    94    14    11    1
    95    77    69    1
    96    66    67   ar
    97    69    68   ar
    98    10    11    1
    99    11    13    1
   100    11    12    1
   101    67    68   ar
   102    67    72    1
   103    68    75    1
   104    73    72    1
   105    72    74    1
