@<TRIPOS>MOLECULE
mol_data/opt/m06hf/geoms/mol2/512-12-13-.out
 31 34 0 0 0
SMALL
GASTEIGER

@<TRIPOS>ATOM
      1 C          -2.3647   -1.8273   -0.0006 C.ar    1  LIG1       -0.0236
      2 C          -1.0063   -1.8835   -0.0008 C.ar    1  LIG1       -0.0540
      3 C          -0.4035   -0.5838   -0.0000 C.ar    1  LIG1       -0.0440
      4 C          -1.3288    0.4188    0.0007 C.ar    1  LIG1        0.0544
      5 S          -2.9405   -0.2031    0.0003 S.2     1  LIG1       -0.0936
      6 H          -3.0661   -2.6453   -0.0010 H       1  LIG1        0.0693
      7 H          -0.4469   -2.8069   -0.0014 H       1  LIG1        0.0623
      8 H           0.6598   -0.3957    0.0000 H       1  LIG1        0.0630
      9 C          -1.0688    1.8521    0.0016 C.ar    1  LIG1        0.1424
     10 C          -1.8706    2.9533    0.0023 C.ar    1  LIG1       -0.0146
     11 C          -0.9933    4.0851    0.0030 C.ar    1  LIG1       -0.0121
     12 C           0.2704    3.5771    0.0027 C.ar    1  LIG1        0.1706
     13 O           0.2299    2.2278    0.0019 O.2     1  LIG1       -0.4512
     14 H          -2.9472    2.9598    0.0022 H       1  LIG1        0.0656
     15 H          -1.2646    5.1268    0.0037 H       1  LIG1        0.0657
     16 C           1.5825    4.2041    0.0031 C.ar    1  LIG1        0.1706
     17 C           1.9859    5.5036    0.0033 C.ar    1  LIG1       -0.0121
     18 C           3.4194    5.4758    0.0036 C.ar    1  LIG1       -0.0137
     19 C           3.7706    4.1609    0.0036 C.ar    1  LIG1        0.1519
     20 O           2.6605    3.3862    0.0032 O.2     1  LIG1       -0.4503
     21 H           1.3467    6.3698    0.0031 H       1  LIG1        0.0657
     22 H           4.0922    6.3153    0.0039 H       1  LIG1        0.0656
     23 C           5.0407    3.4515    0.0037 C.ar    1  LIG1        0.0821
     24 C           6.3446    3.9014    0.0041 C.ar    1  LIG1       -0.0334
     25 C           7.1794    2.7525    0.0041 C.ar    1  LIG1       -0.0437
     26 C           6.3566    1.6491    0.0039 C.ar    1  LIG1        0.0023
     27 N           5.0676    2.0864    0.0036 N.ar    1  LIG1       -0.3583
     28 H           4.2380    1.5130    0.0034 H       1  LIG1        0.1654
     29 H           6.5891    0.5983    0.0039 H       1  LIG1        0.0807
     30 H           6.6534    4.9331    0.0042 H       1  LIG1        0.0640
     31 H           8.2556    2.7367    0.0043 H       1  LIG1        0.0633
@<TRIPOS>BOND
     1     7     2    1
     2     6     1    1
     3     2     1   ar
     4     2     3   ar
     5     1     5   ar
     6     3     8    1
     7     3     4   ar
     8     5     4   ar
     9     4     9    1
    10     9    13   ar
    11     9    10   ar
    12    13    12   ar
    13    14    10    1
    14    10    11   ar
    15    12    11   ar
    16    12    16    1
    17    11    15    1
    18    16    20   ar
    19    16    17   ar
    20    21    17    1
    21    20    19   ar
    22    17    18   ar
    23    28    27    1
    24    19    18   ar
    25    19    23    1
    26    27    23   ar
    27    27    26   ar
    28    18    22    1
    29    23    24   ar
    30    29    26    1
    31    26    25   ar
    32    24    25   ar
    33    24    30    1
    34    25    31    1
