@<TRIPOS>MOLECULE
mol_data/opt/m06hf/geoms/mol2/512-48.out
 32 35 0 0 0
SMALL
GASTEIGER

@<TRIPOS>ATOM
      1 C          -2.2617   -1.8840   -0.0015 C.ar    1  LIG1       -0.0236
      2 C          -0.9022   -1.9137   -0.0005 C.ar    1  LIG1       -0.0540
      3 C          -0.3259   -0.6024    0.0006 C.ar    1  LIG1       -0.0440
      4 C          -1.2725    0.3809    0.0004 C.ar    1  LIG1        0.0544
      5 S          -2.8714   -0.2732   -0.0010 S.2     1  LIG1       -0.0936
      6 H          -2.9454   -2.7169   -0.0025 H       1  LIG1        0.0693
      7 H          -0.3259   -2.8264   -0.0006 H       1  LIG1        0.0623
      8 H           0.7332   -0.3940    0.0015 H       1  LIG1        0.0630
      9 C          -1.0469    1.8210    0.0012 C.ar    1  LIG1        0.1422
     10 C          -1.8784    2.9004    0.0011 C.ar    1  LIG1       -0.0147
     11 C          -1.0292    4.0528    0.0023 C.ar    1  LIG1       -0.0152
     12 C           0.2515    3.5861    0.0030 C.ar    1  LIG1        0.1357
     13 O           0.2386    2.2325    0.0024 O.2     1  LIG1       -0.4543
     14 H          -2.9550    2.8801    0.0003 H       1  LIG1        0.0656
     15 H          -1.3400    5.0831    0.0025 H       1  LIG1        0.0656
     16 C           2.7337    3.4797    0.0051 C.ar    1  LIG1       -0.0504
     17 C           3.9740    4.1021    0.0063 C.ar    1  LIG1       -0.0503
     18 C           1.5627    4.2445    0.0043 C.ar    1  LIG1        0.0173
     19 C           4.0542    5.4949    0.0069 C.ar    1  LIG1        0.0227
     20 H           4.8858    3.5200    0.0069 H       1  LIG1        0.0625
     21 C           1.6512    5.6408    0.0049 C.ar    1  LIG1       -0.0504
     22 C           2.8882    6.2648    0.0062 C.ar    1  LIG1       -0.0503
     23 H           0.7506    6.2406    0.0043 H       1  LIG1        0.0625
     24 H           2.6642    2.4006    0.0046 H       1  LIG1        0.0625
     25 H           2.9645    7.3438    0.0066 H       1  LIG1        0.0625
     26 C           5.3781    6.1612    0.0082 C.ar    1  LIG1        0.2033
     27 N           6.4731    5.3937    0.0088 N.ar    1  LIG1       -0.1258
     28 C           7.6542    7.3076    0.0105 C.ar    1  LIG1        0.1605
     29 N           5.4137    7.4971    0.0088 N.ar    1  LIG1       -0.1258
     30 N           7.6332    5.9777    0.0100 N.ar    1  LIG1       -0.1339
     31 N           6.5733    8.0827    0.0099 N.ar    1  LIG1       -0.1339
     32 H           8.6189    7.7927    0.0116 H       1  LIG1        0.1085
@<TRIPOS>BOND
     1     6     1    1
     2     1     5   ar
     3     1     2   ar
     4     5     4   ar
     5     7     2    1
     6     2     3   ar
     7    14    10    1
     8     4     3   ar
     9     4     9    1
    10     3     8    1
    11    10     9   ar
    12    10    11   ar
    13     9    13   ar
    14    11    15    1
    15    11    12   ar
    16    13    12   ar
    17    12    18    1
    18    23    21    1
    19    18    21   ar
    20    18    16   ar
    21    24    16    1
    22    21    22   ar
    23    16    17   ar
    24    22    25    1
    25    22    19   ar
    26    17    20    1
    27    17    19   ar
    28    19    26    1
    29    26    29   ar
    30    26    27   ar
    31    29    31   ar
    32    27    30   ar
    33    31    28   ar
    34    30    28   ar
    35    28    32    1
