@<TRIPOS>MOLECULE
mol_data/opt/m06hf/geoms/mol2/512-12.out
 23 25 0 0 0
SMALL
GASTEIGER

@<TRIPOS>ATOM
      1 C          -2.1324   -1.8410   -0.0005 C.ar    1  LIG1       -0.0236
      2 C          -0.7738   -1.8492   -0.0004 C.ar    1  LIG1       -0.0540
      3 C          -0.2167   -0.5287    0.0003 C.ar    1  LIG1       -0.0440
      4 C          -1.1774    0.4407    0.0008 C.ar    1  LIG1        0.0544
      5 S          -2.7664   -0.2375    0.0004 S.2     1  LIG1       -0.0936
      6 H          -2.8050   -2.6831   -0.0011 H       1  LIG1        0.0693
      7 H          -0.1829   -2.7525   -0.0009 H       1  LIG1        0.0623
      8 H           0.8391   -0.3040    0.0005 H       1  LIG1        0.0630
      9 C          -0.9708    1.8835    0.0016 C.ar    1  LIG1        0.1424
     10 C          -1.8139    2.9525    0.0020 C.ar    1  LIG1       -0.0146
     11 C          -0.9805    4.1194    0.0027 C.ar    1  LIG1       -0.0121
     12 C           0.2979    3.6585    0.0026 C.ar    1  LIG1        0.1706
     13 O           0.3141    2.3085    0.0019 O.2     1  LIG1       -0.4512
     14 H          -2.8905    2.9170    0.0018 H       1  LIG1        0.0656
     15 H          -1.2804    5.1528    0.0032 H       1  LIG1        0.0657
     16 C           1.5853    4.3303    0.0031 C.ar    1  LIG1        0.1697
     17 C           2.8634    3.8701    0.0031 C.ar    1  LIG1       -0.0128
     18 C           3.6960    5.0426    0.0037 C.ar    1  LIG1       -0.0232
     19 C           2.8503    6.1006    0.0039 C.ar    1  LIG1        0.0927
     20 O           1.5672    5.6792    0.0036 O.2     1  LIG1       -0.4598
     21 H           3.0011    7.1650    0.0043 H       1  LIG1        0.1029
     22 H           3.1648    2.8371    0.0028 H       1  LIG1        0.0656
     23 H           4.7716    5.0811    0.0039 H       1  LIG1        0.0649
@<TRIPOS>BOND
     1     6     1    1
     2     7     2    1
     3     1     2   ar
     4     1     5   ar
     5     2     3   ar
     6     3     8    1
     7     3     4   ar
     8     5     4   ar
     9     4     9    1
    10     9    13   ar
    11     9    10   ar
    12    14    10    1
    13    13    12   ar
    14    10    11   ar
    15    12    11   ar
    16    12    16    1
    17    11    15    1
    18    22    17    1
    19    16    17   ar
    20    16    20   ar
    21    17    18   ar
    22    20    19   ar
    23    18    23    1
    24    18    19   ar
    25    19    21    1
