@<TRIPOS>MOLECULE
mol_data/opt/m06hf/geoms/mol2/512-12-.out
 23 25 0 0 0
SMALL
GASTEIGER

@<TRIPOS>ATOM
      1 C          -2.1937   -1.8338   -0.0007 C.ar    1  LIG1       -0.0236
      2 C          -0.8350   -1.8707   -0.0006 C.ar    1  LIG1       -0.0540
      3 C          -0.2496   -0.5622    0.0003 C.ar    1  LIG1       -0.0440
      4 C          -1.1908    0.4259    0.0007 C.ar    1  LIG1        0.0544
      5 S          -2.7929   -0.2180    0.0002 S.2     1  LIG1       -0.0936
      6 H          -2.8834   -2.6619   -0.0012 H       1  LIG1        0.0693
      7 H          -0.2639   -2.7868   -0.0010 H       1  LIG1        0.0623
      8 H           0.8105   -0.3580    0.0005 H       1  LIG1        0.0630
      9 C          -0.9577    1.8645    0.0016 C.ar    1  LIG1        0.1424
     10 C          -1.7840    2.9471    0.0021 C.ar    1  LIG1       -0.0146
     11 C          -0.9312    4.0978    0.0029 C.ar    1  LIG1       -0.0121
     12 C           0.3422    3.6170    0.0027 C.ar    1  LIG1        0.1706
     13 O           0.3315    2.2680    0.0019 O.2     1  LIG1       -0.4512
     14 H          -2.8608    2.9298    0.0021 H       1  LIG1        0.0656
     15 H          -1.2260    5.1333    0.0035 H       1  LIG1        0.0657
     16 C           1.6406    4.2776    0.0031 C.ar    1  LIG1        0.1697
     17 C           1.9982    5.5910    0.0033 C.ar    1  LIG1       -0.0128
     18 C           3.4345    5.6028    0.0038 C.ar    1  LIG1       -0.0232
     19 C           3.8165    4.3028    0.0038 C.ar    1  LIG1        0.0927
     20 O           2.7374    3.4946    0.0033 O.2     1  LIG1       -0.4598
     21 H           4.7753    3.8158    0.0041 H       1  LIG1        0.1029
     22 H           1.3318    6.4365    0.0032 H       1  LIG1        0.0656
     23 H           4.0812    6.4631    0.0041 H       1  LIG1        0.0649
@<TRIPOS>BOND
     1     6     1    1
     2     7     2    1
     3     1     2   ar
     4     1     5   ar
     5     2     3   ar
     6     5     4   ar
     7     3     8    1
     8     3     4   ar
     9     4     9    1
    10     9    13   ar
    11     9    10   ar
    12    13    12   ar
    13    14    10    1
    14    10    11   ar
    15    12    11   ar
    16    12    16    1
    17    11    15    1
    18    16    20   ar
    19    16    17   ar
    20    22    17    1
    21    20    19   ar
    22    17    18   ar
    23    18    19   ar
    24    18    23    1
    25    19    21    1
