@<TRIPOS>MOLECULE
mol_data/opt/m06hf/geoms/mol2/512-.out
 16 17 0 0 0
SMALL
GASTEIGER

@<TRIPOS>ATOM
      1 C          -2.0544   -1.7994   -0.0005 C.ar    1  LIG1       -0.0236
      2 C          -0.6957   -1.7856   -0.0005 C.ar    1  LIG1       -0.0540
      3 C          -0.1599   -0.4561    0.0002 C.ar    1  LIG1       -0.0440
      4 C          -1.1360    0.4971    0.0009 C.ar    1  LIG1        0.0544
      5 S          -2.7130   -0.2062    0.0010 S.2     1  LIG1       -0.0936
      6 H          -2.7131   -2.6520   -0.0010 H       1  LIG1        0.0693
      7 H          -0.0902   -2.6793   -0.0012 H       1  LIG1        0.0623
      8 H           0.8919   -0.2141    0.0002 H       1  LIG1        0.0630
      9 C          -0.9551    1.9455    0.0016 C.ar    1  LIG1        0.1413
     10 C          -1.8179    2.9969    0.0021 C.ar    1  LIG1       -0.0154
     11 C          -1.0000    4.1794    0.0027 C.ar    1  LIG1       -0.0233
     12 C           0.2819    3.7425    0.0025 C.ar    1  LIG1        0.0926
     13 O           0.3193    2.3938    0.0019 O.2     1  LIG1       -0.4624
     14 H           1.2322    4.2459    0.0028 H       1  LIG1        0.1029
     15 H          -2.8937    2.9410    0.0021 H       1  LIG1        0.0655
     16 H          -1.3290    5.2041    0.0031 H       1  LIG1        0.0649
@<TRIPOS>BOND
     1     7     2    1
     2     6     1    1
     3     2     1   ar
     4     2     3   ar
     5     1     5   ar
     6     8     3    1
     7     3     4   ar
     8     4     5   ar
     9     4     9    1
    10     9    13   ar
    11     9    10   ar
    12    13    12   ar
    13    15    10    1
    14    10    11   ar
    15    12    11   ar
    16    12    14    1
    17    11    16    1
