@<TRIPOS>MOLECULE
mol_data/opt/m06hf/geoms/mol2/512-13-.out
 24 26 0 0 0
SMALL
GASTEIGER

@<TRIPOS>ATOM
      1 C          -2.1611   -1.8468   -0.0003 C.ar    1  LIG1       -0.0236
      2 C          -0.8025   -1.8683   -0.0003 C.ar    1  LIG1       -0.0540
      3 C          -0.2325   -0.5528    0.0003 C.ar    1  LIG1       -0.0440
      4 C          -1.1833    0.4264    0.0008 C.ar    1  LIG1        0.0544
      5 S          -2.7778   -0.2375    0.0005 S.2     1  LIG1       -0.0936
      6 H          -2.8416   -2.6825   -0.0007 H       1  LIG1        0.0693
      7 H          -0.2208   -2.7778   -0.0008 H       1  LIG1        0.0623
      8 H           0.8259   -0.3421    0.0004 H       1  LIG1        0.0630
      9 C          -0.9762    1.8687    0.0015 C.ar    1  LIG1        0.1423
     10 C          -1.8230    2.9325    0.0020 C.ar    1  LIG1       -0.0147
     11 C          -0.9980    4.1061    0.0025 C.ar    1  LIG1       -0.0138
     12 C           0.2869    3.6614    0.0024 C.ar    1  LIG1        0.1518
     13 O           0.3079    2.3060    0.0018 O.2     1  LIG1       -0.4528
     14 H          -2.8993    2.8902    0.0019 H       1  LIG1        0.0656
     15 H          -1.3183    5.1336    0.0030 H       1  LIG1        0.0656
     16 C           1.5805    4.3288    0.0028 C.ar    1  LIG1        0.0821
     17 C           1.9150    5.6667    0.0034 C.ar    1  LIG1       -0.0334
     18 C           3.3331    5.7404    0.0039 C.ar    1  LIG1       -0.0437
     19 C           3.8100    4.4496    0.0027 C.ar    1  LIG1        0.0023
     20 N           2.7396    3.6070    0.0025 N.ar    1  LIG1       -0.3583
     21 H           2.7695    2.5997    0.0020 H       1  LIG1        0.1654
     22 H           4.8178    4.0721    0.0024 H       1  LIG1        0.0807
     23 H           1.2185    6.4882    0.0037 H       1  LIG1        0.0640
     24 H           3.9327    6.6347    0.0046 H       1  LIG1        0.0633
@<TRIPOS>BOND
     1     7     2    1
     2     6     1    1
     3     2     1   ar
     4     2     3   ar
     5     1     5   ar
     6     3     8    1
     7     3     4   ar
     8     5     4   ar
     9     4     9    1
    10     9    13   ar
    11     9    10   ar
    12    13    12   ar
    13    14    10    1
    14    21    20    1
    15    10    11   ar
    16    22    19    1
    17    12    11   ar
    18    12    16    1
    19    20    19   ar
    20    20    16   ar
    21    11    15    1
    22    19    18   ar
    23    16    17   ar
    24    17    23    1
    25    17    18   ar
    26    18    24    1
