@<TRIPOS>MOLECULE
mol_data/opt/m06hf/geoms/mol2/512-124-.out
 33 36 0 0 0
SMALL
GASTEIGER

@<TRIPOS>ATOM
      1 C          -2.1545   -1.9277    0.0005 C.ar    1  LIG1       -0.0236
      2 C          -0.7950   -1.9263    0.0007 C.ar    1  LIG1       -0.0540
      3 C          -0.2486   -0.6021    0.0010 C.ar    1  LIG1       -0.0440
      4 C          -1.2161    0.3599    0.0010 C.ar    1  LIG1        0.0544
      5 S          -2.8005   -0.3306    0.0006 S.2     1  LIG1       -0.0936
      6 H          -2.8203   -2.7750    0.0002 H       1  LIG1        0.0693
      7 H          -0.1972   -2.8250    0.0007 H       1  LIG1        0.0623
      8 H           0.8055   -0.3692    0.0012 H       1  LIG1        0.0630
      9 C          -1.0161    1.8034    0.0012 C.ar    1  LIG1        0.1424
     10 C          -1.8598    2.8729    0.0012 C.ar    1  LIG1       -0.0146
     11 C          -1.0270    4.0398    0.0015 C.ar    1  LIG1       -0.0121
     12 C           0.2528    3.5797    0.0018 C.ar    1  LIG1        0.1706
     13 O           0.2682    2.2297    0.0016 O.2     1  LIG1       -0.4512
     14 H          -2.9362    2.8384    0.0009 H       1  LIG1        0.0656
     15 H          -1.3299    5.0722    0.0016 H       1  LIG1        0.0657
     16 C           1.5397    4.2479    0.0022 C.ar    1  LIG1        0.1706
     17 C           2.8174    3.7823    0.0024 C.ar    1  LIG1       -0.0122
     18 C           3.6528    4.9463    0.0028 C.ar    1  LIG1       -0.0151
     19 C           2.8170    6.0234    0.0027 C.ar    1  LIG1        0.1358
     20 O           1.5311    5.5963    0.0023 O.2     1  LIG1       -0.4517
     21 H           3.1158    2.7485    0.0023 H       1  LIG1        0.0657
     22 H           4.7287    4.9668    0.0030 H       1  LIG1        0.0656
     23 C           1.9474    8.3519    0.0029 C.ar    1  LIG1       -0.0511
     24 C           2.1572    9.7268    0.0032 C.ar    1  LIG1       -0.0611
     25 C           3.0371    7.4775    0.0030 C.ar    1  LIG1        0.0173
     26 C           3.4515   10.2397    0.0035 C.ar    1  LIG1       -0.0617
     27 H           1.3083   10.3977    0.0032 H       1  LIG1        0.0618
     28 C           4.3360    7.9945    0.0032 C.ar    1  LIG1       -0.0511
     29 C           4.5394    9.3685    0.0035 C.ar    1  LIG1       -0.0611
     30 H           5.1849    7.3235    0.0033 H       1  LIG1        0.0625
     31 H           3.6121   11.3095    0.0037 H       1  LIG1        0.0618
     32 H           0.9441    7.9480    0.0027 H       1  LIG1        0.0625
     33 H           5.5481    9.7601    0.0037 H       1  LIG1        0.0618
@<TRIPOS>BOND
     1     6     1    1
     2     1     5   ar
     3     1     2   ar
     4     5     4   ar
     5     7     2    1
     6     2     3   ar
     7    14    10    1
     8     4     3   ar
     9     4     9    1
    10     3     8    1
    11    10     9   ar
    12    10    11   ar
    13     9    13   ar
    14    11    15    1
    15    11    12   ar
    16    13    12   ar
    17    12    16    1
    18    16    20   ar
    19    16    17   ar
    20    21    17    1
    21    20    19   ar
    22    17    18   ar
    23    19    18   ar
    24    19    25    1
    25    32    23    1
    26    18    22    1
    27    23    25   ar
    28    23    24   ar
    29    25    28   ar
    30    27    24    1
    31    24    26   ar
    32    28    30    1
    33    28    29   ar
    34    26    29   ar
    35    26    31    1
    36    29    33    1
