@<TRIPOS>MOLECULE
mol_data/opt/m06hf/geoms/mol2/512-12-4-.out
 33 36 0 0 0
SMALL
GASTEIGER

@<TRIPOS>ATOM
      1 C          -2.4729   -1.8007   -0.0005 C.ar    1  LIG1       -0.0236
      2 C          -1.1153   -1.8789   -0.0005 C.ar    1  LIG1       -0.0540
      3 C          -0.4913   -0.5892    0.0003 C.ar    1  LIG1       -0.0440
      4 C          -1.4015    0.4277    0.0009 C.ar    1  LIG1        0.0544
      5 S          -3.0224   -0.1678    0.0008 S.2     1  LIG1       -0.0936
      6 H          -3.1872   -2.6074   -0.0010 H       1  LIG1        0.0693
      7 H          -0.5708   -2.8109   -0.0011 H       1  LIG1        0.0623
      8 H           0.5748   -0.4164    0.0004 H       1  LIG1        0.0630
      9 C          -1.1192    1.8568    0.0017 C.ar    1  LIG1        0.1424
     10 C          -1.9034    2.9708    0.0023 C.ar    1  LIG1       -0.0146
     11 C          -1.0074    4.0878    0.0029 C.ar    1  LIG1       -0.0121
     12 C           0.2478    3.5588    0.0026 C.ar    1  LIG1        0.1706
     13 O           0.1844    2.2112    0.0018 O.2     1  LIG1       -0.4512
     14 H          -2.9798    2.9947    0.0024 H       1  LIG1        0.0656
     15 H          -1.2603    5.1340    0.0034 H       1  LIG1        0.0657
     16 C           1.5692    4.1674    0.0029 C.ar    1  LIG1        0.1706
     17 C           1.9833    5.4647    0.0033 C.ar    1  LIG1       -0.0122
     18 C           3.4138    5.4167    0.0034 C.ar    1  LIG1       -0.0151
     19 C           3.7553    4.0964    0.0031 C.ar    1  LIG1        0.1358
     20 O           2.6334    3.3412    0.0027 O.2     1  LIG1       -0.4517
     21 H           1.3543    6.3385    0.0035 H       1  LIG1        0.0657
     22 H           4.0876    6.2556    0.0037 H       1  LIG1        0.0656
     23 C           6.2437    4.0938    0.0032 C.ar    1  LIG1       -0.0511
     24 C           7.4558    3.4153    0.0031 C.ar    1  LIG1       -0.0611
     25 C           5.0406    3.3822    0.0030 C.ar    1  LIG1        0.0173
     26 C           7.4790    2.0219    0.0028 C.ar    1  LIG1       -0.0617
     27 H           8.3821    3.9746    0.0033 H       1  LIG1        0.0618
     28 C           5.0645    1.9853    0.0027 C.ar    1  LIG1       -0.0511
     29 C           6.2815    1.3117    0.0026 C.ar    1  LIG1       -0.0611
     30 H           4.1308    1.4390    0.0025 H       1  LIG1        0.0625
     31 H           8.4238    1.4945    0.0027 H       1  LIG1        0.0618
     32 H           6.2319    5.1758    0.0034 H       1  LIG1        0.0625
     33 H           6.2930    0.2298    0.0024 H       1  LIG1        0.0618
@<TRIPOS>BOND
     1     7     2    1
     2     6     1    1
     3     1     2   ar
     4     1     5   ar
     5     2     3   ar
     6     3     8    1
     7     3     4   ar
     8     5     4   ar
     9     4     9    1
    10     9    13   ar
    11     9    10   ar
    12    13    12   ar
    13    10    14    1
    14    10    11   ar
    15    33    29    1
    16    30    28    1
    17    12    16    1
    18    12    11   ar
    19    29    28   ar
    20    29    26   ar
    21    28    25   ar
    22    20    16   ar
    23    20    19   ar
    24    31    26    1
    25    26    24   ar
    26    16    17   ar
    27    11    15    1
    28    25    19    1
    29    25    23   ar
    30    19    18   ar
    31    24    23   ar
    32    24    27    1
    33    23    32    1
    34    17    18   ar
    35    17    21    1
    36    18    22    1
