@<TRIPOS>MOLECULE
mol_data/opt/m06hf/geoms/mol2/512-5.out
 23 25 0 0 0
SMALL
GASTEIGER

@<TRIPOS>ATOM
      1 C          -2.1844   -1.8532   -0.0002 C.ar    1  LIG1       -0.0236
      2 C          -0.8260   -1.8773   -0.0005 C.ar    1  LIG1       -0.0540
      3 C          -0.2535   -0.5634   -0.0000 C.ar    1  LIG1       -0.0440
      4 C          -1.2027    0.4173    0.0005 C.ar    1  LIG1        0.0544
      5 S          -2.7995   -0.2425   -0.0005 S.2     1  LIG1       -0.0936
      6 H          -2.8668   -2.6874   -0.0003 H       1  LIG1        0.0693
      7 H          -0.2458   -2.7875   -0.0007 H       1  LIG1        0.0623
      8 H           0.8049   -0.3513    0.0002 H       1  LIG1        0.0630
      9 C          -0.9805    1.8579    0.0014 C.ar    1  LIG1        0.1422
     10 C          -1.8130    2.9346    0.0019 C.ar    1  LIG1       -0.0147
     11 C          -0.9666    4.0911    0.0030 C.ar    1  LIG1       -0.0147
     12 C           0.3114    3.6232    0.0026 C.ar    1  LIG1        0.1422
     13 O           0.3072    2.2709    0.0018 O.2     1  LIG1       -0.4538
     14 H          -2.8898    2.9111    0.0016 H       1  LIG1        0.0656
     15 H          -1.2699    5.1246    0.0038 H       1  LIG1        0.0656
     16 C           1.6174    4.2707    0.0031 C.ar    1  LIG1        0.0544
     17 C           2.8392    3.6625    0.0027 C.ar    1  LIG1       -0.0440
     18 C           3.9184    4.6055    0.0030 C.ar    1  LIG1       -0.0540
     19 C           3.4846    5.8931    0.0035 C.ar    1  LIG1       -0.0236
     20 S           1.7634    5.9923    0.0047 S.2     1  LIG1       -0.0936
     21 H           4.0734    6.7958    0.0036 H       1  LIG1        0.0693
     22 H           2.9572    2.5895    0.0021 H       1  LIG1        0.0630
     23 H           4.9615    4.3278    0.0025 H       1  LIG1        0.0623
@<TRIPOS>BOND
     1     7     2    1
     2     5     1   ar
     3     5     4   ar
     4     2     1   ar
     5     2     3   ar
     6     6     1    1
     7     3     8    1
     8     3     4   ar
     9     4     9    1
    10     9    13   ar
    11     9    10   ar
    12    14    10    1
    13    13    12   ar
    14    10    11   ar
    15    22    17    1
    16    23    18    1
    17    12    11   ar
    18    12    16    1
    19    17    18   ar
    20    17    16   ar
    21    18    19   ar
    22    11    15    1
    23    16    20   ar
    24    19    21    1
    25    19    20   ar
