@<TRIPOS>MOLECULE
mol_data/opt/m06hf/geoms/mol2/512-8-5.out
 29 32 0 0 0
SMALL
GASTEIGER

@<TRIPOS>ATOM
      1 C          -2.3173   -1.8338   -0.0005 C.ar    1  LIG1       -0.0236
      2 C          -0.9583   -1.8965   -0.0004 C.ar    1  LIG1       -0.0540
      3 C          -0.3516   -0.6001    0.0003 C.ar    1  LIG1       -0.0440
      4 C          -1.2771    0.4037    0.0008 C.ar    1  LIG1        0.0544
      5 S          -2.8900   -0.2114    0.0004 S.2     1  LIG1       -0.0936
      6 H          -3.0202   -2.6509   -0.0010 H       1  LIG1        0.0693
      7 H          -0.4038   -2.8225   -0.0009 H       1  LIG1        0.0623
      8 H           0.7117   -0.4113    0.0004 H       1  LIG1        0.0630
      9 C          -1.0023    1.8344    0.0015 C.ar    1  LIG1        0.1424
     10 C          -1.7945    2.9478    0.0021 C.ar    1  LIG1       -0.0146
     11 C          -0.9041    4.0650    0.0027 C.ar    1  LIG1       -0.0120
     12 C           0.3507    3.5356    0.0025 C.ar    1  LIG1        0.1760
     13 O           0.2962    2.1893    0.0018 O.2     1  LIG1       -0.4511
     14 H          -2.8710    2.9666    0.0020 H       1  LIG1        0.0656
     15 H          -1.1447    5.1141    0.0032 H       1  LIG1        0.0657
     16 C           1.6643    4.1714    0.0029 C.ar    1  LIG1        0.2381
     17 N           1.6866    5.5082    0.0037 N.ar    1  LIG1       -0.1220
     18 C           3.9373    5.3258    0.0037 C.ar    1  LIG1        0.2099
     19 N           2.7556    3.4006    0.0026 N.ar    1  LIG1       -0.1220
     20 N           2.8402    6.0926    0.0040 N.ar    1  LIG1       -0.1246
     21 N           3.9102    3.9903    0.0030 N.ar    1  LIG1       -0.1246
     22 C           5.2405    5.9899    0.0041 C.ar    1  LIG1        0.0598
     23 C           6.4653    5.3831    0.0039 C.ar    1  LIG1       -0.0438
     24 C           7.5318    6.3315    0.0044 C.ar    1  LIG1       -0.0540
     25 C           7.0759    7.6174    0.0051 C.ar    1  LIG1       -0.0236
     26 S           5.3636    7.7076    0.0050 S.2     1  LIG1       -0.0934
     27 H           7.6598    8.5242    0.0056 H       1  LIG1        0.0693
     28 H           6.5827    4.3094    0.0033 H       1  LIG1        0.0630
     29 H           8.5779    6.0652    0.0044 H       1  LIG1        0.0623
@<TRIPOS>BOND
     1     6     1    1
     2     7     2    1
     3     1     2   ar
     4     1     5   ar
     5     2     3   ar
     6     3     8    1
     7     3     4   ar
     8     5     4   ar
     9     4     9    1
    10     9    13   ar
    11     9    10   ar
    12    13    12   ar
    13    14    10    1
    14    10    11   ar
    15    12    11   ar
    16    12    16    1
    17    19    16   ar
    18    19    21   ar
    19    11    15    1
    20    16    17   ar
    21    21    18   ar
    22    28    23    1
    23    17    20   ar
    24    18    20   ar
    25    18    22    1
    26    23    22   ar
    27    23    24   ar
    28    22    26   ar
    29    29    24    1
    30    24    25   ar
    31    26    25   ar
    32    25    27    1
