@<TRIPOS>MOLECULE
mol_data/opt/m06hf/geoms/mol2/512.out
 16 17 0 0 0
SMALL
GASTEIGER

@<TRIPOS>ATOM
      1 C          -2.0340   -1.8074   -0.0006 C.ar    1  LIG1       -0.0236
      2 C          -0.6738   -1.7803   -0.0005 C.ar    1  LIG1       -0.0540
      3 C          -0.1556   -0.4457    0.0003 C.ar    1  LIG1       -0.0440
      4 C          -1.1427    0.4970    0.0010 C.ar    1  LIG1        0.0544
      5 S          -2.7122   -0.2263    0.0014 S.2     1  LIG1       -0.0936
      6 H          -2.6796   -2.6703   -0.0013 H       1  LIG1        0.0693
      7 H          -0.0572   -2.6664   -0.0013 H       1  LIG1        0.0623
      8 H           0.8965   -0.2019    0.0002 H       1  LIG1        0.0630
      9 C          -0.9964    1.9493    0.0016 C.ar    1  LIG1        0.1413
     10 C           0.0824    2.7790    0.0019 C.ar    1  LIG1       -0.0154
     11 C          -0.4471    4.1153    0.0026 C.ar    1  LIG1       -0.0233
     12 C          -1.7948    3.9818    0.0024 C.ar    1  LIG1        0.0926
     13 O          -2.1352    2.6761    0.0019 O.2     1  LIG1       -0.4624
     14 H          -2.6080    4.6854    0.0027 H       1  LIG1        0.1029
     15 H           1.1169    2.4823    0.0018 H       1  LIG1        0.0655
     16 H           0.1069    5.0376    0.0030 H       1  LIG1        0.0649
@<TRIPOS>BOND
     1     7     2    1
     2     6     1    1
     3     1     2   ar
     4     1     5   ar
     5     2     3   ar
     6     8     3    1
     7     3     4   ar
     8     4     5   ar
     9     4     9    1
    10     9    13   ar
    11     9    10   ar
    12    15    10    1
    13    13    12   ar
    14    10    11   ar
    15    12    11   ar
    16    12    14    1
    17    11    16    1
