@<TRIPOS>MOLECULE
mol_data/opt/m06hf/geoms/mol2/512138.out
 30 33 0 0 0
SMALL
GASTEIGER

@<TRIPOS>ATOM
      1 C          -1.9591   -1.8846    0.0004 C.ar    1  LIG1       -0.0236
      2 C          -0.5986   -1.8440   -0.0007 C.ar    1  LIG1       -0.0540
      3 C          -0.0937   -0.5058   -0.0006 C.ar    1  LIG1       -0.0440
      4 C          -1.0920    0.4273    0.0005 C.ar    1  LIG1        0.0544
      5 S          -2.6522   -0.3121    0.0005 S.2     1  LIG1       -0.0936
      6 H          -2.5962   -2.7539    0.0006 H       1  LIG1        0.0693
      7 H           0.0261   -2.7243   -0.0013 H       1  LIG1        0.0623
      8 H           0.9561   -0.2517   -0.0011 H       1  LIG1        0.0630
      9 C          -0.9537    1.8776    0.0013 C.ar    1  LIG1        0.1423
     10 C           0.1214    2.7133    0.0016 C.ar    1  LIG1       -0.0147
     11 C          -0.4054    4.0464    0.0025 C.ar    1  LIG1       -0.0138
     12 C          -1.7591    3.9158    0.0026 C.ar    1  LIG1        0.1518
     13 O          -2.0964    2.6048    0.0019 O.2     1  LIG1       -0.4528
     14 H           1.1568    2.4206    0.0012 H       1  LIG1        0.0656
     15 H           0.1472    4.9702    0.0030 H       1  LIG1        0.0656
     16 C          -2.8606    4.8656    0.0034 C.ar    1  LIG1        0.0826
     17 C          -2.8644    6.2540    0.0041 C.ar    1  LIG1       -0.0327
     18 C          -4.2130    6.6648    0.0044 C.ar    1  LIG1       -0.0325
     19 C          -4.9828    5.5151    0.0045 C.ar    1  LIG1        0.0880
     20 N          -4.1468    4.4387    0.0036 N.ar    1  LIG1       -0.3492
     21 H          -4.4538    3.4749    0.0033 H       1  LIG1        0.1661
     22 H          -1.9913    6.8841    0.0042 H       1  LIG1        0.0640
     23 H          -4.6009    7.6689    0.0048 H       1  LIG1        0.0640
     24 C          -6.4241    5.3352    0.0052 C.ar    1  LIG1        0.2193
     25 N          -7.2022    6.4266    0.0058 N.ar    1  LIG1       -0.1243
     26 C          -8.9430    4.9948    0.0059 C.ar    1  LIG1        0.1605
     27 N          -6.8895    4.0821    0.0049 N.ar    1  LIG1       -0.1243
     28 N          -8.4853    6.2477    0.0062 N.ar    1  LIG1       -0.1338
     29 N          -8.1776    3.9089    0.0053 N.ar    1  LIG1       -0.1338
     30 H         -10.0131    4.8548    0.0064 H       1  LIG1        0.1085
@<TRIPOS>BOND
     1     7     2    1
     2     8     3    1
     3     2     3   ar
     4     2     1   ar
     5     3     4   ar
     6     1     5   ar
     7     1     6    1
     8     4     5   ar
     9     4     9    1
    10    14    10    1
    11     9    10   ar
    12     9    13   ar
    13    10    11   ar
    14    13    12   ar
    15    11    12   ar
    16    11    15    1
    17    12    16    1
    18    21    20    1
    19    16    20   ar
    20    16    17   ar
    21    20    19   ar
    22    17    22    1
    23    17    18   ar
    24    18    19   ar
    25    18    23    1
    26    19    24    1
    27    27    24   ar
    28    27    29   ar
    29    24    25   ar
    30    29    26   ar
    31    25    28   ar
    32    26    28   ar
    33    26    30    1
