@<TRIPOS>MOLECULE
mol_data/opt/m06hf/geoms/mol2/51213-.out
 24 26 0 0 0
SMALL
GASTEIGER

@<TRIPOS>ATOM
      1 C          -1.9935   -1.8661   -0.0005 C.ar    1  LIG1       -0.0236
      2 C          -0.6336   -1.8368   -0.0004 C.ar    1  LIG1       -0.0540
      3 C          -0.1161   -0.5025    0.0002 C.ar    1  LIG1       -0.0440
      4 C          -1.1049    0.4406    0.0008 C.ar    1  LIG1        0.0544
      5 S          -2.6726   -0.2855    0.0007 S.2     1  LIG1       -0.0936
      6 H          -2.6400   -2.7286   -0.0010 H       1  LIG1        0.0693
      7 H          -0.0148   -2.7218   -0.0010 H       1  LIG1        0.0623
      8 H           0.9364   -0.2600    0.0003 H       1  LIG1        0.0630
      9 C          -0.9650    1.8918    0.0015 C.ar    1  LIG1        0.1423
     10 C           0.1054    2.7318    0.0020 C.ar    1  LIG1       -0.0147
     11 C          -0.4329    4.0615    0.0026 C.ar    1  LIG1       -0.0138
     12 C          -1.7884    3.9226    0.0023 C.ar    1  LIG1        0.1518
     13 O          -2.1111    2.6121    0.0017 O.2     1  LIG1       -0.4528
     14 H           1.1437    2.4478    0.0020 H       1  LIG1        0.0656
     15 H           0.1245    4.9827    0.0032 H       1  LIG1        0.0656
     16 C          -2.9002    4.8610    0.0027 C.ar    1  LIG1        0.0821
     17 C          -4.2579    4.6241    0.0031 C.ar    1  LIG1       -0.0334
     18 C          -4.9025    5.8903    0.0031 C.ar    1  LIG1       -0.0437
     19 C          -3.9177    6.8496    0.0033 C.ar    1  LIG1        0.0023
     20 N          -2.7106    6.2151    0.0028 N.ar    1  LIG1       -0.3583
     21 H          -1.8147    6.6740    0.0025 H       1  LIG1        0.1654
     22 H          -3.9805    7.9242    0.0034 H       1  LIG1        0.0807
     23 H          -4.7157    3.6497    0.0032 H       1  LIG1        0.0640
     24 H          -5.9628    6.0754    0.0032 H       1  LIG1        0.0633
@<TRIPOS>BOND
     1     7     2    1
     2     6     1    1
     3     1     2   ar
     4     1     5   ar
     5     2     3   ar
     6     3     8    1
     7     3     4   ar
     8     5     4   ar
     9     4     9    1
    10     9    13   ar
    11     9    10   ar
    12    13    12   ar
    13    10    14    1
    14    10    11   ar
    15    12    11   ar
    16    12    16    1
    17    21    20    1
    18    11    15    1
    19    16    20   ar
    20    16    17   ar
    21    20    19   ar
    22    18    17   ar
    23    18    24    1
    24    18    19   ar
    25    17    23    1
    26    19    22    1
