@<TRIPOS>MOLECULE
mol_data/opt/m06hf/geoms/mol2/51213-12.out
 31 34 0 0 0
SMALL
GASTEIGER

@<TRIPOS>ATOM
      1 C          -1.9652   -1.9184    0.0002 C.ar    1  LIG1       -0.0236
      2 C          -0.6054   -1.8829    0.0001 C.ar    1  LIG1       -0.0540
      3 C          -0.0943   -0.5462    0.0004 C.ar    1  LIG1       -0.0440
      4 C          -1.0877    0.3919    0.0007 C.ar    1  LIG1        0.0544
      5 S          -2.6520   -0.3411   -0.0000 S.2     1  LIG1       -0.0936
      6 H          -2.6075   -2.7840    0.0001 H       1  LIG1        0.0693
      7 H           0.0176   -2.7648   -0.0000 H       1  LIG1        0.0623
      8 H           0.9571   -0.2989    0.0006 H       1  LIG1        0.0630
      9 C          -0.9535    1.8434    0.0013 C.ar    1  LIG1        0.1423
     10 C           0.1146    2.6869    0.0020 C.ar    1  LIG1       -0.0147
     11 C          -0.4274    4.0144    0.0024 C.ar    1  LIG1       -0.0138
     12 C          -1.7827    3.8709    0.0019 C.ar    1  LIG1        0.1518
     13 O          -2.1020    2.5594    0.0012 O.2     1  LIG1       -0.4528
     14 H           1.1538    2.4064    0.0022 H       1  LIG1        0.0656
     15 H           0.1274    4.9372    0.0031 H       1  LIG1        0.0656
     16 C          -2.8949    4.8064    0.0021 C.ar    1  LIG1        0.0826
     17 C          -4.2544    4.5678    0.0022 C.ar    1  LIG1       -0.0327
     18 C          -4.9008    5.8286    0.0025 C.ar    1  LIG1       -0.0327
     19 C          -3.9142    6.7933    0.0025 C.ar    1  LIG1        0.0826
     20 N          -2.7053    6.1592    0.0022 N.ar    1  LIG1       -0.3494
     21 H          -1.8107    6.6214    0.0021 H       1  LIG1        0.1661
     22 H          -4.7113    3.5930    0.0021 H       1  LIG1        0.0640
     23 H          -5.9586    6.0258    0.0027 H       1  LIG1        0.0640
     24 C          -4.0235    8.2449    0.0027 C.ar    1  LIG1        0.1509
     25 C          -3.1117    9.2564    0.0023 C.ar    1  LIG1       -0.0144
     26 C          -3.8752   10.4756    0.0028 C.ar    1  LIG1       -0.0233
     27 C          -5.1754   10.0982    0.0034 C.ar    1  LIG1        0.0926
     28 O          -5.2733    8.7514    0.0033 O.2     1  LIG1       -0.4615
     29 H          -6.1027   10.6425    0.0039 H       1  LIG1        0.1029
     30 H          -2.0389    9.1646    0.0018 H       1  LIG1        0.0656
     31 H          -3.4974   11.4833    0.0026 H       1  LIG1        0.0649
@<TRIPOS>BOND
     1     7     2    1
     2     5     1   ar
     3     5     4   ar
     4     6     1    1
     5     2     1   ar
     6     2     3   ar
     7     3     8    1
     8     3     4   ar
     9     4     9    1
    10    13     9   ar
    11    13    12   ar
    12     9    10   ar
    13    30    25    1
    14    12    16    1
    15    12    11   ar
    16    10    14    1
    17    10    11   ar
    18    16    17   ar
    19    16    20   ar
    20    21    20    1
    21    22    17    1
    22    17    18   ar
    23    20    19   ar
    24    25    24   ar
    25    25    26   ar
    26    11    15    1
    27    19    18   ar
    28    19    24    1
    29    18    23    1
    30    31    26    1
    31    24    28   ar
    32    26    27   ar
    33    28    27   ar
    34    27    29    1
