@<TRIPOS>MOLECULE
mol_data/opt/m06hf/geoms/mol2/51212-.out
 23 25 0 0 0
SMALL
GASTEIGER

@<TRIPOS>ATOM
      1 C          -2.0094   -1.8495   -0.0001 C.ar    1  LIG1       -0.0236
      2 C          -0.6494   -1.8223   -0.0005 C.ar    1  LIG1       -0.0540
      3 C          -0.1300   -0.4886    0.0000 C.ar    1  LIG1       -0.0440
      4 C          -1.1175    0.4555    0.0007 C.ar    1  LIG1        0.0544
      5 S          -2.6866   -0.2679    0.0009 S.2     1  LIG1       -0.0936
      6 H          -2.6570   -2.7112   -0.0004 H       1  LIG1        0.0693
      7 H          -0.0320   -2.7080   -0.0011 H       1  LIG1        0.0623
      8 H           0.9228   -0.2474   -0.0002 H       1  LIG1        0.0630
      9 C          -0.9760    1.9064    0.0014 C.ar    1  LIG1        0.1424
     10 C           0.0960    2.7470    0.0019 C.ar    1  LIG1       -0.0146
     11 C          -0.4392    4.0775    0.0025 C.ar    1  LIG1       -0.0121
     12 C          -1.7911    3.9332    0.0025 C.ar    1  LIG1        0.1706
     13 O          -2.1228    2.6252    0.0018 O.2     1  LIG1       -0.4512
     14 H           1.1335    2.4607    0.0018 H       1  LIG1        0.0656
     15 H           0.0975    5.0101    0.0030 H       1  LIG1        0.0657
     16 C          -2.8861    4.8864    0.0030 C.ar    1  LIG1        0.1697
     17 C          -4.2362    4.7326    0.0029 C.ar    1  LIG1       -0.0128
     18 C          -4.7763    6.0652    0.0036 C.ar    1  LIG1       -0.0232
     19 C          -3.7094    6.9005    0.0041 C.ar    1  LIG1        0.0927
     20 O          -2.5579    6.1947    0.0037 O.2     1  LIG1       -0.4598
     21 H          -3.6094    7.9710    0.0047 H       1  LIG1        0.1029
     22 H          -4.7674    3.7967    0.0024 H       1  LIG1        0.0656
     23 H          -5.8144    6.3491    0.0038 H       1  LIG1        0.0649
@<TRIPOS>BOND
     1     7     2    1
     2     2     1   ar
     3     2     3   ar
     4     6     1    1
     5     8     3    1
     6     1     5   ar
     7     3     4   ar
     8     4     5   ar
     9     4     9    1
    10     9    13   ar
    11     9    10   ar
    12    14    10    1
    13    13    12   ar
    14    10    11   ar
    15    22    17    1
    16    12    11   ar
    17    12    16    1
    18    11    15    1
    19    17    16   ar
    20    17    18   ar
    21    16    20   ar
    22    18    23    1
    23    18    19   ar
    24    20    19   ar
    25    19    21    1
