@<TRIPOS>MOLECULE
mol_data/opt/m06hf/geoms/mol2/5124-.out
 26 28 0 0 0
SMALL
GASTEIGER

@<TRIPOS>ATOM
      1 C          -1.9809   -1.8868   -0.0004 C.ar    1  LIG1       -0.0236
      2 C          -0.6205   -1.8541   -0.0002 C.ar    1  LIG1       -0.0540
      3 C          -0.1070   -0.5185    0.0004 C.ar    1  LIG1       -0.0440
      4 C          -1.0983    0.4218    0.0007 C.ar    1  LIG1        0.0544
      5 S          -2.6639   -0.3086    0.0001 S.2     1  LIG1       -0.0936
      6 H          -2.6251   -2.7508   -0.0009 H       1  LIG1        0.0693
      7 H          -0.0005   -2.7381   -0.0005 H       1  LIG1        0.0623
      8 H           0.9446   -0.2729    0.0007 H       1  LIG1        0.0630
      9 C          -0.9584    1.8732    0.0013 C.ar    1  LIG1        0.1422
     10 C           0.1151    2.7102    0.0021 C.ar    1  LIG1       -0.0147
     11 C          -0.4206    4.0390    0.0025 C.ar    1  LIG1       -0.0152
     12 C          -1.7766    3.9093    0.0019 C.ar    1  LIG1        0.1357
     13 O          -2.1001    2.5950    0.0012 O.2     1  LIG1       -0.4543
     14 H           1.1525    2.4222    0.0024 H       1  LIG1        0.0656
     15 H           0.1378    4.9592    0.0031 H       1  LIG1        0.0656
     16 C          -4.2092    4.4070    0.0016 C.ar    1  LIG1       -0.0511
     17 C          -5.2637    5.3136    0.0017 C.ar    1  LIG1       -0.0611
     18 C          -2.8905    4.8693    0.0020 C.ar    1  LIG1        0.0173
     19 C          -5.0143    6.6833    0.0021 C.ar    1  LIG1       -0.0617
     20 H          -6.2823    4.9480    0.0015 H       1  LIG1        0.0618
     21 C          -2.6417    6.2448    0.0024 C.ar    1  LIG1       -0.0511
     22 C          -3.6993    7.1454    0.0025 C.ar    1  LIG1       -0.0611
     23 H          -1.6227    6.6100    0.0026 H       1  LIG1        0.0625
     24 H          -5.8364    7.3865    0.0022 H       1  LIG1        0.0618
     25 H          -4.3977    3.3418    0.0013 H       1  LIG1        0.0625
     26 H          -3.4978    8.2085    0.0028 H       1  LIG1        0.0618
@<TRIPOS>BOND
     1     6     1    1
     2     7     2    1
     3     1     2   ar
     4     1     5   ar
     5     2     3   ar
     6     5     4   ar
     7     3     4   ar
     8     3     8    1
     9     4     9    1
    10    13     9   ar
    11    13    12   ar
    12     9    10   ar
    13    25    16    1
    14    20    17    1
    15    16    17   ar
    16    16    18   ar
    17    17    19   ar
    18    12    18    1
    19    12    11   ar
    20    18    21   ar
    21    10    14    1
    22    10    11   ar
    23    19    24    1
    24    19    22   ar
    25    21    22   ar
    26    21    23    1
    27    11    15    1
    28    22    26    1
