@<TRIPOS>MOLECULE
mol_data/opt/m06hf/geoms/mol2/5124.out
 26 28 0 0 0
SMALL
GASTEIGER

@<TRIPOS>ATOM
      1 C          -1.9508   -1.8978   -0.0001 C.ar    1  LIG1       -0.0236
      2 C          -0.5908   -1.8538   -0.0009 C.ar    1  LIG1       -0.0540
      3 C          -0.0884   -0.5139   -0.0006 C.ar    1  LIG1       -0.0440
      4 C          -1.0874    0.4180    0.0003 C.ar    1  LIG1        0.0544
      5 S          -2.6469   -0.3253   -0.0002 S.2     1  LIG1       -0.0936
      6 H          -2.5878   -2.7671    0.0001 H       1  LIG1        0.0693
      7 H           0.0365   -2.7327   -0.0014 H       1  LIG1        0.0623
      8 H           0.9612   -0.2596   -0.0009 H       1  LIG1        0.0630
      9 C          -0.9597    1.8707    0.0014 C.ar    1  LIG1        0.1422
     10 C           0.1067    2.7167    0.0020 C.ar    1  LIG1       -0.0147
     11 C          -0.4401    4.0410    0.0029 C.ar    1  LIG1       -0.0152
     12 C          -1.7949    3.9001    0.0030 C.ar    1  LIG1        0.1357
     13 O          -2.1072    2.5831    0.0019 O.2     1  LIG1       -0.4543
     14 H           1.1464    2.4373    0.0018 H       1  LIG1        0.0656
     15 H           0.1106    4.9659    0.0036 H       1  LIG1        0.0656
     16 C          -2.6794    6.2284    0.0046 C.ar    1  LIG1       -0.0511
     17 C          -3.7445    7.1202    0.0056 C.ar    1  LIG1       -0.0611
     18 C          -2.9169    4.8508    0.0039 C.ar    1  LIG1        0.0173
     19 C          -5.0556    6.6472    0.0058 C.ar    1  LIG1       -0.0617
     20 H          -3.5518    8.1850    0.0062 H       1  LIG1        0.0618
     21 C          -4.2317    4.3777    0.0041 C.ar    1  LIG1       -0.0511
     22 C          -5.2937    5.2755    0.0050 C.ar    1  LIG1       -0.0611
     23 H          -4.4114    3.3109    0.0035 H       1  LIG1        0.0625
     24 H          -5.8835    7.3435    0.0065 H       1  LIG1        0.0618
     25 H          -1.6636    6.6020    0.0045 H       1  LIG1        0.0625
     26 H          -6.3092    4.9014    0.0052 H       1  LIG1        0.0618
@<TRIPOS>BOND
     1     7     2    1
     2     2     3   ar
     3     2     1   ar
     4     8     3    1
     5     3     4   ar
     6     5     1   ar
     7     5     4   ar
     8     1     6    1
     9     4     9    1
    10     9    13   ar
    11     9    10   ar
    12    14    10    1
    13    13    12   ar
    14    10    11   ar
    15    11    12   ar
    16    11    15    1
    17    12    18    1
    18    23    21    1
    19    18    21   ar
    20    18    16   ar
    21    21    22   ar
    22    25    16    1
    23    16    17   ar
    24    22    26    1
    25    22    19   ar
    26    17    19   ar
    27    17    20    1
    28    19    24    1
