@<TRIPOS>MOLECULE
mol_data/opt/m06hf/geoms/mol2/5124-8.out
 32 35 0 0 0
SMALL
GASTEIGER

@<TRIPOS>ATOM
      1 C          -1.9375   -1.9270   -0.0001 C.ar    1  LIG1       -0.0236
      2 C          -0.5775   -1.8894    0.0002 C.ar    1  LIG1       -0.0540
      3 C          -0.0691   -0.5517    0.0008 C.ar    1  LIG1       -0.0440
      4 C          -1.0643    0.3833    0.0011 C.ar    1  LIG1        0.0544
      5 S          -2.6281   -0.3518    0.0006 S.2     1  LIG1       -0.0936
      6 H          -2.5769   -2.7945   -0.0006 H       1  LIG1        0.0693
      7 H           0.0455   -2.7711   -0.0001 H       1  LIG1        0.0623
      8 H           0.9816   -0.3020    0.0010 H       1  LIG1        0.0630
      9 C          -0.9285    1.8345    0.0016 C.ar    1  LIG1        0.1422
     10 C           0.1445    2.6745    0.0024 C.ar    1  LIG1       -0.0147
     11 C          -0.3931    4.0010    0.0026 C.ar    1  LIG1       -0.0152
     12 C          -1.7500    3.8680    0.0018 C.ar    1  LIG1        0.1357
     13 O          -2.0709    2.5530    0.0012 O.2     1  LIG1       -0.4543
     14 H           1.1820    2.3884    0.0029 H       1  LIG1        0.0656
     15 H           0.1635    4.9220    0.0032 H       1  LIG1        0.0656
     16 C          -4.1819    4.3638    0.0007 C.ar    1  LIG1       -0.0504
     17 C          -5.2360    5.2661    0.0004 C.ar    1  LIG1       -0.0503
     18 C          -2.8616    4.8257    0.0015 C.ar    1  LIG1        0.0173
     19 C          -4.9790    6.6374    0.0009 C.ar    1  LIG1        0.0227
     20 H          -6.2606    4.9191   -0.0002 H       1  LIG1        0.0625
     21 C          -2.6111    6.2021    0.0020 C.ar    1  LIG1       -0.0504
     22 C          -3.6623    7.1050    0.0017 C.ar    1  LIG1       -0.0503
     23 H          -1.5929    6.5680    0.0026 H       1  LIG1        0.0625
     24 H          -4.3738    3.2994    0.0003 H       1  LIG1        0.0625
     25 H          -3.4780    8.1709    0.0020 H       1  LIG1        0.0625
     26 C          -6.1056    7.6006    0.0005 C.ar    1  LIG1        0.2033
     27 N          -5.8228    8.9067    0.0011 N.ar    1  LIG1       -0.1258
     28 C          -8.0444    9.2539    0.0001 C.ar    1  LIG1        0.1605
     29 N          -7.3514    7.1148   -0.0002 N.ar    1  LIG1       -0.1258
     30 N          -6.8107    9.7506    0.0009 N.ar    1  LIG1       -0.1339
     31 N          -8.3399    7.9572   -0.0004 N.ar    1  LIG1       -0.1339
     32 H          -8.8663    9.9542    0.0000 H       1  LIG1        0.1085
@<TRIPOS>BOND
     1     6     1    1
     2    31    29   ar
     3    31    28   ar
     4    20    17    1
     5    29    26   ar
     6     7     2    1
     7     1     2   ar
     8     1     5   ar
     9    32    28    1
    10    28    30   ar
    11     2     3   ar
    12    24    16    1
    13    17    16   ar
    14    17    19   ar
    15    26    19    1
    16    26    27   ar
    17     5     4   ar
    18    16    18   ar
    19     3     8    1
    20     3     4   ar
    21    19    22   ar
    22    30    27   ar
    23     4     9    1
    24    13     9   ar
    25    13    12   ar
    26    18    12    1
    27    18    21   ar
    28     9    10   ar
    29    22    21   ar
    30    22    25    1
    31    12    11   ar
    32    21    23    1
    33    10    11   ar
    34    10    14    1
    35    11    15    1
