@<TRIPOS>MOLECULE
mol_data/opt/m06hf/geoms/mol2/51254.out
 33 36 0 0 0
SMALL
GASTEIGER

@<TRIPOS>ATOM
      1 C          -1.8085   -1.9448    0.2122 C.ar    1  LIG1       -0.0236
      2 C          -0.4633   -1.8805    0.0153 C.ar    1  LIG1       -0.0540
      3 C           0.0101   -0.5332   -0.0730 C.ar    1  LIG1       -0.0440
      4 C          -0.9946    0.3817    0.0670 C.ar    1  LIG1        0.0544
      5 S          -2.5243   -0.3840    0.2994 S.2     1  LIG1       -0.0936
      6 H          -2.4235   -2.8247    0.3070 H       1  LIG1        0.0693
      7 H           0.1701   -2.7503   -0.0733 H       1  LIG1        0.0623
      8 H           1.0406   -0.2595   -0.2436 H       1  LIG1        0.0630
      9 C          -0.8823    1.8352    0.0586 C.ar    1  LIG1        0.1422
     10 C           0.1757    2.6871    0.1537 C.ar    1  LIG1       -0.0147
     11 C          -0.3714    4.0100    0.0987 C.ar    1  LIG1       -0.0147
     12 C          -1.7193    3.8572   -0.0269 C.ar    1  LIG1        0.1423
     13 O          -2.0303    2.5412   -0.0521 O.2     1  LIG1       -0.4538
     14 H           1.2084    2.4085    0.2725 H       1  LIG1        0.0656
     15 H           0.1600    4.9432    0.1691 H       1  LIG1        0.0656
     16 C          -2.8227    4.8030   -0.1246 C.ar    1  LIG1        0.0550
     17 C          -2.7529    6.1414   -0.3902 C.ar    1  LIG1       -0.0434
     18 C          -4.0356    6.7686   -0.3756 C.ar    1  LIG1       -0.0462
     19 C          -5.0531    5.8970   -0.1067 C.ar    1  LIG1        0.0200
     20 S          -4.4521    4.2932    0.1455 S.2     1  LIG1       -0.0852
     21 H          -1.8277    6.6541   -0.6087 H       1  LIG1        0.0630
     22 H          -4.2017    7.8137   -0.5940 H       1  LIG1        0.0629
     23 C          -6.9249    7.3866    0.5770 C.ar    1  LIG1       -0.0535
     24 C          -8.2802    7.6870    0.6564 C.ar    1  LIG1       -0.0612
     25 C          -6.5001    6.1937   -0.0158 C.ar    1  LIG1       -0.0113
     26 C          -9.2255    6.7931    0.1589 C.ar    1  LIG1       -0.0617
     27 H          -8.5984    8.6125    1.1178 H       1  LIG1        0.0618
     28 C          -7.4530    5.3005   -0.5145 C.ar    1  LIG1       -0.0535
     29 C          -8.8085    5.5987   -0.4228 C.ar    1  LIG1       -0.0612
     30 H          -7.1290    4.3829   -0.9896 H       1  LIG1        0.0624
     31 H         -10.2803    7.0253    0.2266 H       1  LIG1        0.0618
     32 H          -6.1888    8.0620    0.9936 H       1  LIG1        0.0624
     33 H          -9.5376    4.9019   -0.8148 H       1  LIG1        0.0618
@<TRIPOS>BOND
     1    30    28    1
     2    33    29    1
     3    21    17    1
     4    22    18    1
     5    28    29   ar
     6    28    25   ar
     7    29    26   ar
     8    17    18   ar
     9    17    16   ar
    10    18    19   ar
    11     8     3    1
    12    16    12    1
    13    16    20   ar
    14    19    25    1
    15    19    20   ar
    16     7     2    1
    17     3     2   ar
    18     3     4   ar
    19    13    12   ar
    20    13     9   ar
    21    12    11   ar
    22    25    23   ar
    23     2     1   ar
    24     9     4    1
    25     9    10   ar
    26     4     5   ar
    27    11    10   ar
    28    11    15    1
    29    10    14    1
    30    26    31    1
    31    26    24   ar
    32     1     5   ar
    33     1     6    1
    34    23    24   ar
    35    23    32    1
    36    24    27    1
