@<TRIPOS>MOLECULE
mol_data/opt/m06hf/geoms/mol2/5125-.out
 23 25 0 0 0
SMALL
GASTEIGER

@<TRIPOS>ATOM
      1 C          -1.9555   -1.8973   -0.0001 C.ar    1  LIG1       -0.0236
      2 C          -0.5962   -1.8477   -0.0006 C.ar    1  LIG1       -0.0540
      3 C          -0.0990   -0.5058   -0.0001 C.ar    1  LIG1       -0.0440
      4 C          -1.1019    0.4219    0.0007 C.ar    1  LIG1        0.0544
      5 S          -2.6587   -0.3270    0.0009 S.2     1  LIG1       -0.0936
      6 H          -2.5888   -2.7696   -0.0004 H       1  LIG1        0.0693
      7 H           0.0359   -2.7230   -0.0013 H       1  LIG1        0.0623
      8 H           0.9497   -0.2472   -0.0004 H       1  LIG1        0.0630
      9 C          -0.9815    1.8747    0.0015 C.ar    1  LIG1        0.1422
     10 C           0.0807    2.7268    0.0018 C.ar    1  LIG1       -0.0147
     11 C          -0.4717    4.0489    0.0025 C.ar    1  LIG1       -0.0147
     12 C          -1.8247    3.8954    0.0026 C.ar    1  LIG1        0.1422
     13 O          -2.1357    2.5800    0.0019 O.2     1  LIG1       -0.4538
     14 H           1.1218    2.4538    0.0016 H       1  LIG1        0.0656
     15 H           0.0654    4.9824    0.0030 H       1  LIG1        0.0656
     16 C          -2.9403    4.8324    0.0033 C.ar    1  LIG1        0.0544
     17 C          -4.2718    4.5329    0.0034 C.ar    1  LIG1       -0.0440
     18 C          -5.0934    5.7072    0.0041 C.ar    1  LIG1       -0.0540
     19 C          -4.3630    6.8542    0.0045 C.ar    1  LIG1       -0.0236
     20 S          -2.6700    6.5371    0.0039 S.2     1  LIG1       -0.0936
     21 H          -4.7191    7.8714    0.0050 H       1  LIG1        0.0693
     22 H          -4.6428    3.5190    0.0031 H       1  LIG1        0.0630
     23 H          -6.1730    5.6878    0.0044 H       1  LIG1        0.0623
@<TRIPOS>BOND
     1     7     2    1
     2     2     1   ar
     3     2     3   ar
     4     8     3    1
     5     6     1    1
     6     1     5   ar
     7     3     4   ar
     8     4     5   ar
     9     4     9    1
    10     9    10   ar
    11     9    13   ar
    12    14    10    1
    13    10    11   ar
    14    13    12   ar
    15    11    12   ar
    16    11    15    1
    17    12    16    1
    18    22    17    1
    19    16    17   ar
    20    16    20   ar
    21    17    18   ar
    22    20    19   ar
    23    18    23    1
    24    18    19   ar
    25    19    21    1
