@<TRIPOS>MOLECULE
mol_data/opt/m06hf/geoms/mol2/513-1213.out
 32 35 0 0 0
SMALL
GASTEIGER

@<TRIPOS>ATOM
      1 C          -1.9508   -1.9697    0.3819 C.ar    1  LIG1       -0.0237
      2 C          -0.8180   -1.9142   -0.3689 C.ar    1  LIG1       -0.0541
      3 C          -0.3715   -0.5698   -0.5853 C.ar    1  LIG1       -0.0455
      4 C          -1.1768    0.3552    0.0173 C.ar    1  LIG1        0.0355
      5 S          -2.4798   -0.4028    0.8587 S.2     1  LIG1       -0.0952
      6 H          -2.5063   -2.8432    0.6823 H       1  LIG1        0.0693
      7 H          -0.3230   -2.7860   -0.7694 H       1  LIG1        0.0623
      8 H           0.4820   -0.3032   -1.1924 H       1  LIG1        0.0629
      9 C          -1.0311    1.8117    0.0251 C.ar    1  LIG1        0.0536
     10 C          -1.9693    2.8219   -0.0360 C.ar    1  LIG1       -0.0352
     11 C          -1.2674    4.0531   -0.0033 C.ar    1  LIG1       -0.0328
     12 C           0.0775    3.7546    0.0796 C.ar    1  LIG1        0.0826
     13 N           0.2031    2.3957    0.0946 N.ar    1  LIG1       -0.3514
     14 H           1.0625    1.8829    0.2121 H       1  LIG1        0.1660
     15 H          -3.0331    2.6787   -0.1242 H       1  LIG1        0.0639
     16 H          -1.6817    5.0457   -0.0399 H       1  LIG1        0.0640
     17 C           1.2289    4.6407    0.1512 C.ar    1  LIG1        0.1518
     18 C           2.5642    4.4445    0.3238 C.ar    1  LIG1       -0.0137
     19 C           3.1692    5.7469    0.3043 C.ar    1  LIG1       -0.0137
     20 C           2.1529    6.6307    0.1225 C.ar    1  LIG1        0.1518
     21 O           0.9750    5.9653    0.0274 O.2     1  LIG1       -0.4519
     22 H           3.0679    3.5020    0.4577 H       1  LIG1        0.0656
     23 H           4.2125    5.9864    0.4138 H       1  LIG1        0.0656
     24 C           2.0818    8.0803    0.0132 C.ar    1  LIG1        0.0821
     25 C           3.0615    9.0501    0.0457 C.ar    1  LIG1       -0.0334
     26 C           2.4106   10.3032   -0.1102 C.ar    1  LIG1       -0.0437
     27 C           1.0632   10.0519   -0.2325 C.ar    1  LIG1        0.0023
     28 N           0.8793    8.7046   -0.1559 N.ar    1  LIG1       -0.3583
     29 H           0.0014    8.2131   -0.2168 H       1  LIG1        0.1654
     30 H           0.2320   10.7215   -0.3672 H       1  LIG1        0.0807
     31 H           4.1168    8.8734    0.1673 H       1  LIG1        0.0640
     32 H           2.8763   11.2738   -0.1306 H       1  LIG1        0.0633
@<TRIPOS>BOND
     1     8     3    1
     2     7     2    1
     3     3     2   ar
     4     3     4   ar
     5     2     1   ar
     6    30    27    1
     7    27    28   ar
     8    27    26   ar
     9    29    28    1
    10    28    24   ar
    11    32    26    1
    12    15    10    1
    13    26    25   ar
    14    16    11    1
    15    10    11   ar
    16    10     9   ar
    17    11    12   ar
    18    24    25   ar
    19    24    20    1
    20     4     9    1
    21     4     5   ar
    22     9    13   ar
    23    21    20   ar
    24    21    17   ar
    25    25    31    1
    26    12    13   ar
    27    12    17    1
    28    13    14    1
    29    20    19   ar
    30    17    18   ar
    31    19    18   ar
    32    19    23    1
    33    18    22    1
    34     1     6    1
    35     1     5   ar
