@<TRIPOS>MOLECULE
mol_data/opt/m06hf/geoms/mol2/513-12.out
 24 26 0 0 0
SMALL
GASTEIGER

@<TRIPOS>ATOM
      1 C          -2.1145   -1.8745    0.0009 C.ar    1  LIG1       -0.0237
      2 C          -0.7561   -1.8773   -0.0005 C.ar    1  LIG1       -0.0541
      3 C          -0.2064   -0.5536   -0.0006 C.ar    1  LIG1       -0.0455
      4 C          -1.1648    0.4200    0.0007 C.ar    1  LIG1        0.0355
      5 S          -2.7504   -0.2741    0.0020 S.2     1  LIG1       -0.0952
      6 H          -2.7832   -2.7194    0.0012 H       1  LIG1        0.0693
      7 H          -0.1589   -2.7764   -0.0014 H       1  LIG1        0.0623
      8 H           0.8562   -0.3573   -0.0017 H       1  LIG1        0.0629
      9 C          -1.0015    1.8735    0.0010 C.ar    1  LIG1        0.0536
     10 C          -1.9398    2.8875    0.0011 C.ar    1  LIG1       -0.0352
     11 C          -1.2394    4.1185    0.0014 C.ar    1  LIG1       -0.0328
     12 C           0.1066    3.8188    0.0016 C.ar    1  LIG1        0.0825
     13 N           0.2338    2.4597    0.0013 N.ar    1  LIG1       -0.3514
     14 H           1.1096    1.9631    0.0017 H       1  LIG1        0.1660
     15 H          -3.0092    2.7529    0.0009 H       1  LIG1        0.0639
     16 H          -1.6535    5.1122    0.0014 H       1  LIG1        0.0640
     17 C           1.2606    4.7069    0.0019 C.ar    1  LIG1        0.1509
     18 C           2.6076    4.5072    0.0018 C.ar    1  LIG1       -0.0144
     19 C           3.2004    5.8178    0.0023 C.ar    1  LIG1       -0.0233
     20 C           2.1671    6.6922    0.0027 C.ar    1  LIG1        0.0926
     21 O           0.9914    6.0288    0.0025 O.2     1  LIG1       -0.4615
     22 H           2.1099    7.7659    0.0032 H       1  LIG1        0.1029
     23 H           3.1258    3.5633    0.0014 H       1  LIG1        0.0656
     24 H           4.2487    6.0607    0.0023 H       1  LIG1        0.0649
@<TRIPOS>BOND
     1     8     3    1
     2     7     2    1
     3     3     2   ar
     4     3     4   ar
     5     2     1   ar
     6     4     9    1
     7     4     5   ar
     8    15    10    1
     9     1     6    1
    10     1     5   ar
    11     9    10   ar
    12     9    13   ar
    13    10    11   ar
    14    13    12   ar
    15    13    14    1
    16    23    18    1
    17    11    16    1
    18    11    12   ar
    19    12    17    1
    20    18    17   ar
    21    18    19   ar
    22    17    21   ar
    23    19    24    1
    24    19    20   ar
    25    21    20   ar
    26    20    22    1
