@<TRIPOS>MOLECULE
mol_data/opt/m06hf/geoms/mol2/513-8.out
 23 25 0 0 0
SMALL
GASTEIGER

@<TRIPOS>ATOM
      1 C          -2.0864   -1.8574    0.0002 C.ar    1  LIG1       -0.0237
      2 C          -0.7277   -1.8517   -0.0004 C.ar    1  LIG1       -0.0541
      3 C          -0.1864   -0.5252   -0.0002 C.ar    1  LIG1       -0.0455
      4 C          -1.1529    0.4402    0.0006 C.ar    1  LIG1        0.0355
      5 S          -2.7334   -0.2616    0.0009 S.2     1  LIG1       -0.0952
      6 H          -2.7503   -2.7063    0.0002 H       1  LIG1        0.0693
      7 H          -0.1250   -2.7470   -0.0010 H       1  LIG1        0.0623
      8 H           0.8744   -0.3194   -0.0006 H       1  LIG1        0.0629
      9 C          -0.9956    1.8953    0.0011 C.ar    1  LIG1        0.0536
     10 C          -1.9523    2.9029    0.0016 C.ar    1  LIG1       -0.0352
     11 C          -1.2698    4.1374    0.0019 C.ar    1  LIG1       -0.0326
     12 C           0.0806    3.8440    0.0018 C.ar    1  LIG1        0.0880
     13 N           0.2258    2.4878    0.0013 N.ar    1  LIG1       -0.3512
     14 H           1.1287    2.0348    0.0011 H       1  LIG1        0.1660
     15 H          -3.0193    2.7539    0.0016 H       1  LIG1        0.0639
     16 H          -1.6904    5.1287    0.0022 H       1  LIG1        0.0640
     17 C           1.2490    4.7060    0.0020 C.ar    1  LIG1        0.2193
     18 N           2.4487    4.1159    0.0016 N.ar    1  LIG1       -0.1243
     19 C           3.3136    6.1893    0.0022 C.ar    1  LIG1        0.1605
     20 N           1.0647    6.0337    0.0024 N.ar    1  LIG1       -0.1243
     21 N           3.5038    4.8747    0.0018 N.ar    1  LIG1       -0.1338
     22 N           2.1195    6.7849    0.0025 N.ar    1  LIG1       -0.1338
     23 H           4.1876    6.8223    0.0023 H       1  LIG1        0.1085
@<TRIPOS>BOND
     1     7     2    1
     2     8     3    1
     3     2     3   ar
     4     2     1   ar
     5     3     4   ar
     6     1     6    1
     7     1     5   ar
     8     4     5   ar
     9     4     9    1
    10    14    13    1
    11     9    13   ar
    12     9    10   ar
    13    13    12   ar
    14    10    15    1
    15    10    11   ar
    16    18    21   ar
    17    18    17   ar
    18    21    19   ar
    19    12    11   ar
    20    12    17    1
    21    11    16    1
    22    17    20   ar
    23    19    23    1
    24    19    22   ar
    25    20    22   ar
