@<TRIPOS>MOLECULE
mol_data/opt/m06hf/geoms/mol2/513-1312.out
 32 35 0 0 0
SMALL
GASTEIGER

@<TRIPOS>ATOM
      1 C          -2.1183   -1.7284    0.9534 C.ar    1  LIG1       -0.0237
      2 C          -0.8540   -1.8553    0.4688 C.ar    1  LIG1       -0.0541
      3 C          -0.3254   -0.6134   -0.0133 C.ar    1  LIG1       -0.0455
      4 C          -1.2035    0.4235    0.1281 C.ar    1  LIG1        0.0355
      5 S          -2.6787   -0.1017    0.8595 S.2     1  LIG1       -0.0952
      6 H          -2.7537   -2.4967    1.3622 H       1  LIG1        0.0693
      7 H          -0.3168   -2.7915    0.4375 H       1  LIG1        0.0623
      8 H           0.6443   -0.5051   -0.4777 H       1  LIG1        0.0629
      9 C          -1.0093    1.8270   -0.2405 C.ar    1  LIG1        0.0536
     10 C          -1.8772    2.7584   -0.7723 C.ar    1  LIG1       -0.0353
     11 C          -1.1492    3.9654   -0.9420 C.ar    1  LIG1       -0.0344
     12 C           0.1388    3.7327   -0.5022 C.ar    1  LIG1        0.0633
     13 N           0.2046    2.4359   -0.0838 N.ar    1  LIG1       -0.3526
     14 H           0.9953    2.0277    0.3910 H       1  LIG1        0.1660
     15 H          -2.9026    2.5704   -1.0431 H       1  LIG1        0.0639
     16 H          -1.5045    4.8840   -1.3788 H       1  LIG1        0.0639
     17 C           1.3041    4.6118   -0.4309 C.ar    1  LIG1        0.0634
     18 C           2.6485    4.3604   -0.6297 C.ar    1  LIG1       -0.0343
     19 C           3.3414    5.5824   -0.4326 C.ar    1  LIG1       -0.0328
     20 C           2.3952    6.5386   -0.1244 C.ar    1  LIG1        0.0826
     21 N           1.1730    5.9335   -0.1258 N.ar    1  LIG1       -0.3506
     22 H           0.3084    6.3923    0.1203 H       1  LIG1        0.1660
     23 H           3.0712    3.4140   -0.9242 H       1  LIG1        0.0639
     24 H           4.4018    5.7512   -0.5185 H       1  LIG1        0.0640
     25 C           2.5126    7.9591    0.1776 C.ar    1  LIG1        0.1509
     26 C           3.5603    8.8161    0.2913 C.ar    1  LIG1       -0.0144
     27 C           2.9887   10.0973    0.6137 C.ar    1  LIG1       -0.0233
     28 C           1.6501    9.9081    0.6690 C.ar    1  LIG1        0.0926
     29 O           1.3502    8.6148    0.4058 O.2     1  LIG1       -0.4615
     30 H           0.8188   10.5585    0.8733 H       1  LIG1        0.1029
     31 H           4.6009    8.5719    0.1655 H       1  LIG1        0.0656
     32 H           3.5131   11.0222    0.7806 H       1  LIG1        0.0649
@<TRIPOS>BOND
     1    16    11    1
     2    15    10    1
     3    11    10   ar
     4    11    12   ar
     5    23    18    1
     6    10     9   ar
     7    18    19   ar
     8    18    17   ar
     9    24    19    1
    10    12    17    1
    11    12    13   ar
    12     8     3    1
    13    19    20   ar
    14    17    21   ar
    15     9    13   ar
    16     9     4    1
    17    21    20   ar
    18    21    22    1
    19    20    25    1
    20    13    14    1
    21     3     4   ar
    22     3     2   ar
    23     4     5   ar
    24    31    26    1
    25    25    26   ar
    26    25    29   ar
    27    26    27   ar
    28    29    28   ar
    29     7     2    1
    30     2     1   ar
    31    27    28   ar
    32    27    32    1
    33    28    30    1
    34     5     1   ar
    35     1     6    1
