@<TRIPOS>MOLECULE
mol_data/opt/m06hf/geoms/mol2/513-5-.out
 24 26 0 0 0
SMALL
GASTEIGER

@<TRIPOS>ATOM
      1 C          -2.0480   -1.8346    0.5264 C.ar    1  LIG1       -0.0237
      2 C          -0.7815   -1.8633    0.0336 C.ar    1  LIG1       -0.0541
      3 C          -0.2800   -0.5535   -0.2626 C.ar    1  LIG1       -0.0455
      4 C          -1.1809    0.4325    0.0246 C.ar    1  LIG1        0.0355
      5 S          -2.6460   -0.2251    0.6624 S.2     1  LIG1       -0.0952
      6 H          -2.6671   -2.6670    0.8183 H       1  LIG1        0.0693
      7 H          -0.2245   -2.7735   -0.1309 H       1  LIG1        0.0623
      8 H           0.6878   -0.3594   -0.7032 H       1  LIG1        0.0629
      9 C          -1.0228    1.8779   -0.1396 C.ar    1  LIG1        0.0536
     10 C          -1.9333    2.8606   -0.4725 C.ar    1  LIG1       -0.0353
     11 C          -1.2323    4.0935   -0.5004 C.ar    1  LIG1       -0.0353
     12 C           0.0822    3.8263   -0.1778 C.ar    1  LIG1        0.0536
     13 N           0.1919    2.4796    0.0313 N.ar    1  LIG1       -0.3533
     14 H           1.0103    2.0178    0.3984 H       1  LIG1        0.1659
     15 H          -2.9719    2.6943   -0.7058 H       1  LIG1        0.0639
     16 H          -1.6207    5.0633   -0.7626 H       1  LIG1        0.0639
     17 C           1.2283    4.7284   -0.0528 C.ar    1  LIG1        0.0355
     18 C           1.2398    5.9925    0.4595 C.ar    1  LIG1       -0.0455
     19 C           2.5364    6.6016    0.4005 C.ar    1  LIG1       -0.0541
     20 C           3.4737    5.7808   -0.1433 C.ar    1  LIG1       -0.0237
     21 S           2.7993    4.2706   -0.6218 S.2     1  LIG1       -0.0952
     22 H           4.5229    5.9763   -0.2941 H       1  LIG1        0.0693
     23 H           0.3616    6.4562    0.8833 H       1  LIG1        0.0629
     24 H           2.7526    7.5958    0.7618 H       1  LIG1        0.0623
@<TRIPOS>BOND
     1    16    11    1
     2    15    10    1
     3     8     3    1
     4    21    20   ar
     5    21    17   ar
     6    11    10   ar
     7    11    12   ar
     8    10     9   ar
     9    22    20    1
    10     3     4   ar
    11     3     2   ar
    12    12    17    1
    13    12    13   ar
    14    20    19   ar
    15     9     4    1
    16     9    13   ar
    17     7     2    1
    18    17    18   ar
    19     4     5   ar
    20    13    14    1
    21     2     1   ar
    22    19    18   ar
    23    19    24    1
    24    18    23    1
    25     1     5   ar
    26     1     6    1
