@<TRIPOS>MOLECULE
mol_data/opt/m06hf/geoms/mol2/513-4-5.out
 34 37 0 0 0
SMALL
GASTEIGER

@<TRIPOS>ATOM
      1 C          -2.2992   -1.7897    0.8447 C.ar    1  LIG1       -0.0237
      2 C          -1.0240   -1.9342    0.3936 C.ar    1  LIG1       -0.0541
      3 C          -0.4539   -0.6923   -0.0380 C.ar    1  LIG1       -0.0455
      4 C          -1.3131    0.3600    0.1068 C.ar    1  LIG1        0.0355
      5 S          -2.8198   -0.1507    0.7795 S.2     1  LIG1       -0.0952
      6 H          -2.9627   -2.5543    1.2142 H       1  LIG1        0.0693
      7 H          -0.5095   -2.8824    0.3511 H       1  LIG1        0.0623
      8 H           0.5317   -0.5929   -0.4699 H       1  LIG1        0.0629
      9 C          -1.0769    1.7695   -0.2106 C.ar    1  LIG1        0.0536
     10 C          -1.9098    2.7398   -0.7288 C.ar    1  LIG1       -0.0353
     11 C          -1.1564    3.9391   -0.8142 C.ar    1  LIG1       -0.0358
     12 C           0.1137    3.6659   -0.3475 C.ar    1  LIG1        0.0469
     13 N           0.1444    2.3452    0.0046 N.ar    1  LIG1       -0.3537
     14 H           0.8980    1.9009    0.5064 H       1  LIG1        0.1659
     15 H          -2.9289    2.5834   -1.0410 H       1  LIG1        0.0639
     16 H          -1.4833    4.8850   -1.2125 H       1  LIG1        0.0639
     17 C           1.1370    5.8803    0.1412 C.ar    1  LIG1       -0.0520
     18 C           2.2415    6.7112    0.2680 C.ar    1  LIG1       -0.0529
     19 C           1.2952    4.5361   -0.2080 C.ar    1  LIG1       -0.0017
     20 C           3.5334    6.2127    0.0700 C.ar    1  LIG1       -0.0113
     21 H           2.1043    7.7559    0.5178 H       1  LIG1        0.0624
     22 C           2.5859    4.0407   -0.4190 C.ar    1  LIG1       -0.0520
     23 C           3.6929    4.8657   -0.2663 C.ar    1  LIG1       -0.0529
     24 H           2.7237    3.0090   -0.7195 H       1  LIG1        0.0624
     25 H           0.1424    6.2650    0.3250 H       1  LIG1        0.0624
     26 H           4.6904    4.4677   -0.4008 H       1  LIG1        0.0624
     27 C           4.7200    7.0865    0.2084 C.ar    1  LIG1        0.0193
     28 C           5.8483    7.0956   -0.5594 C.ar    1  LIG1       -0.0469
     29 C           6.8023    8.0783   -0.1362 C.ar    1  LIG1       -0.0541
     30 C           6.3712    8.7882    0.9405 C.ar    1  LIG1       -0.0237
     31 S           4.8162    8.2731    1.4632 S.2     1  LIG1       -0.0967
     32 H           6.8814    9.5826    1.4600 H       1  LIG1        0.0693
     33 H           5.9803    6.4487   -1.4144 H       1  LIG1        0.0629
     34 H           7.7525    8.2460   -0.6207 H       1  LIG1        0.0623
@<TRIPOS>BOND
     1    33    28    1
     2    16    11    1
     3    15    10    1
     4    11    10   ar
     5    11    12   ar
     6    10     9   ar
     7    24    22    1
     8    34    29    1
     9    28    29   ar
    10    28    27   ar
    11     8     3    1
    12    22    23   ar
    13    22    19   ar
    14    26    23    1
    15    12    19    1
    16    12    13   ar
    17    23    20   ar
    18     9    13   ar
    19     9     4    1
    20    19    17   ar
    21    29    30   ar
    22     3     4   ar
    23     3     2   ar
    24    13    14    1
    25    20    27    1
    26    20    18   ar
    27     4     5   ar
    28    17    18   ar
    29    17    25    1
    30    27    31   ar
    31    18    21    1
    32     7     2    1
    33     2     1   ar
    34     5     1   ar
    35     1     6    1
    36    30    32    1
    37    30    31   ar
