@<TRIPOS>MOLECULE
mol_data/opt/m06hf/geoms/mol2/513-12-.out
 24 26 0 0 0
SMALL
GASTEIGER

@<TRIPOS>ATOM
      1 C          -2.1008   -1.8701    0.0001 C.ar    1  LIG1       -0.0237
      2 C          -0.7431   -1.8628   -0.0004 C.ar    1  LIG1       -0.0541
      3 C          -0.2016   -0.5353   -0.0000 C.ar    1  LIG1       -0.0455
      4 C          -1.1667    0.4317    0.0007 C.ar    1  LIG1        0.0355
      5 S          -2.7476   -0.2719    0.0009 S.2     1  LIG1       -0.0952
      6 H          -2.7644   -2.7192    0.0000 H       1  LIG1        0.0693
      7 H          -0.1396   -2.7578   -0.0009 H       1  LIG1        0.0623
      8 H           0.8593   -0.3301   -0.0004 H       1  LIG1        0.0629
      9 C          -1.0110    1.8860    0.0012 C.ar    1  LIG1        0.0536
     10 C          -1.9570    2.8947    0.0015 C.ar    1  LIG1       -0.0352
     11 C          -1.2651    4.1303    0.0018 C.ar    1  LIG1       -0.0328
     12 C           0.0836    3.8368    0.0017 C.ar    1  LIG1        0.0825
     13 N           0.2178    2.4802    0.0013 N.ar    1  LIG1       -0.3514
     14 H           1.1108    2.0118    0.0012 H       1  LIG1        0.1660
     15 H          -3.0252    2.7533    0.0015 H       1  LIG1        0.0639
     16 H          -1.6959    5.1173    0.0021 H       1  LIG1        0.0640
     17 C           1.2636    4.6904    0.0020 C.ar    1  LIG1        0.1509
     18 C           1.4548    6.0359    0.0023 C.ar    1  LIG1       -0.0144
     19 C           2.8808    6.2309    0.0024 C.ar    1  LIG1       -0.0233
     20 C           3.4298    4.9946    0.0019 C.ar    1  LIG1        0.0926
     21 O           2.4579    4.0523    0.0017 O.2     1  LIG1       -0.4615
     22 H           4.4432    4.6348    0.0017 H       1  LIG1        0.1029
     23 H           0.6865    6.7895    0.0026 H       1  LIG1        0.0656
     24 H           3.4110    7.1677    0.0027 H       1  LIG1        0.0649
@<TRIPOS>BOND
     1     7     2    1
     2     8     3    1
     3     2     3   ar
     4     2     1   ar
     5     3     4   ar
     6     6     1    1
     7     1     5   ar
     8     4     5   ar
     9     4     9    1
    10     9    13   ar
    11     9    10   ar
    12    14    13    1
    13    13    12   ar
    14    15    10    1
    15    10    11   ar
    16    21    20   ar
    17    21    17   ar
    18    22    20    1
    19    12    11   ar
    20    12    17    1
    21    11    16    1
    22    20    19   ar
    23    17    18   ar
    24    18    19   ar
    25    18    23    1
    26    19    24    1
