@<TRIPOS>MOLECULE
mol_data/opt/m06hf/geoms/mol2/513-13.out
 25 27 0 0 0
SMALL
GASTEIGER

@<TRIPOS>ATOM
      1 C          -2.0637   -1.8263    0.5828 C.ar    1  LIG1       -0.0237
      2 C          -0.8052   -1.8749    0.0693 C.ar    1  LIG1       -0.0541
      3 C          -0.2958   -0.5743   -0.2517 C.ar    1  LIG1       -0.0455
      4 C          -1.1827    0.4238    0.0366 C.ar    1  LIG1        0.0355
      5 S          -2.6403   -0.2095    0.7101 S.2     1  LIG1       -0.0952
      6 H          -2.6857   -2.6487    0.8957 H       1  LIG1        0.0693
      7 H          -0.2605   -2.7926   -0.0927 H       1  LIG1        0.0623
      8 H           0.6662   -0.3943   -0.7098 H       1  LIG1        0.0629
      9 C          -1.0127    1.8658   -0.1479 C.ar    1  LIG1        0.0536
     10 C          -1.9086    2.8484   -0.5162 C.ar    1  LIG1       -0.0353
     11 C          -1.1975    4.0768   -0.5506 C.ar    1  LIG1       -0.0344
     12 C           0.1091    3.8048   -0.1963 C.ar    1  LIG1        0.0633
     13 N           0.2013    2.4651    0.0425 N.ar    1  LIG1       -0.3526
     14 H           1.0148    2.0118    0.4290 H       1  LIG1        0.1660
     15 H          -2.9422    2.6838   -0.7711 H       1  LIG1        0.0639
     16 H          -1.5766    5.0404   -0.8482 H       1  LIG1        0.0639
     17 C           1.2723    4.6799   -0.0505 C.ar    1  LIG1        0.0629
     18 C           2.6001    4.4897   -0.3693 C.ar    1  LIG1       -0.0350
     19 C           3.2945    5.6782   -0.0065 C.ar    1  LIG1       -0.0438
     20 C           2.3668    6.5483    0.5137 C.ar    1  LIG1        0.0022
     21 N           1.1505    5.9316    0.4825 N.ar    1  LIG1       -0.3595
     22 H           0.2875    6.2995    0.8490 H       1  LIG1        0.1654
     23 H           2.4771    7.5452    0.9029 H       1  LIG1        0.0807
     24 H           3.0102    3.6132   -0.8439 H       1  LIG1        0.0639
     25 H           4.3464    5.8748   -0.1247 H       1  LIG1        0.0633
@<TRIPOS>BOND
     1    16    11    1
     2    24    18    1
     3    15    10    1
     4     8     3    1
     5    11    10   ar
     6    11    12   ar
     7    10     9   ar
     8    18    17   ar
     9    18    19   ar
    10     3     4   ar
    11     3     2   ar
    12    12    17    1
    13    12    13   ar
    14     9     4    1
    15     9    13   ar
    16    25    19    1
    17     7     2    1
    18    17    21   ar
    19    19    20   ar
    20     4     5   ar
    21    13    14    1
    22     2     1   ar
    23    21    20   ar
    24    21    22    1
    25    20    23    1
    26     1     5   ar
    27     1     6    1
