@<TRIPOS>MOLECULE
mol_data/opt/m06hf/geoms/mol2/513-512-.out
 31 34 0 0 0
SMALL
GASTEIGER

@<TRIPOS>ATOM
      1 C          -2.1359   -1.8187    0.8312 C.ar    1  LIG1       -0.0237
      2 C          -0.8686   -1.9172    0.3479 C.ar    1  LIG1       -0.0541
      3 C          -0.3403   -0.6497   -0.0618 C.ar    1  LIG1       -0.0455
      4 C          -1.2229    0.3753    0.1330 C.ar    1  LIG1        0.0355
      5 S          -2.6995   -0.1918    0.8232 S.2     1  LIG1       -0.0952
      6 H          -2.7715   -2.6091    1.1950 H       1  LIG1        0.0693
      7 H          -0.3300   -2.8494    0.2679 H       1  LIG1        0.0623
      8 H           0.6315   -0.5146   -0.5149 H       1  LIG1        0.0629
      9 C          -1.0356    1.7969   -0.1617 C.ar    1  LIG1        0.0536
     10 C          -1.9224    2.7600   -0.5998 C.ar    1  LIG1       -0.0353
     11 C          -1.1991    3.9734   -0.7271 C.ar    1  LIG1       -0.0353
     12 C           0.1071    3.7130   -0.3636 C.ar    1  LIG1        0.0536
     13 N           0.1868    2.3908   -0.0260 N.ar    1  LIG1       -0.3533
     14 H           0.9895    1.9568    0.4031 H       1  LIG1        0.1659
     15 H          -2.9597    2.5909   -0.8358 H       1  LIG1        0.0639
     16 H          -1.5704    4.9204   -1.0815 H       1  LIG1        0.0639
     17 C           1.2853    4.5775   -0.3149 C.ar    1  LIG1        0.0362
     18 C           2.5831    4.2552   -0.5947 C.ar    1  LIG1       -0.0448
     19 C           3.4754    5.3621   -0.4404 C.ar    1  LIG1       -0.0433
     20 C           2.8303    6.5020   -0.0562 C.ar    1  LIG1        0.0550
     21 S           1.1351    6.2369    0.1520 S.2     1  LIG1       -0.0837
     22 H           2.8871    3.2764   -0.9369 H       1  LIG1        0.0630
     23 H           4.5387    5.3256   -0.6217 H       1  LIG1        0.0630
     24 C           3.4237    7.8148    0.1694 C.ar    1  LIG1        0.1413
     25 C           2.9152    9.0205    0.5407 C.ar    1  LIG1       -0.0154
     26 C           4.0323    9.9244    0.5816 C.ar    1  LIG1       -0.0233
     27 C           5.1154    9.1904    0.2329 C.ar    1  LIG1        0.0926
     28 O           4.7582    7.9131   -0.0180 O.2     1  LIG1       -0.4624
     29 H           6.1598    9.4230    0.1241 H       1  LIG1        0.1029
     30 H           1.8835    9.2412    0.7569 H       1  LIG1        0.0655
     31 H           4.0200   10.9701    0.8361 H       1  LIG1        0.0649
@<TRIPOS>BOND
     1    16    11    1
     2    22    18    1
     3    15    10    1
     4    11    10   ar
     5    11    12   ar
     6    23    19    1
     7    10     9   ar
     8    18    19   ar
     9    18    17   ar
    10     8     3    1
    11    19    20   ar
    12    12    17    1
    13    12    13   ar
    14    17    21   ar
    15     9    13   ar
    16     9     4    1
    17     3     4   ar
    18     3     2   ar
    19    20    21   ar
    20    20    24    1
    21    13    14    1
    22    28    24   ar
    23    28    27   ar
    24    29    27    1
    25     4     5   ar
    26    24    25   ar
    27    27    26   ar
    28     7     2    1
    29     2     1   ar
    30    25    26   ar
    31    25    30    1
    32    26    31    1
    33     5     1   ar
    34     1     6    1
