@<TRIPOS>MOLECULE
mol_data/opt/m06hf/geoms/mol2/513-48.out
 33 36 0 0 0
SMALL
GASTEIGER

@<TRIPOS>ATOM
      1 C          -2.2537   -1.9310   -0.0001 C.ar    1  LIG1       -0.0237
      2 C          -0.8953   -1.9664   -0.0006 C.ar    1  LIG1       -0.0541
      3 C          -0.3136   -0.6562   -0.0004 C.ar    1  LIG1       -0.0455
      4 C          -1.2508    0.3389    0.0003 C.ar    1  LIG1        0.0355
      5 S          -2.8490   -0.3160    0.0000 S.2     1  LIG1       -0.0952
      6 H          -2.9422   -2.7601   -0.0001 H       1  LIG1        0.0693
      7 H          -0.3201   -2.8803   -0.0011 H       1  LIG1        0.0623
      8 H           0.7534   -0.4856   -0.0007 H       1  LIG1        0.0629
      9 C          -1.0611    1.7892    0.0009 C.ar    1  LIG1        0.0536
     10 C          -1.9881    2.8151    0.0005 C.ar    1  LIG1       -0.0353
     11 C          -1.2696    4.0316    0.0014 C.ar    1  LIG1       -0.0358
     12 C           0.0797    3.7247    0.0022 C.ar    1  LIG1        0.0469
     13 N           0.1774    2.3596    0.0019 N.ar    1  LIG1       -0.3537
     14 H           1.0392    1.8406    0.0025 H       1  LIG1        0.1659
     15 H          -3.0590    2.6964   -0.0004 H       1  LIG1        0.0639
     16 H          -1.6962    5.0197    0.0015 H       1  LIG1        0.0639
     17 C           2.5637    4.1112    0.0036 C.ar    1  LIG1       -0.0520
     18 C           3.6551    4.9686    0.0045 C.ar    1  LIG1       -0.0503
     19 C           1.2550    4.6098    0.0032 C.ar    1  LIG1       -0.0017
     20 C           3.4563    6.3486    0.0049 C.ar    1  LIG1        0.0227
     21 H           4.6640    4.5787    0.0048 H       1  LIG1        0.0625
     22 C           1.0729    5.9997    0.0036 C.ar    1  LIG1       -0.0520
     23 C           2.1568    6.8615    0.0044 C.ar    1  LIG1       -0.0503
     24 H           0.0722    6.4086    0.0032 H       1  LIG1        0.0624
     25 H           2.7537    3.0457    0.0033 H       1  LIG1        0.0624
     26 H           2.0105    7.9331    0.0047 H       1  LIG1        0.0625
     27 C           4.6174    7.2677    0.0057 C.ar    1  LIG1        0.2033
     28 N           5.8456    6.7388    0.0061 N.ar    1  LIG1       -0.1258
     29 C           6.6148    8.8523    0.0071 C.ar    1  LIG1        0.1605
     30 N           4.3820    8.5838    0.0060 N.ar    1  LIG1       -0.1258
     31 N           6.8631    7.5454    0.0068 N.ar    1  LIG1       -0.1339
     32 N           5.3987    9.3915    0.0067 N.ar    1  LIG1       -0.1339
     33 H           7.4610    9.5226    0.0076 H       1  LIG1        0.1085
@<TRIPOS>BOND
     1     7     2    1
     2     8     3    1
     3     2     3   ar
     4     2     1   ar
     5     3     4   ar
     6    15    10    1
     7     1     6    1
     8     1     5   ar
     9     5     4   ar
    10     4     9    1
    11    10     9   ar
    12    10    11   ar
    13     9    13   ar
    14    11    16    1
    15    11    12   ar
    16    13    12   ar
    17    13    14    1
    18    12    19    1
    19    19    22   ar
    20    19    17   ar
    21    24    22    1
    22    25    17    1
    23    22    23   ar
    24    17    18   ar
    25    23    26    1
    26    23    20   ar
    27    18    21    1
    28    18    20   ar
    29    20    27    1
    30    27    30   ar
    31    27    28   ar
    32    30    32   ar
    33    28    31   ar
    34    32    29   ar
    35    31    29   ar
    36    29    33    1
