@<TRIPOS>MOLECULE
mol_data/opt/m06hf/geoms/mol2/513-.out
 17 18 0 0 0
SMALL
GASTEIGER

@<TRIPOS>ATOM
      1 C          -2.0550   -1.8265    0.0003 C.ar    1  LIG1       -0.0237
      2 C          -0.6975   -1.8149   -0.0007 C.ar    1  LIG1       -0.0541
      3 C          -0.1599   -0.4855   -0.0005 C.ar    1  LIG1       -0.0455
      4 C          -1.1272    0.4793    0.0007 C.ar    1  LIG1        0.0354
      5 S          -2.7053   -0.2294    0.0014 S.2     1  LIG1       -0.0952
      6 H          -2.7153   -2.6777    0.0004 H       1  LIG1        0.0693
      7 H          -0.0909   -2.7081   -0.0016 H       1  LIG1        0.0623
      8 H           0.9007   -0.2791   -0.0013 H       1  LIG1        0.0629
      9 C          -0.9792    1.9357    0.0013 C.ar    1  LIG1        0.0531
     10 C          -1.9263    2.9388    0.0013 C.ar    1  LIG1       -0.0359
     11 C          -1.2329    4.1794    0.0020 C.ar    1  LIG1       -0.0438
     12 C           0.1109    3.8918    0.0023 C.ar    1  LIG1        0.0022
     13 N           0.2504    2.5357    0.0019 N.ar    1  LIG1       -0.3603
     14 H           1.1285    2.0442    0.0022 H       1  LIG1        0.1653
     15 H           0.9705    4.5390    0.0028 H       1  LIG1        0.0807
     16 H          -2.9941    2.7930    0.0008 H       1  LIG1        0.0639
     17 H          -1.6687    5.1640    0.0021 H       1  LIG1        0.0633
@<TRIPOS>BOND
     1     7     2    1
     2     8     3    1
     3     2     3   ar
     4     2     1   ar
     5     3     4   ar
     6     1     6    1
     7     1     5   ar
     8     4     9    1
     9     4     5   ar
    10    16    10    1
    11     9    10   ar
    12     9    13   ar
    13    10    11   ar
    14    13    14    1
    15    13    12   ar
    16    11    17    1
    17    11    12   ar
    18    12    15    1
