@<TRIPOS>MOLECULE
mol_data/opt/m06hf/geoms/mol2/513-13-.out
 25 27 0 0 0
SMALL
GASTEIGER

@<TRIPOS>ATOM
      1 C          -2.1069   -1.8310    0.5264 C.ar    1  LIG1       -0.0237
      2 C          -0.8034   -1.8765    0.1426 C.ar    1  LIG1       -0.0541
      3 C          -0.2750   -0.5769   -0.1516 C.ar    1  LIG1       -0.0455
      4 C          -1.1933    0.4189    0.0268 C.ar    1  LIG1        0.0355
      5 S          -2.7084   -0.2178    0.5605 S.2     1  LIG1       -0.0952
      6 H          -2.7509   -2.6534    0.7912 H       1  LIG1        0.0693
      7 H          -0.2375   -2.7918    0.0549 H       1  LIG1        0.0623
      8 H           0.7276   -0.3980   -0.5132 H       1  LIG1        0.0629
      9 C          -1.0149    1.8588   -0.1627 C.ar    1  LIG1        0.0536
     10 C          -1.8897    2.8390   -0.5825 C.ar    1  LIG1       -0.0353
     11 C          -1.1782    4.0687   -0.5851 C.ar    1  LIG1       -0.0344
     12 C           0.1058    3.8025   -0.1631 C.ar    1  LIG1        0.0633
     13 N           0.1907    2.4577    0.0823 N.ar    1  LIG1       -0.3526
     14 H           0.9612    2.0105    0.5548 H       1  LIG1        0.1660
     15 H          -2.9094    2.6735   -0.8886 H       1  LIG1        0.0639
     16 H          -1.5389    5.0363   -0.8905 H       1  LIG1        0.0639
     17 C           1.2578    4.6875    0.0293 C.ar    1  LIG1        0.0629
     18 C           1.3693    5.9003    0.6695 C.ar    1  LIG1       -0.0350
     19 C           2.7240    6.3211    0.5479 C.ar    1  LIG1       -0.0438
     20 C           3.3905    5.3489   -0.1576 C.ar    1  LIG1        0.0022
     21 N           2.4963    4.3634   -0.4615 N.ar    1  LIG1       -0.3595
     22 H           2.6753    3.5727   -1.0598 H       1  LIG1        0.1654
     23 H           4.4193    5.2819   -0.4659 H       1  LIG1        0.0807
     24 H           0.5666    6.4023    1.1824 H       1  LIG1        0.0639
     25 H           3.1591    7.2240    0.9417 H       1  LIG1        0.0633
@<TRIPOS>BOND
     1    22    21    1
     2    16    11    1
     3    15    10    1
     4    11    10   ar
     5    11    12   ar
     6    10     9   ar
     7     8     3    1
     8    23    20    1
     9    21    20   ar
    10    21    17   ar
    11    12    17    1
    12    12    13   ar
    13     9     4    1
    14     9    13   ar
    15    20    19   ar
    16     3     4   ar
    17     3     2   ar
    18     4     5   ar
    19    17    18   ar
    20     7     2    1
    21    13    14    1
    22     2     1   ar
    23     1     5   ar
    24     1     6    1
    25    19    18   ar
    26    19    25    1
    27    18    24    1
