@<TRIPOS>MOLECULE
mol_data/opt/m06hf/geoms/mol2/513-4-.out
 27 29 0 0 0
SMALL
GASTEIGER

@<TRIPOS>ATOM
      1 C          -2.1179   -1.8313   -0.6002 C.ar    1  LIG1       -0.0237
      2 C          -0.8458   -1.8948   -0.1226 C.ar    1  LIG1       -0.0541
      3 C          -0.3224   -0.6023    0.2090 C.ar    1  LIG1       -0.0455
      4 C          -1.2122    0.4048   -0.0357 C.ar    1  LIG1        0.0355
      5 S          -2.6914   -0.2101   -0.6784 S.2     1  LIG1       -0.0952
      6 H          -2.7526   -2.6450   -0.9104 H       1  LIG1        0.0693
      7 H          -0.3011   -2.8179    0.0070 H       1  LIG1        0.0623
      8 H           0.6530   -0.4348    0.6436 H       1  LIG1        0.0629
      9 C          -1.0268    1.8424    0.1666 C.ar    1  LIG1        0.0536
     10 C          -1.9057    2.8283    0.5653 C.ar    1  LIG1       -0.0353
     11 C          -1.1853    4.0509    0.5854 C.ar    1  LIG1       -0.0358
     12 C           0.1115    3.7757    0.2009 C.ar    1  LIG1        0.0469
     13 N           0.1887    2.4324   -0.0416 N.ar    1  LIG1       -0.3537
     14 H           0.9750    1.9709   -0.4725 H       1  LIG1        0.1659
     15 H          -2.9342    2.6703    0.8442 H       1  LIG1        0.0639
     16 H          -1.5525    5.0166    0.8910 H       1  LIG1        0.0639
     17 C           1.1145    5.9714   -0.4046 C.ar    1  LIG1       -0.0526
     18 C           2.2114    6.8150   -0.5380 C.ar    1  LIG1       -0.0611
     19 C           1.2824    4.6606    0.0514 C.ar    1  LIG1       -0.0017
     20 C           3.4913    6.3554   -0.2343 C.ar    1  LIG1       -0.0617
     21 H           2.0691    7.8278   -0.8920 H       1  LIG1        0.0618
     22 C           2.5678    4.2084    0.3659 C.ar    1  LIG1       -0.0526
     23 C           3.6659    5.0492    0.2154 C.ar    1  LIG1       -0.0611
     24 H           2.7029    3.2074    0.7580 H       1  LIG1        0.0624
     25 H           4.3453    7.0100   -0.3462 H       1  LIG1        0.0618
     26 H           0.1227    6.3136   -0.6708 H       1  LIG1        0.0624
     27 H           4.6557    4.6887    0.4639 H       1  LIG1        0.0618
@<TRIPOS>BOND
     1     6     1    1
     2    21    18    1
     3     5     1   ar
     4     5     4   ar
     5    26    17    1
     6     1     2   ar
     7    18    17   ar
     8    18    20   ar
     9    14    13    1
    10    17    19   ar
    11    25    20    1
    12    20    23   ar
    13     2     7    1
    14     2     3   ar
    15    13     9   ar
    16    13    12   ar
    17     4     9    1
    18     4     3   ar
    19    19    12    1
    20    19    22   ar
    21     9    10   ar
    22    12    11   ar
    23     3     8    1
    24    23    22   ar
    25    23    27    1
    26    22    24    1
    27    10    11   ar
    28    10    15    1
    29    11    16    1
