@<TRIPOS>MOLECULE
mol_data/opt/m06hf/geoms/mol2/513.out
 17 18 0 0 0
SMALL
GASTEIGER

@<TRIPOS>ATOM
      1 C          -2.0415   -1.8437    0.0002 C.ar    1  LIG1       -0.0237
      2 C          -0.6844   -1.8067   -0.0011 C.ar    1  LIG1       -0.0541
      3 C          -0.1657   -0.4697   -0.0007 C.ar    1  LIG1       -0.0455
      4 C          -1.1444    0.4803    0.0009 C.ar    1  LIG1        0.0354
      5 S          -2.7156   -0.2560    0.0017 S.2     1  LIG1       -0.0952
      6 H          -2.6891   -2.7044    0.0002 H       1  LIG1        0.0693
      7 H          -0.0653   -2.6913   -0.0023 H       1  LIG1        0.0623
      8 H           0.8870   -0.2309   -0.0016 H       1  LIG1        0.0629
      9 C          -0.9800    1.9354    0.0019 C.ar    1  LIG1        0.0531
     10 C           0.1686    2.7002    0.0031 C.ar    1  LIG1       -0.0359
     11 C          -0.2272    4.0638    0.0036 C.ar    1  LIG1       -0.0438
     12 C          -1.6015    4.0877    0.0028 C.ar    1  LIG1        0.0022
     13 N          -2.0429    2.7980    0.0017 N.ar    1  LIG1       -0.3603
     14 H          -3.0120    2.5222    0.0008 H       1  LIG1        0.1653
     15 H          -2.2925    4.9123    0.0029 H       1  LIG1        0.0807
     16 H           1.1757    2.3186    0.0037 H       1  LIG1        0.0639
     17 H           0.4191    4.9245    0.0046 H       1  LIG1        0.0633
@<TRIPOS>BOND
     1     7     2    1
     2     8     3    1
     3     2     3   ar
     4     2     1   ar
     5     3     4   ar
     6     1     6    1
     7     1     5   ar
     8    14    13    1
     9     4     5   ar
    10     4     9    1
    11    13     9   ar
    12    13    12   ar
    13     9    10   ar
    14    12    15    1
    15    12    11   ar
    16    10    11   ar
    17    10    16    1
    18    11    17    1
