@<TRIPOS>MOLECULE
mol_data/opt/m06hf/geoms/mol2/513124.out
 34 37 0 0 0
SMALL
GASTEIGER

@<TRIPOS>ATOM
      1 C          -1.9265   -1.9138    0.0011 C.ar    1  LIG1       -0.0237
      2 C          -0.5684   -1.8796   -0.0015 C.ar    1  LIG1       -0.0541
      3 C          -0.0484   -0.5443   -0.0017 C.ar    1  LIG1       -0.0455
      4 C          -1.0286    0.4060    0.0008 C.ar    1  LIG1        0.0355
      5 S          -2.5993   -0.3273    0.0031 S.2     1  LIG1       -0.0952
      6 H          -2.5747   -2.7742    0.0019 H       1  LIG1        0.0693
      7 H           0.0483   -2.7658   -0.0033 H       1  LIG1        0.0623
      8 H           1.0044   -0.3057   -0.0037 H       1  LIG1        0.0629
      9 C          -0.8660    1.8596    0.0016 C.ar    1  LIG1        0.0536
     10 C           0.2840    2.6293    0.0018 C.ar    1  LIG1       -0.0352
     11 C          -0.1110    3.9878    0.0028 C.ar    1  LIG1       -0.0328
     12 C          -1.4918    4.0083    0.0034 C.ar    1  LIG1        0.0826
     13 N          -1.9286    2.7169    0.0026 N.ar    1  LIG1       -0.3514
     14 H          -2.9048    2.4609    0.0026 H       1  LIG1        0.1660
     15 H           1.2915    2.2503    0.0013 H       1  LIG1        0.0639
     16 H           0.5309    4.8524    0.0033 H       1  LIG1        0.0640
     17 C          -2.4414    5.1095    0.0047 C.ar    1  LIG1        0.1518
     18 C          -2.3138    6.4635    0.0055 C.ar    1  LIG1       -0.0138
     19 C          -3.6492    6.9844    0.0067 C.ar    1  LIG1       -0.0152
     20 C          -4.4874    5.9115    0.0064 C.ar    1  LIG1        0.1358
     21 O          -3.7518    4.7700    0.0052 O.2     1  LIG1       -0.4534
     22 H          -1.3913    7.0179    0.0053 H       1  LIG1        0.0656
     23 H          -3.9348    8.0219    0.0076 H       1  LIG1        0.0656
     24 C          -6.7662    6.9068    0.0079 C.ar    1  LIG1       -0.0511
     25 C          -8.1488    6.7750    0.0088 C.ar    1  LIG1       -0.0611
     26 C          -5.9503    5.7710    0.0072 C.ar    1  LIG1        0.0173
     27 C          -8.7334    5.5098    0.0088 C.ar    1  LIG1       -0.0617
     28 H          -8.7700    7.6610    0.0093 H       1  LIG1        0.0618
     29 C          -6.5386    4.5040    0.0073 C.ar    1  LIG1       -0.0511
     30 C          -7.9239    4.3775    0.0081 C.ar    1  LIG1       -0.0611
     31 H          -5.9094    3.6244    0.0068 H       1  LIG1        0.0625
     32 H          -9.8106    5.4084    0.0094 H       1  LIG1        0.0618
     33 H          -6.3195    7.8922    0.0078 H       1  LIG1        0.0625
     34 H          -8.3702    3.3918    0.0081 H       1  LIG1        0.0618
@<TRIPOS>BOND
     1     8     3    1
     2     7     2    1
     3     3     2   ar
     4     3     4   ar
     5     2     1   ar
     6     4     9    1
     7     4     5   ar
     8     1     6    1
     9     1     5   ar
    10    15    10    1
    11     9    10   ar
    12     9    13   ar
    13    10    11   ar
    14    13    14    1
    15    13    12   ar
    16    11    16    1
    17    11    12   ar
    18    12    17    1
    19    17    21   ar
    20    17    18   ar
    21    21    20   ar
    22    22    18    1
    23    18    19   ar
    24    20    19   ar
    25    20    26    1
    26    19    23    1
    27    31    29    1
    28    26    29   ar
    29    26    24   ar
    30    29    30   ar
    31    33    24    1
    32    24    25   ar
    33    30    34    1
    34    30    27   ar
    35    25    27   ar
    36    25    28    1
    37    27    32    1
