@<TRIPOS>MOLECULE
mol_data/opt/m06hf/geoms/mol2/51312-.out
 24 26 0 0 0
SMALL
GASTEIGER

@<TRIPOS>ATOM
      1 C          -1.9450   -1.8986    0.2305 C.ar    1  LIG1       -0.0237
      2 C          -0.7291   -1.8158   -0.3705 C.ar    1  LIG1       -0.0541
      3 C          -0.2510   -0.4670   -0.4616 C.ar    1  LIG1       -0.0455
      4 C          -1.1156    0.4356    0.0839 C.ar    1  LIG1        0.0355
      5 S          -2.5193   -0.3525    0.7251 S.2     1  LIG1       -0.0952
      6 H          -2.5372   -2.7799    0.4158 H       1  LIG1        0.0693
      7 H          -0.1928   -2.6724   -0.7506 H       1  LIG1        0.0623
      8 H           0.6762   -0.1740   -0.9314 H       1  LIG1        0.0629
      9 C          -0.9467    1.8861    0.1855 C.ar    1  LIG1        0.0536
     10 C           0.1793    2.6399    0.4456 C.ar    1  LIG1       -0.0352
     11 C          -0.2079    4.0043    0.4167 C.ar    1  LIG1       -0.0328
     12 C          -1.5596    4.0370    0.1466 C.ar    1  LIG1        0.0825
     13 N          -1.9933    2.7495    0.0128 N.ar    1  LIG1       -0.3514
     14 H          -2.9127    2.4772   -0.2995 H       1  LIG1        0.1660
     15 H           1.1556    2.2403    0.6632 H       1  LIG1        0.0639
     16 H           0.4093    4.8688    0.5914 H       1  LIG1        0.0640
     17 C          -2.4668    5.1686    0.0104 C.ar    1  LIG1        0.1509
     18 C          -3.8213    5.2903    0.0633 C.ar    1  LIG1       -0.0144
     19 C          -4.1006    6.6838   -0.1583 C.ar    1  LIG1       -0.0233
     20 C          -2.8963    7.2819   -0.3168 C.ar    1  LIG1        0.0926
     21 O          -1.9031    6.3728   -0.2192 O.2     1  LIG1       -0.4615
     22 H          -2.5961    8.2983   -0.4977 H       1  LIG1        0.1029
     23 H          -4.5319    4.5060    0.2622 H       1  LIG1        0.0656
     24 H          -5.0645    7.1619   -0.1854 H       1  LIG1        0.0649
@<TRIPOS>BOND
     1     8     3    1
     2     7     2    1
     3    22    20    1
     4     3     2   ar
     5     3     4   ar
     6     2     1   ar
     7    20    21   ar
     8    20    19   ar
     9    14    13    1
    10    21    17   ar
    11    24    19    1
    12    19    18   ar
    13    17    18   ar
    14    17    12    1
    15    13    12   ar
    16    13     9   ar
    17    18    23    1
    18     4     9    1
    19     4     5   ar
    20    12    11   ar
    21     9    10   ar
    22     1     6    1
    23     1     5   ar
    24    11    10   ar
    25    11    16    1
    26    10    15    1
