@<TRIPOS>MOLECULE
mol_data/opt/m06hf/geoms/mol2/51313.out
 25 27 0 0 0
SMALL
GASTEIGER

@<TRIPOS>ATOM
      1 C          -1.9199   -1.9329   -0.0110 C.ar    1  LIG1       -0.0237
      2 C          -0.6404   -1.8140   -0.4543 C.ar    1  LIG1       -0.0541
      3 C          -0.1716   -0.4588   -0.4261 C.ar    1  LIG1       -0.0455
      4 C          -1.1066    0.4124    0.0500 C.ar    1  LIG1        0.0355
      5 S          -2.5688   -0.4149    0.4794 S.2     1  LIG1       -0.0952
      6 H          -2.5196   -2.8256    0.0590 H       1  LIG1        0.0693
      7 H          -0.0516   -2.6486   -0.8047 H       1  LIG1        0.0623
      8 H           0.8017   -0.1375   -0.7661 H       1  LIG1        0.0629
      9 C          -0.9675    1.8574    0.2383 C.ar    1  LIG1        0.0536
     10 C           0.1083    2.6016    0.6733 C.ar    1  LIG1       -0.0353
     11 C          -0.2869    3.9661    0.6591 C.ar    1  LIG1       -0.0344
     12 C          -1.5909    4.0126    0.2168 C.ar    1  LIG1        0.0633
     13 N          -1.9927    2.7260   -0.0260 N.ar    1  LIG1       -0.3526
     14 H          -2.8477    2.4751   -0.4993 H       1  LIG1        0.1660
     15 H           1.0493    2.1933    1.0014 H       1  LIG1        0.0639
     16 H           0.2900    4.8214    0.9673 H       1  LIG1        0.0639
     17 C          -2.4886    5.1491   -0.0020 C.ar    1  LIG1        0.0629
     18 C          -2.2783    6.3525   -0.6355 C.ar    1  LIG1       -0.0350
     19 C          -3.4924    7.0913   -0.5553 C.ar    1  LIG1       -0.0438
     20 C          -4.4003    6.3113    0.1190 C.ar    1  LIG1        0.0022
     21 N          -3.7847    5.1371    0.4446 N.ar    1  LIG1       -0.3595
     22 H          -4.1748    4.4107    1.0240 H       1  LIG1        0.1654
     23 H          -5.4241    6.4985    0.3913 H       1  LIG1        0.0807
     24 H          -1.3606    6.6433   -1.1183 H       1  LIG1        0.0639
     25 H          -3.6800    8.0731   -0.9554 H       1  LIG1        0.0633
@<TRIPOS>BOND
     1    24    18    1
     2    25    19    1
     3     7     2    1
     4     8     3    1
     5    18    19   ar
     6    18    17   ar
     7    19    20   ar
     8    14    13    1
     9     2     3   ar
    10     2     1   ar
    11     3     4   ar
    12    13    12   ar
    13    13     9   ar
    14     1     6    1
    15     1     5   ar
    16    17    12    1
    17    17    21   ar
    18     4     9    1
    19     4     5   ar
    20    20    23    1
    21    20    21   ar
    22    12    11   ar
    23     9    10   ar
    24    21    22    1
    25    11    10   ar
    26    11    16    1
    27    10    15    1
