@<TRIPOS>MOLECULE
mol_data/opt/m06hf/geoms/mol2/51313-.out
 25 27 0 0 0
SMALL
GASTEIGER

@<TRIPOS>ATOM
      1 C          -1.9255   -1.9226    0.0362 C.ar    1  LIG1       -0.0237
      2 C          -0.6626   -1.8070   -0.4531 C.ar    1  LIG1       -0.0541
      3 C          -0.1918   -0.4527   -0.4452 C.ar    1  LIG1       -0.0455
      4 C          -1.1087    0.4207    0.0619 C.ar    1  LIG1        0.0355
      5 S          -2.5545   -0.4027    0.5448 S.2     1  LIG1       -0.0952
      6 H          -2.5239   -2.8141    0.1306 H       1  LIG1        0.0693
      7 H          -0.0875   -2.6433   -0.8217 H       1  LIG1        0.0623
      8 H           0.7691   -0.1339   -0.8203 H       1  LIG1        0.0629
      9 C          -0.9603    1.8661    0.2404 C.ar    1  LIG1        0.0536
     10 C           0.1372    2.6092    0.6217 C.ar    1  LIG1       -0.0353
     11 C          -0.2573    3.9732    0.6284 C.ar    1  LIG1       -0.0344
     12 C          -1.5848    4.0181    0.2510 C.ar    1  LIG1        0.0633
     13 N          -1.9931    2.7367    0.0233 N.ar    1  LIG1       -0.3526
     14 H          -2.8904    2.4908   -0.3669 H       1  LIG1        0.1660
     15 H           1.0934    2.2010    0.9033 H       1  LIG1        0.0639
     16 H           0.3374    4.8218    0.9239 H       1  LIG1        0.0639
     17 C          -2.5007    5.1453    0.0759 C.ar    1  LIG1        0.0629
     18 C          -3.8402    5.2840    0.3713 C.ar    1  LIG1       -0.0350
     19 C          -4.2233    6.5986   -0.0169 C.ar    1  LIG1       -0.0438
     20 C          -3.1058    7.2128   -0.5297 C.ar    1  LIG1        0.0022
     21 N          -2.0737    6.3232   -0.4682 N.ar    1  LIG1       -0.3595
     22 H          -1.1425    6.4684   -0.8237 H       1  LIG1        0.1654
     23 H          -2.9671    8.2014   -0.9316 H       1  LIG1        0.0807
     24 H          -4.4554    4.5383    0.8473 H       1  LIG1        0.0639
     25 H          -5.1991    7.0432    0.0799 H       1  LIG1        0.0633
@<TRIPOS>BOND
     1    23    20    1
     2    22    21    1
     3     7     2    1
     4     8     3    1
     5    20    21   ar
     6    20    19   ar
     7    21    17   ar
     8     2     3   ar
     9     2     1   ar
    10     3     4   ar
    11    14    13    1
    12    19    25    1
    13    19    18   ar
    14    13     9   ar
    15    13    12   ar
    16     1     6    1
    17     1     5   ar
    18     4     9    1
    19     4     5   ar
    20    17    12    1
    21    17    18   ar
    22     9    10   ar
    23    12    11   ar
    24    18    24    1
    25    10    11   ar
    26    10    15    1
    27    11    16    1
