@<TRIPOS>MOLECULE
mol_data/opt/m06hf/geoms/mol2/51312.out
 24 26 0 0 0
SMALL
GASTEIGER

@<TRIPOS>ATOM
      1 C          -1.9123   -1.8902    0.3917 C.ar    1  LIG1       -0.0237
      2 C          -0.7526   -1.8242   -0.3147 C.ar    1  LIG1       -0.0541
      3 C          -0.2912   -0.4778   -0.4886 C.ar    1  LIG1       -0.0455
      4 C          -1.1100    0.4401    0.1005 C.ar    1  LIG1        0.0355
      5 S          -2.4485   -0.3298    0.8850 S.2     1  LIG1       -0.0952
      6 H          -2.4820   -2.7660    0.6560 H       1  LIG1        0.0693
      7 H          -0.2470   -2.6911   -0.7125 H       1  LIG1        0.0623
      8 H           0.5911   -0.1978   -1.0449 H       1  LIG1        0.0629
      9 C          -0.9363    1.8929    0.1408 C.ar    1  LIG1        0.0536
     10 C           0.2096    2.6508    0.2816 C.ar    1  LIG1       -0.0352
     11 C          -0.1768    4.0141    0.2500 C.ar    1  LIG1       -0.0328
     12 C          -1.5486    4.0425    0.0983 C.ar    1  LIG1        0.0825
     13 N          -1.9911    2.7546    0.0375 N.ar    1  LIG1       -0.3514
     14 H          -2.9515    2.4945   -0.1355 H       1  LIG1        0.1660
     15 H           1.2012    2.2540    0.4195 H       1  LIG1        0.0639
     16 H           0.4636    4.8757    0.3350 H       1  LIG1        0.0640
     17 C          -2.4885    5.1513   -0.0001 C.ar    1  LIG1        0.1509
     18 C          -2.3652    6.5007    0.0993 C.ar    1  LIG1       -0.0144
     19 C          -3.6872    7.0329   -0.1018 C.ar    1  LIG1       -0.0233
     20 C          -4.4949    5.9662   -0.3026 C.ar    1  LIG1        0.0926
     21 O          -3.7783    4.8197   -0.2444 O.2     1  LIG1       -0.4615
     22 H          -5.5483    5.8615   -0.4903 H       1  LIG1        0.1029
     23 H          -1.4583    7.0464    0.2939 H       1  LIG1        0.0656
     24 H          -3.9829    8.0679   -0.0924 H       1  LIG1        0.0649
@<TRIPOS>BOND
     1     8     3    1
     2     7     2    1
     3    22    20    1
     4     3     2   ar
     5     3     4   ar
     6     2     1   ar
     7    20    21   ar
     8    20    19   ar
     9    21    17   ar
    10    14    13    1
    11    19    24    1
    12    19    18   ar
    13    17    12    1
    14    17    18   ar
    15    13    12   ar
    16    13     9   ar
    17    12    11   ar
    18    18    23    1
    19     4     9    1
    20     4     5   ar
    21     9    10   ar
    22    11    10   ar
    23    11    16    1
    24    10    15    1
    25     1     6    1
    26     1     5   ar
