@<TRIPOS>MOLECULE
mol_data/opt/m06hf/geoms/mol2/5134-.out
 27 29 0 0 0
SMALL
GASTEIGER

@<TRIPOS>ATOM
      1 C          -1.9174   -1.9447   -0.0103 C.ar    1  LIG1       -0.0237
      2 C          -0.6526   -1.8212   -0.4930 C.ar    1  LIG1       -0.0541
      3 C          -0.1829   -0.4664   -0.4645 C.ar    1  LIG1       -0.0455
      4 C          -1.1023    0.3994    0.0506 C.ar    1  LIG1        0.0355
      5 S          -2.5499   -0.4324    0.5177 S.2     1  LIG1       -0.0952
      6 H          -2.5148   -2.8381    0.0695 H       1  LIG1        0.0693
      7 H          -0.0756   -2.6518   -0.8710 H       1  LIG1        0.0623
      8 H           0.7792   -0.1412   -0.8313 H       1  LIG1        0.0629
      9 C          -0.9560    1.8422    0.2505 C.ar    1  LIG1        0.0536
     10 C           0.1331    2.5798    0.6650 C.ar    1  LIG1       -0.0353
     11 C          -0.2575    3.9442    0.6642 C.ar    1  LIG1       -0.0358
     12 C          -1.5754    3.9988    0.2572 C.ar    1  LIG1        0.0469
     13 N          -1.9834    2.7157    0.0198 N.ar    1  LIG1       -0.3537
     14 H          -2.8598    2.4654   -0.4130 H       1  LIG1        0.1659
     15 H           1.0802    2.1668    0.9685 H       1  LIG1        0.0639
     16 H           0.3339    4.7905    0.9717 H       1  LIG1        0.0639
     17 C          -3.8458    5.0363    0.3788 C.ar    1  LIG1       -0.0526
     18 C          -4.6957    6.1231    0.1994 C.ar    1  LIG1       -0.0611
     19 C          -2.4840    5.1473    0.0804 C.ar    1  LIG1       -0.0017
     20 C          -4.1923    7.3358   -0.2642 C.ar    1  LIG1       -0.0617
     21 H          -5.7475    6.0268    0.4349 H       1  LIG1        0.0618
     22 C          -1.9855    6.3660   -0.3891 C.ar    1  LIG1       -0.0526
     23 C          -2.8340    7.4554   -0.5515 C.ar    1  LIG1       -0.0611
     24 H          -0.9361    6.4435   -0.6426 H       1  LIG1        0.0624
     25 H          -4.8529    8.1819   -0.3992 H       1  LIG1        0.0618
     26 H          -4.2326    4.1076    0.7806 H       1  LIG1        0.0624
     27 H          -2.4379    8.3942   -0.9160 H       1  LIG1        0.0618
@<TRIPOS>BOND
     1    27    23    1
     2     7     2    1
     3     8     3    1
     4    24    22    1
     5    23    22   ar
     6    23    20   ar
     7     2     3   ar
     8     2     1   ar
     9     3     4   ar
    10    14    13    1
    11    25    20    1
    12    22    19   ar
    13    20    18   ar
    14     1     6    1
    15     1     5   ar
    16    13     9   ar
    17    13    12   ar
    18     4     9    1
    19     4     5   ar
    20    19    12    1
    21    19    17   ar
    22    18    17   ar
    23    18    21    1
    24     9    10   ar
    25    12    11   ar
    26    17    26    1
    27    11    10   ar
    28    11    16    1
    29    10    15    1
