@<TRIPOS>MOLECULE
mol_data/opt/m06hf/geoms/mol2/5134.out
 27 29 0 0 0
SMALL
GASTEIGER

@<TRIPOS>ATOM
      1 C          -1.8883   -1.9543   -0.0113 C.ar    1  LIG1       -0.0237
      2 C          -0.6245   -1.8203   -0.4937 C.ar    1  LIG1       -0.0541
      3 C          -0.1659   -0.4618   -0.4646 C.ar    1  LIG1       -0.0455
      4 C          -1.0924    0.3963    0.0507 C.ar    1  LIG1        0.0355
      5 S          -2.5332   -0.4475    0.5173 S.2     1  LIG1       -0.0952
      6 H          -2.4784   -2.8526    0.0681 H       1  LIG1        0.0693
      7 H          -0.0407   -2.6461   -0.8720 H       1  LIG1        0.0623
      8 H           0.7937   -0.1286   -0.8311 H       1  LIG1        0.0629
      9 C          -0.9579    1.8401    0.2512 C.ar    1  LIG1        0.0536
     10 C           0.1251    2.5864    0.6661 C.ar    1  LIG1       -0.0353
     11 C          -0.2765    3.9476    0.6659 C.ar    1  LIG1       -0.0358
     12 C          -1.5949    3.9917    0.2587 C.ar    1  LIG1        0.0469
     13 N          -1.9923    2.7053    0.0208 N.ar    1  LIG1       -0.3537
     14 H          -2.8666    2.4481   -0.4122 H       1  LIG1        0.1659
     15 H           1.0756    2.1811    0.9696 H       1  LIG1        0.0639
     16 H           0.3079    4.7986    0.9738 H       1  LIG1        0.0639
     17 C          -2.0241    6.3557   -0.3867 C.ar    1  LIG1       -0.0526
     18 C          -2.8814    7.4382   -0.5487 C.ar    1  LIG1       -0.0611
     19 C          -2.5128    5.1328    0.0822 C.ar    1  LIG1       -0.0017
     20 C          -4.2388    7.3074   -0.2617 C.ar    1  LIG1       -0.0617
     21 H          -2.4930    8.3804   -0.9127 H       1  LIG1        0.0618
     22 C          -3.8736    5.0105    0.3805 C.ar    1  LIG1       -0.0526
     23 C          -4.7323    6.0905    0.2014 C.ar    1  LIG1       -0.0611
     24 H          -4.2529    4.0785    0.7818 H       1  LIG1        0.0624
     25 H          -4.9063    8.1482   -0.3964 H       1  LIG1        0.0618
     26 H          -0.9754    6.4419   -0.6400 H       1  LIG1        0.0624
     27 H          -5.7833    5.9855    0.4367 H       1  LIG1        0.0618
@<TRIPOS>BOND
     1    21    18    1
     2     7     2    1
     3     8     3    1
     4    26    17    1
     5    18    17   ar
     6    18    20   ar
     7     2     3   ar
     8     2     1   ar
     9     3     4   ar
    10    14    13    1
    11    25    20    1
    12    17    19   ar
    13    20    23   ar
    14     1     6    1
    15     1     5   ar
    16    13     9   ar
    17    13    12   ar
    18     4     9    1
    19     4     5   ar
    20    19    12    1
    21    19    22   ar
    22    23    22   ar
    23    23    27    1
    24     9    10   ar
    25    12    11   ar
    26    22    24    1
    27    11    10   ar
    28    11    16    1
    29    10    15    1
