@<TRIPOS>MOLECULE
mol_data/opt/m06hf/geoms/mol2/5135-4-.out
 34 37 0 0 0
SMALL
GASTEIGER

@<TRIPOS>ATOM
      1 C          -1.9807   -1.9986   -0.1554 C.ar    1  LIG1       -0.0237
      2 C          -0.7868   -1.8696   -0.7914 C.ar    1  LIG1       -0.0541
      3 C          -0.2884   -0.5250   -0.7599 C.ar    1  LIG1       -0.0455
      4 C          -1.1143    0.3267   -0.0881 C.ar    1  LIG1        0.0355
      5 S          -2.5077   -0.5032    0.5212 S.2     1  LIG1       -0.0952
      6 H          -2.5818   -2.8855   -0.0400 H       1  LIG1        0.0693
      7 H          -0.2800   -2.6889   -1.2785 H       1  LIG1        0.0623
      8 H           0.6256   -0.1975   -1.2329 H       1  LIG1        0.0629
      9 C          -0.9164    1.7559    0.1574 C.ar    1  LIG1        0.0536
     10 C           0.2357    2.4667    0.4247 C.ar    1  LIG1       -0.0353
     11 C          -0.1321    3.8290    0.5709 C.ar    1  LIG1       -0.0353
     12 C          -1.4993    3.9063    0.3958 C.ar    1  LIG1        0.0536
     13 N          -1.9573    2.6425    0.1498 N.ar    1  LIG1       -0.3533
     14 H          -2.8985    2.4253   -0.1421 H       1  LIG1        0.1659
     15 H           1.2163    2.0365    0.5385 H       1  LIG1        0.0639
     16 H           0.5115    4.6572    0.8172 H       1  LIG1        0.0639
     17 C          -2.4173    5.0448    0.4419 C.ar    1  LIG1        0.0361
     18 C          -3.6984    5.0747    0.9179 C.ar    1  LIG1       -0.0449
     19 C          -4.3018    6.3653    0.7944 C.ar    1  LIG1       -0.0463
     20 C          -3.4685    7.2921    0.2359 C.ar    1  LIG1        0.0200
     21 S          -1.9437    6.5852   -0.1768 S.2     1  LIG1       -0.0868
     22 H          -4.1759    4.2226    1.3808 H       1  LIG1        0.0630
     23 H          -5.2943    6.6063    1.1468 H       1  LIG1        0.0629
     24 C          -5.0166    9.1033   -0.4861 C.ar    1  LIG1       -0.0535
     25 C          -5.2985   10.4425   -0.7322 C.ar    1  LIG1       -0.0612
     26 C          -3.7498    8.7199   -0.0355 C.ar    1  LIG1       -0.0113
     27 C          -4.3148   11.4111   -0.5470 C.ar    1  LIG1       -0.0617
     28 H          -6.2821   10.7273   -1.0823 H       1  LIG1        0.0618
     29 C          -2.7669    9.6964    0.1502 C.ar    1  LIG1       -0.0535
     30 C          -3.0484   11.0340   -0.1081 C.ar    1  LIG1       -0.0612
     31 H          -1.7888    9.4086    0.5154 H       1  LIG1        0.0624
     32 H          -4.5330   12.4519   -0.7465 H       1  LIG1        0.0618
     33 H          -5.7686    8.3452   -0.6626 H       1  LIG1        0.0624
     34 H          -2.2801   11.7808    0.0417 H       1  LIG1        0.0618
@<TRIPOS>BOND
     1     7     2    1
     2     8     3    1
     3    28    25    1
     4     2     3   ar
     5     2     1   ar
     6     3     4   ar
     7    32    27    1
     8    25    27   ar
     9    25    24   ar
    10    33    24    1
    11    27    30   ar
    12    24    26   ar
    13    21    20   ar
    14    21    17   ar
    15     1     6    1
    16     1     5   ar
    17    14    13    1
    18    30    34    1
    19    30    29   ar
    20     4     9    1
    21     4     5   ar
    22    26    29   ar
    23    26    20    1
    24    13     9   ar
    25    13    12   ar
    26    29    31    1
    27     9    10   ar
    28    20    19   ar
    29    12    17    1
    30    12    11   ar
    31    10    15    1
    32    10    11   ar
    33    17    18   ar
    34    11    16    1
    35    19    18   ar
    36    19    23    1
    37    18    22    1
