@<TRIPOS>MOLECULE
mol_data/opt/m06hf/geoms/mol2/5135-.out
 24 26 0 0 0
SMALL
GASTEIGER

@<TRIPOS>ATOM
      1 C          -1.9037   -1.9454    0.1418 C.ar    1  LIG1       -0.0237
      2 C          -0.6618   -1.8374   -0.4004 C.ar    1  LIG1       -0.0541
      3 C          -0.2028   -0.4803   -0.4574 C.ar    1  LIG1       -0.0455
      4 C          -1.1070    0.4030    0.0549 C.ar    1  LIG1        0.0355
      5 S          -2.5261   -0.4133    0.6215 S.2     1  LIG1       -0.0952
      6 H          -2.4897   -2.8376    0.2910 H       1  LIG1        0.0693
      7 H          -0.0941   -2.6817   -0.7620 H       1  LIG1        0.0623
      8 H           0.7405   -0.1678   -0.8799 H       1  LIG1        0.0629
      9 C          -0.9636    1.8544    0.1816 C.ar    1  LIG1        0.0536
     10 C           0.1397    2.6167    0.5058 C.ar    1  LIG1       -0.0353
     11 C          -0.2637    3.9764    0.4792 C.ar    1  LIG1       -0.0353
     12 C          -1.6028    4.0011    0.1453 C.ar    1  LIG1        0.0536
     13 N          -2.0105    2.7086   -0.0275 N.ar    1  LIG1       -0.3533
     14 H          -2.9104    2.4388   -0.3950 H       1  LIG1        0.1659
     15 H           1.1078    2.2245    0.7683 H       1  LIG1        0.0639
     16 H           0.3358    4.8403    0.7139 H       1  LIG1        0.0639
     17 C          -2.5354    5.1169   -0.0184 C.ar    1  LIG1        0.0355
     18 C          -3.8708    5.1501    0.2679 C.ar    1  LIG1       -0.0455
     19 C          -4.4675    6.4196   -0.0272 C.ar    1  LIG1       -0.0541
     20 C          -3.5689    7.3134   -0.5185 C.ar    1  LIG1       -0.0237
     21 S          -1.9939    6.6296   -0.6540 S.2     1  LIG1       -0.0952
     22 H          -3.7401    8.3369   -0.8093 H       1  LIG1        0.0693
     23 H          -4.4018    4.3173    0.7071 H       1  LIG1        0.0629
     24 H          -5.5099    6.6484    0.1368 H       1  LIG1        0.0623
@<TRIPOS>BOND
     1     8     3    1
     2    22    20    1
     3     7     2    1
     4    21    20   ar
     5    21    17   ar
     6    20    19   ar
     7     3     2   ar
     8     3     4   ar
     9     2     1   ar
    10    14    13    1
    11    13    12   ar
    12    13     9   ar
    13    19    24    1
    14    19    18   ar
    15    17    12    1
    16    17    18   ar
    17     4     9    1
    18     4     5   ar
    19     1     6    1
    20     1     5   ar
    21    12    11   ar
    22     9    10   ar
    23    18    23    1
    24    11    10   ar
    25    11    16    1
    26    10    15    1
