@<TRIPOS>MOLECULE
mol_data/opt/m06hf/geoms/mol2/5135.out
 24 26 0 0 0
SMALL
GASTEIGER

@<TRIPOS>ATOM
      1 C          -1.9231   -1.9111    0.1276 C.ar    1  LIG1       -0.0237
      2 C          -0.6770   -1.8059   -0.4057 C.ar    1  LIG1       -0.0541
      3 C          -0.2041   -0.4523   -0.4349 C.ar    1  LIG1       -0.0455
      4 C          -1.1021    0.4307    0.0887 C.ar    1  LIG1        0.0355
      5 S          -2.5334   -0.3828    0.6333 S.2     1  LIG1       -0.0952
      6 H          -2.5182   -2.8003    0.2567 H       1  LIG1        0.0693
      7 H          -0.1158   -2.6489   -0.7799 H       1  LIG1        0.0623
      8 H           0.7448   -0.1414   -0.8467 H       1  LIG1        0.0629
      9 C          -0.9442    1.8779    0.2411 C.ar    1  LIG1        0.0536
     10 C           0.1661    2.6218    0.5841 C.ar    1  LIG1       -0.0353
     11 C          -0.2213    3.9863    0.5787 C.ar    1  LIG1       -0.0353
     12 C          -1.5561    4.0332    0.2324 C.ar    1  LIG1        0.0536
     13 N          -1.9798    2.7476    0.0389 N.ar    1  LIG1       -0.3533
     14 H          -2.8847    2.4892   -0.3263 H       1  LIG1        0.1659
     15 H           1.1272    2.2130    0.8466 H       1  LIG1        0.0639
     16 H           0.3810    4.8411    0.8361 H       1  LIG1        0.0639
     17 C          -2.4507    5.1803    0.0696 C.ar    1  LIG1        0.0355
     18 C          -2.1497    6.3996   -0.4624 C.ar    1  LIG1       -0.0455
     19 C          -3.2633    7.3028   -0.4423 C.ar    1  LIG1       -0.0541
     20 C          -4.3799    6.7415    0.0928 C.ar    1  LIG1       -0.0237
     21 S          -4.0971    5.1243    0.6112 S.2     1  LIG1       -0.0952
     22 H          -5.3537    7.1861    0.2166 H       1  LIG1        0.0693
     23 H          -1.1781    6.6306   -0.8738 H       1  LIG1        0.0629
     24 H          -3.2281    8.3121   -0.8240 H       1  LIG1        0.0623
@<TRIPOS>BOND
     1    23    18    1
     2     8     3    1
     3    24    19    1
     4     7     2    1
     5    18    19   ar
     6    18    17   ar
     7    19    20   ar
     8     3     2   ar
     9     3     4   ar
    10     2     1   ar
    11    14    13    1
    12    13    12   ar
    13    13     9   ar
    14    17    12    1
    15    17    21   ar
    16     4     9    1
    17     4     5   ar
    18    20    22    1
    19    20    21   ar
    20     1     6    1
    21     1     5   ar
    22    12    11   ar
    23     9    10   ar
    24    11    10   ar
    25    11    16    1
    26    10    15    1
