@<TRIPOS>MOLECULE
mol_data/opt/m06hf/geoms/mol2/5138-12-.out
 30 33 0 0 0
SMALL
GASTEIGER

@<TRIPOS>ATOM
      1 C          -2.1073   -1.8522   -0.0002 C.ar    1  LIG1       -0.0237
      2 C          -0.7480   -1.8558   -0.0013 C.ar    1  LIG1       -0.0541
      3 C          -0.1945   -0.5350   -0.0007 C.ar    1  LIG1       -0.0455
      4 C          -1.1522    0.4387    0.0009 C.ar    1  LIG1        0.0355
      5 S          -2.7386   -0.2511    0.0019 S.2     1  LIG1       -0.0952
      6 H          -2.7790   -2.6944   -0.0004 H       1  LIG1        0.0693
      7 H          -0.1541   -2.7573   -0.0027 H       1  LIG1        0.0623
      8 H           0.8643   -0.3238   -0.0015 H       1  LIG1        0.0629
      9 C          -0.9438    1.8871    0.0020 C.ar    1  LIG1        0.0536
     10 C           0.2407    2.6139    0.0023 C.ar    1  LIG1       -0.0352
     11 C          -0.1000    3.9825    0.0033 C.ar    1  LIG1       -0.0326
     12 C          -1.4802    4.0492    0.0037 C.ar    1  LIG1        0.0880
     13 N          -1.9710    2.7765    0.0029 N.ar    1  LIG1       -0.3512
     14 H          -2.9623    2.5748    0.0029 H       1  LIG1        0.1660
     15 H           1.2323    2.1950    0.0018 H       1  LIG1        0.0639
     16 H           0.5618    4.8315    0.0038 H       1  LIG1        0.0640
     17 C          -2.3851    5.1847    0.0047 C.ar    1  LIG1        0.2194
     18 N          -3.6982    4.9239    0.0049 N.ar    1  LIG1       -0.1236
     19 C          -4.0046    7.1538    0.0065 C.ar    1  LIG1        0.2381
     20 N          -1.8708    6.4206    0.0054 N.ar    1  LIG1       -0.1236
     21 N          -4.5215    5.9228    0.0058 N.ar    1  LIG1       -0.1220
     22 N          -2.6937    7.4201    0.0063 N.ar    1  LIG1       -0.1220
     23 C          -4.9530    8.2672    0.0075 C.ar    1  LIG1        0.1751
     24 C          -6.3139    8.2839    0.0078 C.ar    1  LIG1       -0.0126
     25 C          -6.6803    9.6693    0.0089 C.ar    1  LIG1       -0.0232
     26 C          -5.5109   10.3611    0.0090 C.ar    1  LIG1        0.0927
     27 O          -4.4628    9.5205    0.0082 O.2     1  LIG1       -0.4597
     28 H          -5.2786   11.4114    0.0097 H       1  LIG1        0.1029
     29 H          -6.9551    7.4196    0.0074 H       1  LIG1        0.0656
     30 H          -7.6727   10.0851    0.0094 H       1  LIG1        0.0649
@<TRIPOS>BOND
     1     7     2    1
     2     8     3    1
     3     2     3   ar
     4     2     1   ar
     5     3     4   ar
     6     6     1    1
     7     1     5   ar
     8     4     5   ar
     9     4     9    1
    10    15    10    1
    11     9    10   ar
    12     9    13   ar
    13    10    11   ar
    14    13    14    1
    15    13    12   ar
    16    11    12   ar
    17    11    16    1
    18    12    17    1
    19    17    18   ar
    20    17    20   ar
    21    18    21   ar
    22    20    22   ar
    23    21    19   ar
    24    22    19   ar
    25    19    23    1
    26    29    24    1
    27    23    24   ar
    28    23    27   ar
    29    24    25   ar
    30    27    26   ar
    31    25    26   ar
    32    25    30    1
    33    26    28    1
