@<TRIPOS>MOLECULE
mol_data/opt/m06hf/geoms/mol2/5138-5.out
 30 33 0 0 0
SMALL
GASTEIGER

@<TRIPOS>ATOM
      1 C          -2.0584   -1.8800    0.0001 C.ar    1  LIG1       -0.0237
      2 C          -0.6991   -1.8675   -0.0012 C.ar    1  LIG1       -0.0541
      3 C          -0.1609   -0.5406   -0.0008 C.ar    1  LIG1       -0.0455
      4 C          -1.1292    0.4223    0.0010 C.ar    1  LIG1        0.0355
      5 S          -2.7078   -0.2856    0.0024 S.2     1  LIG1       -0.0952
      6 H          -2.7201   -2.7301    0.0001 H       1  LIG1        0.0693
      7 H          -0.0942   -2.7616   -0.0026 H       1  LIG1        0.0623
      8 H           0.8958   -0.3177   -0.0018 H       1  LIG1        0.0629
      9 C          -0.9372    1.8726    0.0020 C.ar    1  LIG1        0.0536
     10 C           0.2390    2.6127    0.0024 C.ar    1  LIG1       -0.0352
     11 C          -0.1171    3.9774    0.0032 C.ar    1  LIG1       -0.0326
     12 C          -1.4979    4.0285    0.0035 C.ar    1  LIG1        0.0880
     13 N          -1.9745    2.7506    0.0027 N.ar    1  LIG1       -0.3512
     14 H          -2.9635    2.5374    0.0026 H       1  LIG1        0.1660
     15 H           1.2354    2.2055    0.0021 H       1  LIG1        0.0639
     16 H           0.5351    4.8337    0.0037 H       1  LIG1        0.0640
     17 C          -2.4139    5.1546    0.0044 C.ar    1  LIG1        0.2194
     18 N          -3.7224    4.8887    0.0044 N.ar    1  LIG1       -0.1237
     19 C          -4.0468    7.1205    0.0060 C.ar    1  LIG1        0.2099
     20 N          -1.9048    6.3966    0.0051 N.ar    1  LIG1       -0.1237
     21 N          -4.5511    5.8874    0.0053 N.ar    1  LIG1       -0.1246
     22 N          -2.7309    7.3878    0.0060 N.ar    1  LIG1       -0.1246
     23 C          -4.9738    8.2526    0.0070 C.ar    1  LIG1        0.0598
     24 C          -4.6410    9.5778    0.0080 C.ar    1  LIG1       -0.0438
     25 C          -5.7940   10.4203    0.0088 C.ar    1  LIG1       -0.0540
     26 C          -6.9542    9.7040    0.0085 C.ar    1  LIG1       -0.0236
     27 S          -6.6810    8.0088    0.0072 S.2     1  LIG1       -0.0934
     28 H          -7.9637   10.0832    0.0090 H       1  LIG1        0.0693
     29 H          -3.6164    9.9184    0.0080 H       1  LIG1        0.0630
     30 H          -5.7556   11.4987    0.0096 H       1  LIG1        0.0623
@<TRIPOS>BOND
     1     7     2    1
     2     8     3    1
     3     2     3   ar
     4     2     1   ar
     5     3     4   ar
     6     6     1    1
     7     1     5   ar
     8     4     9    1
     9     4     5   ar
    10     9    10   ar
    11     9    13   ar
    12    15    10    1
    13    10    11   ar
    14    14    13    1
    15    13    12   ar
    16    11    12   ar
    17    11    16    1
    18    12    17    1
    19    17    18   ar
    20    17    20   ar
    21    18    21   ar
    22    20    22   ar
    23    21    19   ar
    24    22    19   ar
    25    19    23    1
    26    23    27   ar
    27    23    24   ar
    28    27    26   ar
    29    24    29    1
    30    24    25   ar
    31    26    25   ar
    32    26    28    1
    33    25    30    1
