@<TRIPOS>MOLECULE
mol_data/opt/m06hf/geoms/mol2/54-.out
 19 20 0 0 0
SMALL
GASTEIGER

@<TRIPOS>ATOM
      1 C          -1.9807   -1.8597    0.3611 C.ar    1  LIG1       -0.0237
      2 C          -0.7578   -1.8279   -0.2330 C.ar    1  LIG1       -0.0541
      3 C          -0.2693   -0.4916   -0.4053 C.ar    1  LIG1       -0.0469
      4 C          -1.1329    0.4550    0.0637 C.ar    1  LIG1        0.0193
      5 S          -2.5521   -0.2785    0.7285 S.2     1  LIG1       -0.0967
      6 H          -2.5769   -2.7224    0.6100 H       1  LIG1        0.0693
      7 H          -0.2232   -2.7120   -0.5468 H       1  LIG1        0.0623
      8 H           0.6669   -0.2436   -0.8844 H       1  LIG1        0.0629
      9 C          -2.0414    2.7717   -0.2249 C.ar    1  LIG1       -0.0535
     10 C          -1.8660    4.1514   -0.2424 C.ar    1  LIG1       -0.0612
     11 C          -0.9632    1.9263    0.0511 C.ar    1  LIG1       -0.0113
     12 C          -0.6112    4.7008    0.0078 C.ar    1  LIG1       -0.0617
     13 H          -2.7078    4.7956   -0.4597 H       1  LIG1        0.0618
     14 C           0.2920    2.4840    0.3123 C.ar    1  LIG1       -0.0535
     15 C           0.4674    3.8633    0.2822 C.ar    1  LIG1       -0.0612
     16 H           1.1204    1.8320    0.5575 H       1  LIG1        0.0624
     17 H          -0.4751    5.7743   -0.0086 H       1  LIG1        0.0618
     18 H          -3.0120    2.3445   -0.4453 H       1  LIG1        0.0624
     19 H           1.4435    4.2839    0.4862 H       1  LIG1        0.0618
@<TRIPOS>BOND
     1     8     3    1
     2     7     2    1
     3    13    10    1
     4    18     9    1
     5     3     2   ar
     6     3     4   ar
     7    10     9   ar
     8    10    12   ar
     9     2     1   ar
    10     9    11   ar
    11    17    12    1
    12    12    15   ar
    13    11     4    1
    14    11    14   ar
    15     4     5   ar
    16    15    14   ar
    17    15    19    1
    18    14    16    1
    19     1     6    1
    20     1     5   ar
