@<TRIPOS>MOLECULE
mol_data/opt/m06hf/geoms/mol2/54-13-8-.out
 33 36 0 0 0
SMALL
GASTEIGER

@<TRIPOS>ATOM
      1 C          -1.8235   -1.9613    0.8461 C.ar    1  LIG1       -0.0237
      2 C          -1.0143   -1.9604   -0.2472 C.ar    1  LIG1       -0.0541
      3 C          -0.6247   -0.6377   -0.6359 C.ar    1  LIG1       -0.0469
      4 C          -1.1486    0.3298    0.1722 C.ar    1  LIG1        0.0193
      5 S          -2.1192   -0.3673    1.4226 S.2     1  LIG1       -0.0967
      6 H          -2.2613   -2.8083    1.3484 H       1  LIG1        0.0693
      7 H          -0.7098   -2.8569   -0.7658 H       1  LIG1        0.0623
      8 H          -0.0090   -0.4136   -1.4951 H       1  LIG1        0.0629
      9 C          -2.0034    2.6835    0.3222 C.ar    1  LIG1       -0.0529
     10 C          -1.8048    4.0538    0.2215 C.ar    1  LIG1       -0.0520
     11 C          -0.9536    1.7931    0.0737 C.ar    1  LIG1       -0.0113
     12 C          -0.5574    4.5636   -0.1492 C.ar    1  LIG1       -0.0017
     13 H          -2.6142    4.7383    0.4399 H       1  LIG1        0.0624
     14 C           0.2982    2.3051   -0.2813 C.ar    1  LIG1       -0.0529
     15 C           0.4909    3.6744   -0.4061 C.ar    1  LIG1       -0.0520
     16 H           1.1205    1.6231   -0.4534 H       1  LIG1        0.0624
     17 H          -2.9799    2.2980    0.5875 H       1  LIG1        0.0624
     18 H           1.4554    4.0529   -0.7223 H       1  LIG1        0.0624
     19 C          -0.3624    6.0203   -0.2731 C.ar    1  LIG1        0.0470
     20 C          -1.2285    7.0086   -0.7211 C.ar    1  LIG1       -0.0357
     21 C          -0.5393    8.2393   -0.6595 C.ar    1  LIG1       -0.0326
     22 C           0.7244    7.9626   -0.1735 C.ar    1  LIG1        0.0879
     23 N           0.8139    6.6192    0.0483 N.ar    1  LIG1       -0.3516
     24 H           1.6197    6.1765    0.4679 H       1  LIG1        0.1660
     25 H          -2.2283    6.8412   -1.0842 H       1  LIG1        0.0639
     26 H          -0.8946    9.2167   -0.9384 H       1  LIG1        0.0640
     27 C           1.8499    8.8355    0.1114 C.ar    1  LIG1        0.2193
     28 N           1.7141   10.1491   -0.1218 N.ar    1  LIG1       -0.1243
     29 C           3.8332   10.3414    0.6219 C.ar    1  LIG1        0.1605
     30 N           2.9613    8.2709    0.5934 N.ar    1  LIG1       -0.1243
     31 N           2.7275   10.9117    0.1397 N.ar    1  LIG1       -0.1338
     32 N           3.9753    9.0417    0.8549 N.ar    1  LIG1       -0.1338
     33 H           4.6718   10.9857    0.8382 H       1  LIG1        0.1085
@<TRIPOS>BOND
     1     8     3    1
     2    25    20    1
     3    26    21    1
     4     7     2    1
     5    18    15    1
     6    20    21   ar
     7    20    19   ar
     8    21    22   ar
     9     3     2   ar
    10     3     4   ar
    11    16    14    1
    12    15    14   ar
    13    15    12   ar
    14    14    11   ar
    15    19    12    1
    16    19    23   ar
    17     2     1   ar
    18    22    23   ar
    19    22    27    1
    20    12    10   ar
    21    28    27   ar
    22    28    31   ar
    23    23    24    1
    24    11     4    1
    25    11     9   ar
    26    27    30   ar
    27    31    29   ar
    28     4     5   ar
    29    10     9   ar
    30    10    13    1
    31     9    17    1
    32    30    32   ar
    33    29    33    1
    34    29    32   ar
    35     1     6    1
    36     1     5   ar
