@<TRIPOS>MOLECULE
mol_data/opt/m06hf/geoms/mol2/54-13.out
 27 29 0 0 0
SMALL
GASTEIGER

@<TRIPOS>ATOM
      1 C          -2.0292   -1.9406    0.2845 C.ar    1  LIG1       -0.0237
      2 C          -0.7435   -1.9192   -0.1580 C.ar    1  LIG1       -0.0541
      3 C          -0.2368   -0.5861   -0.3001 C.ar    1  LIG1       -0.0469
      4 C          -1.1511    0.3693    0.0374 C.ar    1  LIG1        0.0193
      5 S          -2.6411   -0.3538    0.5431 S.2     1  LIG1       -0.0967
      6 H          -2.6510   -2.7995    0.4771 H       1  LIG1        0.0693
      7 H          -0.1752   -2.8088   -0.3849 H       1  LIG1        0.0623
      8 H           0.7514   -0.3471   -0.6654 H       1  LIG1        0.0629
      9 C          -2.0090    2.6863   -0.3894 C.ar    1  LIG1       -0.0529
     10 C          -1.8256    4.0634   -0.4075 C.ar    1  LIG1       -0.0520
     11 C          -0.9775    1.8390    0.0236 C.ar    1  LIG1       -0.0113
     12 C          -0.6113    4.6267   -0.0041 C.ar    1  LIG1       -0.0017
     13 H          -2.6193    4.7025   -0.7752 H       1  LIG1        0.0624
     14 C           0.2384    2.4017    0.4250 C.ar    1  LIG1       -0.0529
     15 C           0.4190    3.7777    0.4120 C.ar    1  LIG1       -0.0520
     16 H           1.0299    1.7544    0.7802 H       1  LIG1        0.0624
     17 H          -2.9464    2.2631   -0.7288 H       1  LIG1        0.0624
     18 H           1.3507    4.2077    0.7559 H       1  LIG1        0.0624
     19 C          -0.4073    6.0873   -0.0132 C.ar    1  LIG1        0.0465
     20 C           0.7106    6.8389   -0.3069 C.ar    1  LIG1       -0.0364
     21 C           0.3516    8.2086   -0.1705 C.ar    1  LIG1       -0.0438
     22 C          -0.9700    8.2455    0.2043 C.ar    1  LIG1        0.0022
     23 N          -1.4179    6.9599    0.2881 N.ar    1  LIG1       -0.3607
     24 H          -2.3268    6.6791    0.6188 H       1  LIG1        0.1653
     25 H          -1.6177    9.0771    0.4218 H       1  LIG1        0.0807
     26 H           1.6619    6.4423   -0.6216 H       1  LIG1        0.0639
     27 H           0.9840    9.0641   -0.3363 H       1  LIG1        0.0633
@<TRIPOS>BOND
     1    13    10    1
     2    17     9    1
     3     8     3    1
     4    26    20    1
     5    10     9   ar
     6    10    12   ar
     7     9    11   ar
     8     7     2    1
     9    27    21    1
    10    20    21   ar
    11    20    19   ar
    12     3     2   ar
    13     3     4   ar
    14    21    22   ar
    15     2     1   ar
    16    19    12    1
    17    19    23   ar
    18    12    15   ar
    19    11     4    1
    20    11    14   ar
    21     4     5   ar
    22    22    23   ar
    23    22    25    1
    24     1     6    1
    25     1     5   ar
    26    23    24    1
    27    15    14   ar
    28    15    18    1
    29    14    16    1
