@<TRIPOS>MOLECULE
mol_data/opt/m06hf/geoms/mol2/54-1312-.out
 34 37 0 0 0
SMALL
GASTEIGER

@<TRIPOS>ATOM
      1 C          -2.0443   -1.9773    0.3355 C.ar    1  LIG1       -0.0237
      2 C          -0.7144   -1.9716    0.0514 C.ar    1  LIG1       -0.0541
      3 C          -0.1933   -0.6445   -0.0944 C.ar    1  LIG1       -0.0469
      4 C          -1.1403    0.3218    0.0855 C.ar    1  LIG1        0.0193
      5 S          -2.6817   -0.3830    0.4410 S.2     1  LIG1       -0.0967
      6 H          -2.6860   -2.8285    0.4944 H       1  LIG1        0.0693
      7 H          -0.1246   -2.8688   -0.0614 H       1  LIG1        0.0623
      8 H           0.8312   -0.4194   -0.3534 H       1  LIG1        0.0629
      9 C          -1.9617    2.6103   -0.5242 C.ar    1  LIG1       -0.0529
     10 C          -1.7785    3.9854   -0.5974 C.ar    1  LIG1       -0.0520
     11 C          -0.9657    1.7892    0.0119 C.ar    1  LIG1       -0.0113
     12 C          -0.5976    4.5719   -0.1321 C.ar    1  LIG1       -0.0017
     13 H          -2.5404    4.6042   -1.0559 H       1  LIG1        0.0624
     14 C           0.2153    2.3768    0.4782 C.ar    1  LIG1       -0.0529
     15 C           0.3981    3.7505    0.4059 C.ar    1  LIG1       -0.0520
     16 H           0.9756    1.7519    0.9290 H       1  LIG1        0.0624
     17 H          -2.8689    2.1664   -0.9144 H       1  LIG1        0.0624
     18 H           1.3008    4.2018    0.7960 H       1  LIG1        0.0624
     19 C          -0.3958    6.0301   -0.2034 C.ar    1  LIG1        0.0470
     20 C           0.7360    6.7740   -0.4708 C.ar    1  LIG1       -0.0357
     21 C           0.3702    8.1443   -0.4178 C.ar    1  LIG1       -0.0328
     22 C          -0.9742    8.1924   -0.1170 C.ar    1  LIG1        0.0825
     23 N          -1.4245    6.9083    0.0007 N.ar    1  LIG1       -0.3518
     24 H          -2.3333    6.6472    0.3504 H       1  LIG1        0.1660
     25 H           1.7027    6.3677   -0.7181 H       1  LIG1        0.0639
     26 H           0.9959    9.0022   -0.5955 H       1  LIG1        0.0640
     27 C          -1.8636    9.3327    0.0603 C.ar    1  LIG1        0.1509
     28 C          -3.2170    9.4738    0.0183 C.ar    1  LIG1       -0.0144
     29 C          -3.4767   10.8648    0.2766 C.ar    1  LIG1       -0.0233
     30 C          -2.2637   11.4429    0.4425 C.ar    1  LIG1        0.0926
     31 O          -1.2833   10.5229    0.3190 O.2     1  LIG1       -0.4615
     32 H          -1.9478   12.4499    0.6478 H       1  LIG1        0.1029
     33 H          -3.9385    8.7043   -0.1981 H       1  LIG1        0.0656
     34 H          -4.4340   11.3542    0.3211 H       1  LIG1        0.0649
@<TRIPOS>BOND
     1    13    10    1
     2    17     9    1
     3    25    20    1
     4    10     9   ar
     5    10    12   ar
     6    26    21    1
     7     9    11   ar
     8    20    21   ar
     9    20    19   ar
    10    21    22   ar
    11     8     3    1
    12    19    12    1
    13    19    23   ar
    14    33    28    1
    15    12    15   ar
    16    22    23   ar
    17    22    27    1
    18     3     2   ar
    19     3     4   ar
    20     7     2    1
    21    23    24    1
    22    11     4    1
    23    11    14   ar
    24    28    27   ar
    25    28    29   ar
    26     2     1   ar
    27    27    31   ar
    28     4     5   ar
    29    29    34    1
    30    29    30   ar
    31    31    30   ar
    32     1     5   ar
    33     1     6    1
    34    15    14   ar
    35    15    18    1
    36    30    32    1
    37    14    16    1
