@<TRIPOS>MOLECULE
mol_data/opt/m06hf/geoms/mol2/54-4.out
 29 31 0 0 0
SMALL
GASTEIGER

@<TRIPOS>ATOM
      1 C          -2.0490   -1.9673    0.1741 C.ar    1  LIG1       -0.0237
      2 C          -0.7200   -1.9432   -0.1138 C.ar    1  LIG1       -0.0541
      3 C          -0.2044   -0.6091   -0.1994 C.ar    1  LIG1       -0.0469
      4 C          -1.1559    0.3440    0.0273 C.ar    1  LIG1        0.0193
      5 S          -2.6902   -0.3815    0.3541 S.2     1  LIG1       -0.0967
      6 H          -2.6876   -2.8270    0.2945 H       1  LIG1        0.0693
      7 H          -0.1262   -2.8316   -0.2690 H       1  LIG1        0.0623
      8 H           0.8188   -0.3679   -0.4490 H       1  LIG1        0.0629
      9 C          -1.9795    2.6582   -0.4778 C.ar    1  LIG1       -0.0530
     10 C          -1.7992    4.0358   -0.4817 C.ar    1  LIG1       -0.0534
     11 C          -0.9852    1.8142    0.0245 C.ar    1  LIG1       -0.0113
     12 C          -0.6212    4.6044    0.0101 C.ar    1  LIG1       -0.0178
     13 H          -2.5654    4.6764   -0.9002 H       1  LIG1        0.0624
     14 C           0.1900    2.3810    0.5265 C.ar    1  LIG1       -0.0530
     15 C           0.3713    3.7579    0.5126 C.ar    1  LIG1       -0.0534
     16 H           0.9480    1.7384    0.9555 H       1  LIG1        0.0624
     17 H          -2.8851    2.2324   -0.8924 H       1  LIG1        0.0624
     18 H           1.2749    4.1859    0.9292 H       1  LIG1        0.0624
     19 C           0.7976    6.6380   -0.3780 C.ar    1  LIG1       -0.0540
     20 C           0.9786    8.0175   -0.3804 C.ar    1  LIG1       -0.0612
     21 C          -0.4277    6.0839    0.0039 C.ar    1  LIG1       -0.0179
     22 C          -0.0640    8.8602   -0.0038 C.ar    1  LIG1       -0.0617
     23 H           1.9306    8.4333   -0.6840 H       1  LIG1        0.0618
     24 C          -1.4685    6.9368    0.3820 C.ar    1  LIG1       -0.0540
     25 C          -1.2886    8.3164    0.3762 C.ar    1  LIG1       -0.0612
     26 H          -2.4119    6.5138    0.7044 H       1  LIG1        0.0624
     27 H           0.0766    9.9333   -0.0064 H       1  LIG1        0.0618
     28 H           1.6003    5.9844   -0.6961 H       1  LIG1        0.0624
     29 H          -2.1007    8.9650    0.6771 H       1  LIG1        0.0618
@<TRIPOS>BOND
     1    13    10    1
     2    17     9    1
     3    28    19    1
     4    23    20    1
     5    10     9   ar
     6    10    12   ar
     7     9    11   ar
     8     8     3    1
     9    20    19   ar
    10    20    22   ar
    11    19    21   ar
    12     7     2    1
    13     3     2   ar
    14     3     4   ar
    15     2     1   ar
    16    27    22    1
    17    22    25   ar
    18    21    12    1
    19    21    24   ar
    20    12    15   ar
    21    11     4    1
    22    11    14   ar
    23     4     5   ar
    24     1     6    1
    25     1     5   ar
    26    25    24   ar
    27    25    29    1
    28    24    26    1
    29    15    14   ar
    30    15    18    1
    31    14    16    1
