@<TRIPOS>MOLECULE
mol_data/opt/m06hf/geoms/mol2/54-44.out
 39 42 0 0 0
SMALL
GASTEIGER

@<TRIPOS>ATOM
      1 C          -2.0485   -2.0838   -0.0723 C.ar    1  LIG1       -0.0237
      2 C          -0.6928   -2.0503    0.0293 C.ar    1  LIG1       -0.0541
      3 C          -0.1806   -0.7120    0.0613 C.ar    1  LIG1       -0.0469
      4 C          -1.1604    0.2345   -0.0155 C.ar    1  LIG1        0.0193
      5 S          -2.7242   -0.5015   -0.1179 S.2     1  LIG1       -0.0967
      6 H          -2.6898   -2.9486   -0.1171 H       1  LIG1        0.0693
      7 H          -0.0748   -2.9347    0.0704 H       1  LIG1        0.0623
      8 H           0.8699   -0.4638    0.1076 H       1  LIG1        0.0629
      9 C          -1.7858    2.5241   -0.8250 C.ar    1  LIG1       -0.0530
     10 C          -1.6132    3.9027   -0.8152 C.ar    1  LIG1       -0.0534
     11 C          -1.0019    1.7062   -0.0067 C.ar    1  LIG1       -0.0113
     12 C          -0.6517    4.4963    0.0073 C.ar    1  LIG1       -0.0178
     13 H          -2.2052    4.5241   -1.4757 H       1  LIG1        0.0624
     14 C          -0.0474    2.2984    0.8257 C.ar    1  LIG1       -0.0530
     15 C           0.1287    3.6760    0.8273 C.ar    1  LIG1       -0.0534
     16 H           0.5347    1.6743    1.4917 H       1  LIG1        0.0624
     17 H          -2.5116    2.0750   -1.4917 H       1  LIG1        0.0624
     18 H           0.8528    4.1262    1.4952 H       1  LIG1        0.0624
     19 C           0.8231    6.5269    0.0104 C.ar    1  LIG1       -0.0535
     20 C           1.0027    7.9051    0.0120 C.ar    1  LIG1       -0.0535
     21 C          -0.4613    5.9757    0.0101 C.ar    1  LIG1       -0.0178
     22 C          -0.0974    8.7668    0.0085 C.ar    1  LIG1       -0.0178
     23 H           2.0030    8.3194    0.0297 H       1  LIG1        0.0624
     24 C          -1.5616    6.8373    0.0097 C.ar    1  LIG1       -0.0535
     25 C          -1.3817    8.2156    0.0069 C.ar    1  LIG1       -0.0535
     26 H          -2.5624    6.4239    0.0275 H       1  LIG1        0.0624
     27 H           1.6843    5.8706   -0.0072 H       1  LIG1        0.0624
     28 H          -2.2422    8.8725   -0.0120 H       1  LIG1        0.0624
     29 C           1.0357   10.8369   -0.8438 C.ar    1  LIG1       -0.0540
     30 C           1.2156   12.2166   -0.8478 C.ar    1  LIG1       -0.0612
     31 C           0.0953   10.2469    0.0052 C.ar    1  LIG1       -0.0179
     32 C           0.4559   13.0230   -0.0042 C.ar    1  LIG1       -0.0617
     33 H           1.9416   12.6622   -1.5154 H       1  LIG1        0.0618
     34 C          -0.6625   11.0631    0.8494 C.ar    1  LIG1       -0.0540
     35 C          -0.4838   12.4429    0.8442 C.ar    1  LIG1       -0.0612
     36 H          -1.3757   10.6093    1.5266 H       1  LIG1        0.0624
     37 H           0.5949   14.0962   -0.0081 H       1  LIG1        0.0618
     38 H           1.6080   10.2116   -1.5181 H       1  LIG1        0.0624
     39 H          -1.0717   13.0637    1.5078 H       1  LIG1        0.0618
@<TRIPOS>BOND
     1    38    29    1
     2    33    30    1
     3    17     9    1
     4    13    10    1
     5    30    29   ar
     6    30    32   ar
     7    29    31   ar
     8     9    10   ar
     9     9    11   ar
    10    10    12   ar
    11     5     1   ar
    12     5     4   ar
    13     6     1    1
    14     1     2   ar
    15     4    11    1
    16     4     3   ar
    17    28    25    1
    18    37    32    1
    19    27    19    1
    20    11    14   ar
    21    32    35   ar
    22    31    22    1
    23    31    34   ar
    24    25    22   ar
    25    25    24   ar
    26    12    21    1
    27    12    15   ar
    28    22    20   ar
    29    24    21   ar
    30    24    26    1
    31    21    19   ar
    32    19    20   ar
    33    20    23    1
    34     2     3   ar
    35     2     7    1
    36     3     8    1
    37    14    15   ar
    38    14    16    1
    39    15    18    1
    40    35    34   ar
    41    35    39    1
    42    34    36    1
