@<TRIPOS>MOLECULE
mol_data/opt/m06hf/geoms/mol2/54-4-12.out
 36 39 0 0 0
SMALL
GASTEIGER

@<TRIPOS>ATOM
      1 C          -2.1005   -2.0273    0.1066 C.ar    1  LIG1       -0.0237
      2 C          -0.7517   -2.0171   -0.0667 C.ar    1  LIG1       -0.0541
      3 C          -0.2194   -0.6880   -0.1252 C.ar    1  LIG1       -0.0469
      4 C          -1.1774    0.2753    0.0083 C.ar    1  LIG1        0.0193
      5 S          -2.7428   -0.4346    0.2074 S.2     1  LIG1       -0.0967
      6 H          -2.7540   -2.8809    0.1828 H       1  LIG1        0.0693
      7 H          -0.1545   -2.9119   -0.1584 H       1  LIG1        0.0623
      8 H           0.8236   -0.4585   -0.2890 H       1  LIG1        0.0629
      9 C          -1.9467    2.5939   -0.5634 C.ar    1  LIG1       -0.0530
     10 C          -1.7551    3.9699   -0.5619 C.ar    1  LIG1       -0.0534
     11 C          -0.9939    1.7438    0.0061 C.ar    1  LIG1       -0.0113
     12 C          -0.6053    4.5312    0.0008 C.ar    1  LIG1       -0.0178
     13 H          -2.4877    4.6147   -1.0313 H       1  LIG1        0.0624
     14 C           0.1516    2.3041    0.5799 C.ar    1  LIG1       -0.0530
     15 C           0.3460    3.6790    0.5700 C.ar    1  LIG1       -0.0534
     16 H           0.8746    1.6579    1.0610 H       1  LIG1        0.0624
     17 H          -2.8276    2.1739   -1.0332 H       1  LIG1        0.0624
     18 H           1.2247    4.1011    1.0418 H       1  LIG1        0.0624
     19 C          -1.4477    6.8763    0.3116 C.ar    1  LIG1       -0.0534
     20 C          -1.2566    8.2524    0.3128 C.ar    1  LIG1       -0.0505
     21 C          -0.3985    6.0077   -0.0002 C.ar    1  LIG1       -0.0178
     22 C          -0.0046    8.7890    0.0027 C.ar    1  LIG1        0.0173
     23 H          -2.0718    8.9178    0.5621 H       1  LIG1        0.0625
     24 C           0.8521    6.5518   -0.3102 C.ar    1  LIG1       -0.0534
     25 C           1.0495    7.9255   -0.3072 C.ar    1  LIG1       -0.0505
     26 H           1.6687    5.8926   -0.5767 H       1  LIG1        0.0624
     27 H          -2.4146    6.4693    0.5793 H       1  LIG1        0.0624
     28 H           2.0245    8.3263   -0.5510 H       1  LIG1        0.0625
     29 C           0.1953   10.2466    0.0036 C.ar    1  LIG1        0.1348
     30 C           1.2435   11.0498   -0.3276 C.ar    1  LIG1       -0.0159
     31 C           0.8005   12.3993   -0.1094 C.ar    1  LIG1       -0.0233
     32 C          -0.4760   12.3012    0.3330 C.ar    1  LIG1        0.0926
     33 O          -0.8487   11.0076    0.4044 O.2     1  LIG1       -0.4629
     34 H          -1.2138   13.0268    0.6264 H       1  LIG1        0.1029
     35 H           2.2075   10.7346   -0.6878 H       1  LIG1        0.0655
     36 H           1.3597   13.3057   -0.2647 H       1  LIG1        0.0649
@<TRIPOS>BOND
     1    17     9    1
     2    13    10    1
     3    35    30    1
     4    26    24    1
     5     9    10   ar
     6     9    11   ar
     7    10    12   ar
     8    28    25    1
     9    30    31   ar
    10    30    29   ar
    11    24    25   ar
    12    24    21   ar
    13    25    22   ar
    14     8     3    1
    15    36    31    1
    16     7     2    1
    17     3     2   ar
    18     3     4   ar
    19    31    32   ar
    20     2     1   ar
    21    21    12    1
    22    21    19   ar
    23    12    15   ar
    24    22    29    1
    25    22    20   ar
    26    29    33   ar
    27    11     4    1
    28    11    14   ar
    29     4     5   ar
    30     1     6    1
    31     1     5   ar
    32    19    20   ar
    33    19    27    1
    34    20    23    1
    35    32    33   ar
    36    32    34    1
    37    15    14   ar
    38    15    18    1
    39    14    16    1
