@<TRIPOS>MOLECULE
mol_data/opt/m06hf/geoms/mol2/54-4-5-.out
 36 39 0 0 0
SMALL
GASTEIGER

@<TRIPOS>ATOM
      1 C          -2.0836   -2.0445    0.1079 C.ar    1  LIG1       -0.0237
      2 C          -0.7284   -2.0245   -0.0027 C.ar    1  LIG1       -0.0541
      3 C          -0.2041   -0.6915   -0.0552 C.ar    1  LIG1       -0.0469
      4 C          -1.1744    0.2650    0.0180 C.ar    1  LIG1        0.0193
      5 S          -2.7426   -0.4549    0.1609 S.2     1  LIG1       -0.0967
      6 H          -2.7330   -2.9025    0.1659 H       1  LIG1        0.0693
      7 H          -0.1202   -2.9151   -0.0551 H       1  LIG1        0.0623
      8 H           0.8433   -0.4545   -0.1728 H       1  LIG1        0.0629
      9 C          -1.8972    2.5622   -0.6818 C.ar    1  LIG1       -0.0530
     10 C          -1.7133    3.9393   -0.6961 C.ar    1  LIG1       -0.0534
     11 C          -1.0019    1.7349    0.0018 C.ar    1  LIG1       -0.0113
     12 C          -0.6292    4.5215   -0.0334 C.ar    1  LIG1       -0.0178
     13 H          -2.3963    4.5678   -1.2538 H       1  LIG1        0.0624
     14 C           0.0772    2.3160    0.6744 C.ar    1  LIG1       -0.0530
     15 C           0.2639    3.6920    0.6510 C.ar    1  LIG1       -0.0534
     16 H           0.7513    1.6849    1.2392 H       1  LIG1        0.0624
     17 H          -2.7230    2.1217   -1.2267 H       1  LIG1        0.0624
     18 H           1.0882    4.1336    1.1974 H       1  LIG1        0.0624
     19 C          -1.5090    6.8684    0.1250 C.ar    1  LIG1       -0.0534
     20 C          -1.3234    8.2447    0.0972 C.ar    1  LIG1       -0.0530
     21 C          -0.4290    5.9992   -0.0539 C.ar    1  LIG1       -0.0178
     22 C          -0.0479    8.7854   -0.0924 C.ar    1  LIG1       -0.0113
     23 H          -2.1697    8.9095    0.2111 H       1  LIG1        0.0624
     24 C           0.8428    6.5420   -0.2571 C.ar    1  LIG1       -0.0534
     25 C           1.0336    7.9183   -0.2710 C.ar    1  LIG1       -0.0530
     26 H           1.6844    5.8806   -0.4201 H       1  LIG1        0.0624
     27 H          -2.4977    6.4621    0.2992 H       1  LIG1        0.0624
     28 H           2.0283    8.3231   -0.4110 H       1  LIG1        0.0624
     29 C           0.1364   10.2540   -0.0942 C.ar    1  LIG1        0.0193
     30 C          -0.4970   11.1771    0.6873 C.ar    1  LIG1       -0.0469
     31 C          -0.0801   12.5206    0.4138 C.ar    1  LIG1       -0.0541
     32 C           0.8597   12.5814   -0.5674 C.ar    1  LIG1       -0.0237
     33 S           1.2457   11.0208   -1.1788 S.2     1  LIG1       -0.0967
     34 H           1.3447   13.4557   -0.9698 H       1  LIG1        0.0693
     35 H          -1.2121   10.9068    1.4509 H       1  LIG1        0.0629
     36 H          -0.4600   13.3885    0.9316 H       1  LIG1        0.0623
@<TRIPOS>BOND
     1    13    10    1
     2    17     9    1
     3    33    32   ar
     4    33    29   ar
     5    34    32    1
     6    10     9   ar
     7    10    12   ar
     8     9    11   ar
     9    32    31   ar
    10    26    24    1
    11    28    25    1
    12    25    24   ar
    13    25    22   ar
    14    24    21   ar
    15     8     3    1
    16    29    22    1
    17    29    30   ar
    18    22    20   ar
    19     3     2   ar
    20     3     4   ar
    21     7     2    1
    22    21    12    1
    23    21    19   ar
    24    12    15   ar
    25     2     1   ar
    26    11     4    1
    27    11    14   ar
    28     4     5   ar
    29    20    19   ar
    30    20    23    1
    31     1     5   ar
    32     1     6    1
    33    19    27    1
    34    31    30   ar
    35    31    36    1
    36    15    14   ar
    37    15    18    1
    38    14    16    1
    39    30    35    1
