@<TRIPOS>MOLECULE
mol_data/opt/m06hf/geoms/mol2/54-55-.out
 33 36 0 0 0
SMALL
GASTEIGER

@<TRIPOS>ATOM
      1 C          -1.9639   -2.0380    0.4355 C.ar    1  LIG1       -0.0237
      2 C          -0.6892   -2.0130   -0.0374 C.ar    1  LIG1       -0.0541
      3 C          -0.1965   -0.6785   -0.2095 C.ar    1  LIG1       -0.0469
      4 C          -1.1098    0.2744    0.1392 C.ar    1  LIG1        0.0193
      5 S          -2.5807   -0.4504    0.6878 S.2     1  LIG1       -0.0967
      6 H          -2.5748   -2.8981    0.6562 H       1  LIG1        0.0693
      7 H          -0.1198   -2.9015   -0.2657 H       1  LIG1        0.0623
      8 H           0.7797   -0.4375   -0.6050 H       1  LIG1        0.0629
      9 C          -2.0077    2.5720   -0.3029 C.ar    1  LIG1       -0.0529
     10 C          -1.8394    3.9491   -0.3672 C.ar    1  LIG1       -0.0529
     11 C          -0.9507    1.7444    0.0858 C.ar    1  LIG1       -0.0113
     12 C          -0.6099    4.5306   -0.0450 C.ar    1  LIG1       -0.0113
     13 H          -2.6581    4.5751   -0.6995 H       1  LIG1        0.0624
     14 C           0.2753    2.3275    0.4218 C.ar    1  LIG1       -0.0529
     15 C           0.4439    3.7037    0.3577 C.ar    1  LIG1       -0.0529
     16 H           1.0859    1.6976    0.7646 H       1  LIG1        0.0624
     17 H          -2.9564    2.1330   -0.5847 H       1  LIG1        0.0624
     18 H           1.3856    4.1482    0.6521 H       1  LIG1        0.0624
     19 C          -0.4093    5.9931   -0.1282 C.ar    1  LIG1        0.0199
     20 C           0.7120    6.6623   -0.5286 C.ar    1  LIG1       -0.0463
     21 C           0.5548    8.0825   -0.5004 C.ar    1  LIG1       -0.0458
     22 C          -0.6849    8.4679   -0.0767 C.ar    1  LIG1        0.0265
     23 S          -1.6646    7.0989    0.3173 S.2     1  LIG1       -0.0877
     24 H           1.6041    6.1596   -0.8727 H       1  LIG1        0.0629
     25 H           1.3141    8.7849   -0.8133 H       1  LIG1        0.0629
     26 C          -1.2101    9.8282    0.0799 C.ar    1  LIG1        0.0259
     27 C          -2.4865   10.2709   -0.1214 C.ar    1  LIG1       -0.0464
     28 C          -2.6301   11.6735    0.1306 C.ar    1  LIG1       -0.0541
     29 C          -1.4607   12.2541    0.5128 C.ar    1  LIG1       -0.0237
     30 S          -0.1754   11.1136    0.5935 S.2     1  LIG1       -0.0961
     31 H          -1.2811   13.2882    0.7570 H       1  LIG1        0.0693
     32 H          -3.2858    9.6269   -0.4588 H       1  LIG1        0.0629
     33 H          -3.5582   12.2135    0.0210 H       1  LIG1        0.0623
@<TRIPOS>BOND
     1    24    20    1
     2    25    21    1
     3    13    10    1
     4     8     3    1
     5    17     9    1
     6    20    21   ar
     7    20    19   ar
     8    21    22   ar
     9    32    27    1
    10    10     9   ar
    11    10    12   ar
    12     9    11   ar
    13     7     2    1
    14     3     2   ar
    15     3     4   ar
    16    19    12    1
    17    19    23   ar
    18    27    26   ar
    19    27    28   ar
    20    22    26    1
    21    22    23   ar
    22    12    15   ar
    23     2     1   ar
    24    33    28    1
    25    26    30   ar
    26    11     4    1
    27    11    14   ar
    28    28    29   ar
    29     4     5   ar
    30    15    14   ar
    31    15    18    1
    32    14    16    1
    33     1     6    1
    34     1     5   ar
    35    29    30   ar
    36    29    31    1
