@<TRIPOS>MOLECULE
mol_data/opt/m06hf/geoms/mol2/54-5-13.out
 34 37 0 0 0
SMALL
GASTEIGER

@<TRIPOS>ATOM
      1 C          -2.1162   -2.0200    0.0190 C.ar    1  LIG1       -0.0237
      2 C          -0.8042   -1.9908   -0.3376 C.ar    1  LIG1       -0.0541
      3 C          -0.2801   -0.6581   -0.3799 C.ar    1  LIG1       -0.0469
      4 C          -1.2074    0.2890   -0.0516 C.ar    1  LIG1        0.0193
      5 S          -2.7326   -0.4427    0.3160 S.2     1  LIG1       -0.0967
      6 H          -2.7566   -2.8799    0.1283 H       1  LIG1        0.0693
      7 H          -0.2287   -2.8738   -0.5718 H       1  LIG1        0.0623
      8 H           0.7310   -0.4138   -0.6711 H       1  LIG1        0.0629
      9 C          -2.0418    2.6342   -0.3589 C.ar    1  LIG1       -0.0529
     10 C          -1.8464    4.0075   -0.3037 C.ar    1  LIG1       -0.0529
     11 C          -1.0212    1.7550    0.0162 C.ar    1  LIG1       -0.0113
     12 C          -0.6279    4.5359    0.1337 C.ar    1  LIG1       -0.0113
     13 H          -2.6295    4.6791   -0.6308 H       1  LIG1        0.0624
     14 C           0.1968    2.2836    0.4547 C.ar    1  LIG1       -0.0529
     15 C           0.3935    3.6569    0.5078 C.ar    1  LIG1       -0.0529
     16 H           0.9797    1.6127    0.7833 H       1  LIG1        0.0624
     17 H          -2.9811    2.2393   -0.7258 H       1  LIG1        0.0624
     18 H           1.3332    4.0523    0.8729 H       1  LIG1        0.0624
     19 C          -0.4413    6.0011    0.2001 C.ar    1  LIG1        0.0200
     20 C          -1.3588    6.9452    0.5637 C.ar    1  LIG1       -0.0463
     21 C          -0.8339    8.2750    0.5306 C.ar    1  LIG1       -0.0449
     22 C           0.4732    8.3175    0.1330 C.ar    1  LIG1        0.0360
     23 S           1.0701    6.7358   -0.2192 S.2     1  LIG1       -0.0868
     24 H          -2.3587    6.6974    0.8893 H       1  LIG1        0.0629
     25 H          -1.3866    9.1523    0.8349 H       1  LIG1        0.0630
     26 C           1.3308    9.4924   -0.0324 C.ar    1  LIG1        0.0531
     27 C           2.6755    9.6818    0.2059 C.ar    1  LIG1       -0.0359
     28 C           2.9756   11.0322   -0.1224 C.ar    1  LIG1       -0.0438
     29 C           1.8069   11.6168   -0.5492 C.ar    1  LIG1        0.0022
     30 N           0.8212   10.6773   -0.4885 N.ar    1  LIG1       -0.3603
     31 H          -0.1278   10.7948   -0.8047 H       1  LIG1        0.1653
     32 H           1.6041   12.6163   -0.8922 H       1  LIG1        0.0807
     33 H           3.3499    8.9387    0.5977 H       1  LIG1        0.0639
     34 H           3.9332   11.5187   -0.0473 H       1  LIG1        0.0633
@<TRIPOS>BOND
     1    32    29    1
     2    31    30    1
     3    17     9    1
     4     8     3    1
     5    13    10    1
     6     7     2    1
     7    29    30   ar
     8    29    28   ar
     9    30    26   ar
    10     3     2   ar
    11     3     4   ar
    12     9    10   ar
    13     9    11   ar
    14     2     1   ar
    15    10    12   ar
    16    23    22   ar
    17    23    19   ar
    18    28    34    1
    19    28    27   ar
    20     4    11    1
    21     4     5   ar
    22    26    22    1
    23    26    27   ar
    24    11    14   ar
    25     1     6    1
    26     1     5   ar
    27    22    21   ar
    28    12    19    1
    29    12    15   ar
    30    19    20   ar
    31    27    33    1
    32    14    15   ar
    33    14    16    1
    34    15    18    1
    35    21    20   ar
    36    21    25    1
    37    20    24    1
