@<TRIPOS>MOLECULE
mol_data/opt/m06hf/geoms/mol2/54-8-4-.out
 35 38 0 0 0
SMALL
GASTEIGER

@<TRIPOS>ATOM
      1 C          -2.0024   -1.9962    0.3421 C.ar    1  LIG1       -0.0237
      2 C          -0.7996   -1.9558   -0.2917 C.ar    1  LIG1       -0.0541
      3 C          -0.3149   -0.6184   -0.4550 C.ar    1  LIG1       -0.0469
      4 C          -1.1622    0.3206    0.0616 C.ar    1  LIG1        0.0193
      5 S          -2.5602   -0.4233    0.7557 S.2     1  LIG1       -0.0967
      6 H          -2.5916   -2.8623    0.5950 H       1  LIG1        0.0693
      7 H          -0.2772   -2.8344   -0.6389 H       1  LIG1        0.0623
      8 H           0.6053   -0.3644   -0.9605 H       1  LIG1        0.0629
      9 C          -2.0742    2.6519   -0.0756 C.ar    1  LIG1       -0.0529
     10 C          -1.8900    4.0278   -0.0788 C.ar    1  LIG1       -0.0503
     11 C          -0.9831    1.7888    0.0702 C.ar    1  LIG1       -0.0113
     12 C          -0.6053    4.5562    0.0549 C.ar    1  LIG1        0.0227
     13 H          -2.7302    4.6986   -0.1947 H       1  LIG1        0.0625
     14 C           0.2986    2.3302    0.2188 C.ar    1  LIG1       -0.0529
     15 C           0.4909    3.7041    0.2025 C.ar    1  LIG1       -0.0503
     16 H           1.1413    1.6686    0.3685 H       1  LIG1        0.0624
     17 H          -3.0679    2.2433   -0.2083 H       1  LIG1        0.0624
     18 H           1.4804    4.1258    0.3154 H       1  LIG1        0.0625
     19 C          -0.4038    6.0250    0.0417 C.ar    1  LIG1        0.2034
     20 N          -1.4748    6.8145   -0.0815 N.ar    1  LIG1       -0.1252
     21 C          -0.0525    8.5700    0.0132 C.ar    1  LIG1        0.2034
     22 N           0.8410    6.4973    0.1519 N.ar    1  LIG1       -0.1252
     23 N          -1.2973    8.0972   -0.0962 N.ar    1  LIG1       -0.1252
     24 N           1.0181    7.7799    0.1380 N.ar    1  LIG1       -0.1252
     25 C          -0.9467   10.8919   -0.1331 C.ar    1  LIG1       -0.0509
     26 C          -0.7490   12.2679   -0.1503 C.ar    1  LIG1       -0.0611
     27 C           0.1517   10.0399   -0.0049 C.ar    1  LIG1        0.0226
     28 C           0.5374   12.7917   -0.0400 C.ar    1  LIG1       -0.0617
     29 H          -1.5984   12.9300   -0.2501 H       1  LIG1        0.0618
     30 C           1.4422   10.5603    0.1060 C.ar    1  LIG1       -0.0509
     31 C           1.6307   11.9375    0.0880 C.ar    1  LIG1       -0.0611
     32 H           2.2798    9.8835    0.2047 H       1  LIG1        0.0625
     33 H           0.6875   13.8635   -0.0536 H       1  LIG1        0.0618
     34 H          -1.9389   10.4698   -0.2178 H       1  LIG1        0.0625
     35 H           2.6299   12.3427    0.1741 H       1  LIG1        0.0618
@<TRIPOS>BOND
     1     8     3    1
     2     7     2    1
     3     3     2   ar
     4     3     4   ar
     5     2     1   ar
     6    29    26    1
     7    34    25    1
     8    17     9    1
     9    13    10    1
    10    26    25   ar
    11    26    28   ar
    12    25    27   ar
    13    23    20   ar
    14    23    21   ar
    15    20    19   ar
    16    10     9   ar
    17    10    12   ar
    18     9    11   ar
    19    33    28    1
    20    28    31   ar
    21    27    21    1
    22    27    30   ar
    23    21    24   ar
    24    19    12    1
    25    19    22   ar
    26    12    15   ar
    27     4    11    1
    28     4     5   ar
    29    11    14   ar
    30    31    30   ar
    31    31    35    1
    32    30    32    1
    33    24    22   ar
    34    15    14   ar
    35    15    18    1
    36    14    16    1
    37     1     6    1
    38     1     5   ar
