@<TRIPOS>MOLECULE
mol_data/opt/m06hf/geoms/mol2/54-8-.out
 25 27 0 0 0
SMALL
GASTEIGER

@<TRIPOS>ATOM
      1 C          -2.0851   -1.9106    0.0018 C.ar    1  LIG1       -0.0237
      2 C          -0.7254   -1.9040   -0.0006 C.ar    1  LIG1       -0.0541
      3 C          -0.1877   -0.5778   -0.0013 C.ar    1  LIG1       -0.0469
      4 C          -1.1487    0.3940    0.0006 C.ar    1  LIG1        0.0193
      5 S          -2.7300   -0.3176    0.0033 S.2     1  LIG1       -0.0967
      6 H          -2.7468   -2.7610    0.0028 H       1  LIG1        0.0693
      7 H          -0.1217   -2.7989   -0.0019 H       1  LIG1        0.0623
      8 H           0.8721   -0.3729   -0.0034 H       1  LIG1        0.0629
      9 C          -2.0682    2.7282   -0.0006 C.ar    1  LIG1       -0.0529
     10 C          -1.8932    4.1049   -0.0006 C.ar    1  LIG1       -0.0503
     11 C          -0.9679    1.8634    0.0006 C.ar    1  LIG1       -0.0113
     12 C          -0.6057    4.6412    0.0004 C.ar    1  LIG1        0.0227
     13 H          -2.7459    4.7699   -0.0015 H       1  LIG1        0.0625
     14 C           0.3189    2.4175    0.0017 C.ar    1  LIG1       -0.0529
     15 C           0.5019    3.7916    0.0015 C.ar    1  LIG1       -0.0503
     16 H           1.1869    1.7738    0.0030 H       1  LIG1        0.0624
     17 H          -3.0749    2.3295   -0.0016 H       1  LIG1        0.0624
     18 H           1.4973    4.2145    0.0024 H       1  LIG1        0.0625
     19 C          -0.4140    6.1111    0.0002 C.ar    1  LIG1        0.2033
     20 N          -1.4992    6.8913   -0.0004 N.ar    1  LIG1       -0.1258
     21 C          -0.0824    8.6375    0.0001 C.ar    1  LIG1        0.1605
     22 N           0.8357    6.5853    0.0006 N.ar    1  LIG1       -0.1258
     23 N          -1.3311    8.1789   -0.0005 N.ar    1  LIG1       -0.1339
     24 N           1.0055    7.8728    0.0005 N.ar    1  LIG1       -0.1339
     25 H           0.0569    9.7082   -0.0002 H       1  LIG1        0.1085
@<TRIPOS>BOND
     1     8     3    1
     2     7     2    1
     3    17     9    1
     4    13    10    1
     5     3     2   ar
     6     3     4   ar
     7    10     9   ar
     8    10    12   ar
     9     2     1   ar
    10     9    11   ar
    11    23    20   ar
    12    23    21   ar
    13    20    19   ar
    14    25    21    1
    15    21    24   ar
    16    19    12    1
    17    19    22   ar
    18    12    15   ar
    19    24    22   ar
    20    11     4    1
    21    11    14   ar
    22     4     5   ar
    23    15    14   ar
    24    15    18    1
    25    14    16    1
    26     1     6    1
    27     1     5   ar
