@<TRIPOS>MOLECULE
mol_data/opt/m06hf/geoms/mol2/54.out
 19 20 0 0 0
SMALL
GASTEIGER

@<TRIPOS>ATOM
      1 C          -1.9511   -1.8730    0.3613 C.ar    1  LIG1       -0.0237
      2 C          -0.7282   -1.8224   -0.2317 C.ar    1  LIG1       -0.0541
      3 C          -0.2603   -0.4786   -0.4035 C.ar    1  LIG1       -0.0469
      4 C          -1.1388    0.4545    0.0650 C.ar    1  LIG1        0.0193
      5 S          -2.5470   -0.3009    0.7285 S.2     1  LIG1       -0.0967
      6 H          -2.5341   -2.7449    0.6097 H       1  LIG1        0.0693
      7 H          -0.1799   -2.6980   -0.5451 H       1  LIG1        0.0623
      8 H           0.6722   -0.2161   -0.8819 H       1  LIG1        0.0629
      9 C           0.2546    2.5053    0.3144 C.ar    1  LIG1       -0.0535
     10 C           0.4086    3.8871    0.2847 C.ar    1  LIG1       -0.0612
     11 C          -0.9917    1.9283    0.0527 C.ar    1  LIG1       -0.0113
     12 C          -0.6826    4.7079    0.0101 C.ar    1  LIG1       -0.0617
     13 H           1.3781    4.3227    0.4891 H       1  LIG1        0.0618
     14 C          -2.0828    2.7569   -0.2235 C.ar    1  LIG1       -0.0535
     15 C          -1.9288    4.1393   -0.2407 C.ar    1  LIG1       -0.0612
     16 H          -3.0466    2.3149   -0.4443 H       1  LIG1        0.0624
     17 H          -0.5632    5.7834   -0.0061 H       1  LIG1        0.0618
     18 H           1.0929    1.8661    0.5598 H       1  LIG1        0.0624
     19 H          -2.7803    4.7703   -0.4581 H       1  LIG1        0.0618
@<TRIPOS>BOND
     1     8     3    1
     2     7     2    1
     3    19    15    1
     4    16    14    1
     5     3     2   ar
     6     3     4   ar
     7    15    14   ar
     8    15    12   ar
     9     2     1   ar
    10    14    11   ar
    11    17    12    1
    12    12    10   ar
    13    11     4    1
    14    11     9   ar
    15     4     5   ar
    16    10     9   ar
    17    10    13    1
    18     9    18    1
    19     1     6    1
    20     1     5   ar
