@<TRIPOS>MOLECULE
mol_data/opt/m06hf/geoms/mol2/5412-12-.out
 33 36 0 0 0
SMALL
GASTEIGER

@<TRIPOS>ATOM
      1 C          -2.0704   -1.9843    0.5493 C.ar    1  LIG1       -0.0237
      2 C          -0.9231   -1.9829   -0.1815 C.ar    1  LIG1       -0.0541
      3 C          -0.4389   -0.6583   -0.4347 C.ar    1  LIG1       -0.0469
      4 C          -1.2304    0.3107    0.1123 C.ar    1  LIG1        0.0193
      5 S          -2.5728   -0.3889    0.9492 S.2     1  LIG1       -0.0967
      6 H          -2.6467   -2.8325    0.8808 H       1  LIG1        0.0693
      7 H          -0.4403   -2.8806   -0.5369 H       1  LIG1        0.0623
      8 H           0.4395   -0.4346   -1.0227 H       1  LIG1        0.0629
      9 C           0.2469    2.3179    0.1249 C.ar    1  LIG1       -0.0529
     10 C           0.4436    3.6902    0.0558 C.ar    1  LIG1       -0.0505
     11 C          -1.0401    1.7764    0.0569 C.ar    1  LIG1       -0.0113
     12 C          -0.6503    4.5515   -0.0667 C.ar    1  LIG1        0.0173
     13 H           1.4417    4.1043    0.1093 H       1  LIG1        0.0625
     14 C          -2.1311    2.6429   -0.0676 C.ar    1  LIG1       -0.0529
     15 C          -1.9395    4.0154   -0.1229 C.ar    1  LIG1       -0.0505
     16 H          -3.1323    2.2364   -0.1377 H       1  LIG1        0.0624
     17 H           1.0936    1.6567    0.2553 H       1  LIG1        0.0624
     18 H          -2.7956    4.6704   -0.2174 H       1  LIG1        0.0625
     19 C          -0.4409    6.0040   -0.1259 C.ar    1  LIG1        0.1358
     20 C          -1.2772    7.0683   -0.2897 C.ar    1  LIG1       -0.0151
     21 C          -0.4506    8.2376   -0.2653 C.ar    1  LIG1       -0.0122
     22 C           0.8209    7.7894   -0.0805 C.ar    1  LIG1        0.1705
     23 O           0.8313    6.4441    0.0027 O.2     1  LIG1       -0.4517
     24 H          -2.3444    7.0339   -0.4254 H       1  LIG1        0.0656
     25 H          -0.7546    9.2633   -0.3852 H       1  LIG1        0.0657
     26 C           2.0941    8.4854    0.0535 C.ar    1  LIG1        0.1697
     27 C           2.3989    9.7754    0.3584 C.ar    1  LIG1       -0.0128
     28 C           3.8321    9.8600    0.3076 C.ar    1  LIG1       -0.0232
     29 C           4.2654    8.6161   -0.0136 C.ar    1  LIG1        0.0927
     30 O           3.2204    7.7792   -0.1715 O.2     1  LIG1       -0.4598
     31 H           5.2420    8.1901   -0.1586 H       1  LIG1        0.1029
     32 H           1.6991   10.5560    0.6020 H       1  LIG1        0.0656
     33 H           4.4440   10.7253    0.4948 H       1  LIG1        0.0649
@<TRIPOS>BOND
     1     8     3    1
     2     7     2    1
     3     3     2   ar
     4     3     4   ar
     5    24    20    1
     6    25    21    1
     7    20    21   ar
     8    20    19   ar
     9    21    22   ar
    10    18    15    1
    11     2     1   ar
    12    30    29   ar
    13    30    26   ar
    14    31    29    1
    15    16    14    1
    16    19    12    1
    17    19    23   ar
    18    15    14   ar
    19    15    12   ar
    20    22    23   ar
    21    22    26    1
    22    14    11   ar
    23    12    10   ar
    24    29    28   ar
    25    26    27   ar
    26    10    13    1
    27    10     9   ar
    28    11     4    1
    29    11     9   ar
    30     4     5   ar
    31     9    17    1
    32    28    27   ar
    33    28    33    1
    34    27    32    1
    35     1     6    1
    36     1     5   ar
