@<TRIPOS>MOLECULE
mol_data/opt/m06hf/geoms/mol2/5412-12.out
 33 36 0 0 0
SMALL
GASTEIGER

@<TRIPOS>ATOM
      1 C          -2.0175   -1.9874    0.4910 C.ar    1  LIG1       -0.0237
      2 C          -0.8696   -1.9646   -0.2382 C.ar    1  LIG1       -0.0541
      3 C          -0.3987   -0.6320   -0.4736 C.ar    1  LIG1       -0.0469
      4 C          -1.2009    0.3216    0.0849 C.ar    1  LIG1        0.0193
      5 S          -2.5375   -0.4023    0.9102 S.2     1  LIG1       -0.0967
      6 H          -2.5858   -2.8456    0.8104 H       1  LIG1        0.0693
      7 H          -0.3769   -2.8526   -0.6045 H       1  LIG1        0.0623
      8 H           0.4782   -0.3919   -1.0573 H       1  LIG1        0.0629
      9 C           0.2566    2.3426    0.1289 C.ar    1  LIG1       -0.0529
     10 C           0.4397    3.7179    0.0808 C.ar    1  LIG1       -0.0505
     11 C          -1.0247    1.7895    0.0512 C.ar    1  LIG1       -0.0113
     12 C          -0.6614    4.5712   -0.0309 C.ar    1  LIG1        0.0173
     13 H           1.4342    4.1386    0.1426 H       1  LIG1        0.0625
     14 C          -2.1237    2.6477   -0.0623 C.ar    1  LIG1       -0.0529
     15 C          -1.9452    4.0224   -0.0977 C.ar    1  LIG1       -0.0505
     16 H          -3.1210    2.2331   -0.1407 H       1  LIG1        0.0624
     17 H           1.1094    1.6877    0.2509 H       1  LIG1        0.0624
     18 H          -2.8071    4.6703   -0.1878 H       1  LIG1        0.0625
     19 C          -0.4696    6.0265   -0.0704 C.ar    1  LIG1        0.1358
     20 C          -1.3242    7.0822   -0.1818 C.ar    1  LIG1       -0.0151
     21 C          -0.5151    8.2649   -0.1587 C.ar    1  LIG1       -0.0122
     22 C           0.7668    7.8299   -0.0348 C.ar    1  LIG1        0.1705
     23 O           0.8032    6.4829    0.0181 O.2     1  LIG1       -0.4517
     24 H          -2.3960    7.0354   -0.2702 H       1  LIG1        0.0656
     25 H          -0.8324    9.2911   -0.2240 H       1  LIG1        0.0657
     26 C           2.0378    8.5275    0.0478 C.ar    1  LIG1        0.1697
     27 C           3.3202    8.0969    0.1747 C.ar    1  LIG1       -0.0128
     28 C           4.1275    9.2868    0.1963 C.ar    1  LIG1       -0.0232
     29 C           3.2647   10.3249    0.0818 C.ar    1  LIG1        0.0927
     30 O           1.9947    9.8750   -0.0082 O.2     1  LIG1       -0.4598
     31 H           3.3944   11.3922    0.0512 H       1  LIG1        0.1029
     32 H           3.6417    7.0722    0.2431 H       1  LIG1        0.0656
     33 H           5.1983    9.3494    0.2857 H       1  LIG1        0.0649
@<TRIPOS>BOND
     1     8     3    1
     2     7     2    1
     3     3     2   ar
     4     3     4   ar
     5    24    20    1
     6     2     1   ar
     7    25    21    1
     8    18    15    1
     9    20    21   ar
    10    20    19   ar
    11    21    22   ar
    12    16    14    1
    13    15    14   ar
    14    15    12   ar
    15    19    12    1
    16    19    23   ar
    17    14    11   ar
    18    22    23   ar
    19    22    26    1
    20    12    10   ar
    21    30    26   ar
    22    30    29   ar
    23    26    27   ar
    24    11     4    1
    25    11     9   ar
    26    31    29    1
    27    10     9   ar
    28    10    13    1
    29    29    28   ar
    30     4     5   ar
    31     9    17    1
    32    27    28   ar
    33    27    32    1
    34    28    33    1
    35     1     6    1
    36     1     5   ar
