@<TRIPOS>MOLECULE
mol_data/opt/m06hf/geoms/mol2/541313-.out
 35 38 0 0 0
SMALL
GASTEIGER

@<TRIPOS>ATOM
      1 C          -1.7302   -2.0802    0.2168 C.ar    1  LIG1       -0.0237
      2 C          -0.7993   -1.8866   -0.7550 C.ar    1  LIG1       -0.0541
      3 C          -0.4296   -0.5086   -0.8899 C.ar    1  LIG1       -0.0469
      4 C          -1.0877    0.3069   -0.0149 C.ar    1  LIG1        0.0193
      5 S          -2.1632   -0.6040    0.9882 S.2     1  LIG1       -0.0967
      6 H          -2.1816   -3.0073    0.5298 H       1  LIG1        0.0693
      7 H          -0.3936   -2.6828   -1.3608 H       1  LIG1        0.0623
      8 H           0.2690   -0.1371   -1.6258 H       1  LIG1        0.0629
      9 C           0.2855    2.3868   -0.0495 C.ar    1  LIG1       -0.0529
     10 C           0.4150    3.7654    0.0392 C.ar    1  LIG1       -0.0520
     11 C          -0.9605    1.7745    0.1248 C.ar    1  LIG1       -0.0113
     12 C          -0.6918    4.5659    0.3390 C.ar    1  LIG1       -0.0017
     13 H           1.3756    4.2340   -0.1309 H       1  LIG1        0.0624
     14 C          -2.0674    2.5741    0.4218 C.ar    1  LIG1       -0.0529
     15 C          -1.9318    3.9515    0.5405 C.ar    1  LIG1       -0.0520
     16 H          -3.0396    2.1158    0.5552 H       1  LIG1        0.0624
     17 H           1.1539    1.7729   -0.2508 H       1  LIG1        0.0624
     18 H          -2.7918    4.5514    0.8118 H       1  LIG1        0.0624
     19 C          -0.5433    6.0280    0.4465 C.ar    1  LIG1        0.0469
     20 C           0.5084    6.7979    0.9000 C.ar    1  LIG1       -0.0358
     21 C           0.1143    8.1590    0.8041 C.ar    1  LIG1       -0.0344
     22 C          -1.1657    8.1784    0.2873 C.ar    1  LIG1        0.0633
     23 N          -1.5474    6.8842    0.0849 N.ar    1  LIG1       -0.3530
     24 H          -2.3914    6.6177   -0.3984 H       1  LIG1        0.1659
     25 H           1.4316    6.4157    1.3028 H       1  LIG1        0.0639
     26 H           0.6740    9.0233    1.1217 H       1  LIG1        0.0639
     27 C          -2.0600    9.2873   -0.0451 C.ar    1  LIG1        0.0629
     28 C          -3.4273    9.4189    0.0767 C.ar    1  LIG1       -0.0350
     29 C          -3.7719   10.7096   -0.4135 C.ar    1  LIG1       -0.0438
     30 C          -2.6056   11.3186   -0.8098 C.ar    1  LIG1        0.0022
     31 N          -1.5803   10.4476   -0.5830 N.ar    1  LIG1       -0.3595
     32 H          -0.6144   10.5912   -0.8304 H       1  LIG1        0.1654
     33 H          -2.4281   12.2911   -1.2343 H       1  LIG1        0.0807
     34 H          -4.0900    8.6858    0.5069 H       1  LIG1        0.0639
     35 H          -4.7561   11.1433   -0.4575 H       1  LIG1        0.0633
@<TRIPOS>BOND
     1     8     3    1
     2     7     2    1
     3    33    30    1
     4     3     2   ar
     5     3     4   ar
     6    32    31    1
     7    30    31   ar
     8    30    29   ar
     9     2     1   ar
    10    31    27   ar
    11    35    29    1
    12    29    28   ar
    13    24    23    1
    14    17     9    1
    15    13    10    1
    16     9    10   ar
    17     9    11   ar
    18    27    28   ar
    19    27    22    1
    20     4    11    1
    21     4     5   ar
    22    10    12   ar
    23    28    34    1
    24    23    22   ar
    25    23    19   ar
    26    11    14   ar
    27     1     6    1
    28     1     5   ar
    29    22    21   ar
    30    12    19    1
    31    12    15   ar
    32    14    15   ar
    33    14    16    1
    34    19    20   ar
    35    15    18    1
    36    21    20   ar
    37    21    26    1
    38    20    25    1
