@<TRIPOS>MOLECULE
mol_data/opt/m06hf/geoms/mol2/5413.out
 27 29 0 0 0
SMALL
GASTEIGER

@<TRIPOS>ATOM
      1 C          -1.9914   -1.9570    0.2828 C.ar    1  LIG1       -0.0237
      2 C          -0.7064   -1.9113   -0.1598 C.ar    1  LIG1       -0.0541
      3 C          -0.2246   -0.5688   -0.3006 C.ar    1  LIG1       -0.0469
      4 C          -1.1563    0.3690    0.0382 C.ar    1  LIG1        0.0193
      5 S          -2.6326   -0.3822    0.5432 S.2     1  LIG1       -0.0967
      6 H          -2.5971   -2.8275    0.4745 H       1  LIG1        0.0693
      7 H          -0.1216   -2.7899   -0.3877 H       1  LIG1        0.0623
      8 H           0.7590   -0.3111   -0.6659 H       1  LIG1        0.0629
      9 C           0.1950    2.4267    0.4282 C.ar    1  LIG1       -0.0529
     10 C           0.3498    3.8057    0.4168 C.ar    1  LIG1       -0.0520
     11 C          -1.0103    1.8417    0.0261 C.ar    1  LIG1       -0.0113
     12 C          -0.6961    4.6359    0.0017 C.ar    1  LIG1       -0.0017
     13 H           1.2734    4.2527    0.7612 H       1  LIG1        0.0624
     14 C          -2.0574    2.6701   -0.3859 C.ar    1  LIG1       -0.0529
     15 C          -1.8998    4.0505   -0.4023 C.ar    1  LIG1       -0.0520
     16 H          -2.9867    2.2299   -0.7259 H       1  LIG1        0.0624
     17 H           0.9984    1.7939    0.7827 H       1  LIG1        0.0624
     18 H          -2.7053    4.6750   -0.7694 H       1  LIG1        0.0624
     19 C          -0.5194    6.1000   -0.0056 C.ar    1  LIG1        0.0465
     20 C           0.5845    6.8726   -0.2977 C.ar    1  LIG1       -0.0364
     21 C           0.2000    8.2353   -0.1601 C.ar    1  LIG1       -0.0438
     22 C          -1.1224    8.2472    0.2139 C.ar    1  LIG1        0.0022
     23 N          -1.5463    6.9533    0.2958 N.ar    1  LIG1       -0.3607
     24 H          -2.4499    6.6553    0.6260 H       1  LIG1        0.1653
     25 H          -1.7857    9.0662    0.4318 H       1  LIG1        0.0807
     26 H           1.5433    6.4942   -0.6122 H       1  LIG1        0.0639
     27 H           0.8164    9.1026   -0.3243 H       1  LIG1        0.0633
@<TRIPOS>BOND
     1    18    15    1
     2    16    14    1
     3     8     3    1
     4    26    20    1
     5    15    14   ar
     6    15    12   ar
     7     7     2    1
     8    14    11   ar
     9    27    21    1
    10     3     2   ar
    11     3     4   ar
    12    20    21   ar
    13    20    19   ar
    14    21    22   ar
    15     2     1   ar
    16    19    12    1
    17    19    23   ar
    18    12    10   ar
    19    11     4    1
    20    11     9   ar
    21     4     5   ar
    22    22    23   ar
    23    22    25    1
    24     1     6    1
    25     1     5   ar
    26    23    24    1
    27    10     9   ar
    28    10    13    1
    29     9    17    1
