@<TRIPOS>MOLECULE
mol_data/opt/m06hf/geoms/mol2/544-13.out
 37 40 0 0 0
SMALL
GASTEIGER

@<TRIPOS>ATOM
      1 C          -2.0494   -2.0668   -0.0142 C.ar    1  LIG1       -0.0237
      2 C          -0.6903   -2.0204   -0.0032 C.ar    1  LIG1       -0.0541
      3 C          -0.1900   -0.6773    0.0018 C.ar    1  LIG1       -0.0469
      4 C          -1.1814    0.2603   -0.0035 C.ar    1  LIG1        0.0193
      5 S          -2.7417   -0.4911   -0.0105 S.2     1  LIG1       -0.0967
      6 H          -2.6841   -2.9375   -0.0210 H       1  LIG1        0.0693
      7 H          -0.0626   -2.8988   -0.0075 H       1  LIG1        0.0623
      8 H           0.8590   -0.4198   -0.0213 H       1  LIG1        0.0629
      9 C          -0.0096    2.3285    0.7418 C.ar    1  LIG1       -0.0530
     10 C           0.1558    3.7074    0.7357 C.ar    1  LIG1       -0.0534
     11 C          -1.0360    1.7332    0.0023 C.ar    1  LIG1       -0.0113
     12 C          -0.7091    4.5266    0.0038 C.ar    1  LIG1       -0.0178
     13 H           0.9401    4.1593    1.3300 H       1  LIG1        0.0624
     14 C          -1.9035    2.5504   -0.7282 C.ar    1  LIG1       -0.0530
     15 C          -1.7431    3.9305   -0.7230 C.ar    1  LIG1       -0.0534
     16 H          -2.6876    2.1006   -1.3246 H       1  LIG1        0.0624
     17 H           0.6404    1.7058    1.3429 H       1  LIG1        0.0624
     18 H          -2.4032    4.5517   -1.3154 H       1  LIG1        0.0624
     19 C          -1.6231    6.8605    0.1621 C.ar    1  LIG1       -0.0534
     20 C          -1.4538    8.2402    0.1481 C.ar    1  LIG1       -0.0521
     21 C          -0.5291    6.0071   -0.0009 C.ar    1  LIG1       -0.0178
     22 C          -0.1825    8.7992   -0.0144 C.ar    1  LIG1       -0.0017
     23 H          -2.3173    8.8878    0.2399 H       1  LIG1        0.0624
     24 C           0.7401    6.5679   -0.1725 C.ar    1  LIG1       -0.0534
     25 C           0.9134    7.9459   -0.1719 C.ar    1  LIG1       -0.0521
     26 H           1.5931    5.9172   -0.3193 H       1  LIG1        0.0624
     27 H          -2.6099    6.4394    0.3092 H       1  LIG1        0.0624
     28 H           1.9019    8.3721   -0.2840 H       1  LIG1        0.0624
     29 C           0.0101   10.2621   -0.0314 C.ar    1  LIG1        0.0465
     30 C           0.8460   11.0510   -0.7924 C.ar    1  LIG1       -0.0364
     31 C           0.6160   12.4036   -0.4158 C.ar    1  LIG1       -0.0438
     32 C          -0.3481   12.3933    0.5629 C.ar    1  LIG1        0.0022
     33 N          -0.7119   11.0963    0.7793 N.ar    1  LIG1       -0.3607
     34 H          -1.3394   10.7779    1.5001 H       1  LIG1        0.1653
     35 H          -0.7957   13.1981    1.1197 H       1  LIG1        0.0807
     36 H           1.5133   10.6909   -1.5578 H       1  LIG1        0.0639
     37 H           1.0939   13.2792   -0.8211 H       1  LIG1        0.0633
@<TRIPOS>BOND
     1    36    30    1
     2    16    14    1
     3    18    15    1
     4    37    31    1
     5    30    31   ar
     6    30    29   ar
     7    14    15   ar
     8    14    11   ar
     9    15    12   ar
    10    31    32   ar
    11    26    24    1
    12    28    25    1
    13    24    25   ar
    14    24    21   ar
    15    25    22   ar
    16    29    22    1
    17    29    33   ar
    18     8     3    1
    19     6     1    1
    20    22    20   ar
    21     1     5   ar
    22     1     2   ar
    23     5     4   ar
    24     7     2    1
    25     4     3   ar
    26     4    11    1
    27     2     3   ar
    28    21    12    1
    29    21    19   ar
    30    11     9   ar
    31    12    10   ar
    32    20    19   ar
    33    20    23    1
    34    19    27    1
    35    32    33   ar
    36    32    35    1
    37    10     9   ar
    38    10    13    1
    39     9    17    1
    40    33    34    1
