@<TRIPOS>MOLECULE
mol_data/opt/m06hf/geoms/mol2/544.out
 29 31 0 0 0
SMALL
GASTEIGER

@<TRIPOS>ATOM
      1 C          -2.0068   -1.9846    0.1785 C.ar    1  LIG1       -0.0237
      2 C          -0.6792   -1.9345   -0.1131 C.ar    1  LIG1       -0.0541
      3 C          -0.1899   -0.5906   -0.1991 C.ar    1  LIG1       -0.0469
      4 C          -1.1590    0.3436    0.0310 C.ar    1  LIG1        0.0193
      5 S          -2.6781   -0.4117    0.3615 S.2     1  LIG1       -0.0967
      6 H          -2.6282   -2.8566    0.3001 H       1  LIG1        0.0693
      7 H          -0.0688   -2.8112   -0.2706 H       1  LIG1        0.0623
      8 H           0.8277   -0.3295   -0.4514 H       1  LIG1        0.0629
      9 C           0.1485    2.4061    0.5281 C.ar    1  LIG1       -0.0530
     10 C           0.3030    3.7862    0.5148 C.ar    1  LIG1       -0.0534
     11 C          -1.0169    1.8169    0.0288 C.ar    1  LIG1       -0.0113
     12 C          -0.7071    4.6136    0.0155 C.ar    1  LIG1       -0.0178
     13 H           1.1992    4.2313    0.9292 H       1  LIG1        0.0624
     14 C          -2.0288    2.6418   -0.4701 C.ar    1  LIG1       -0.0530
     15 C          -1.8752    4.0227   -0.4735 C.ar    1  LIG1       -0.0534
     16 H          -2.9270    2.1988   -0.8826 H       1  LIG1        0.0624
     17 H           0.9199    1.7779    0.9546 H       1  LIG1        0.0624
     18 H          -2.6548    4.6486   -0.8894 H       1  LIG1        0.0624
     19 C           0.6710    6.6746   -0.3748 C.ar    1  LIG1       -0.0540
     20 C           0.8252    8.0574   -0.3766 C.ar    1  LIG1       -0.0612
     21 C          -0.5424    6.0966    0.0099 C.ar    1  LIG1       -0.0179
     22 C          -0.2326    8.8795    0.0034 C.ar    1  LIG1       -0.0617
     23 H           1.7681    8.4918   -0.6825 H       1  LIG1        0.0618
     24 C          -1.5984    6.9289    0.3914 C.ar    1  LIG1       -0.0540
     25 C          -1.4454    8.3118    0.3861 C.ar    1  LIG1       -0.0612
     26 H          -2.5327    6.4875    0.7160 H       1  LIG1        0.0624
     27 H          -0.1128    9.9551    0.0012 H       1  LIG1        0.0618
     28 H           1.4854    6.0369   -0.6955 H       1  LIG1        0.0624
     29 H          -2.2691    8.9443    0.6897 H       1  LIG1        0.0618
@<TRIPOS>BOND
     1    18    15    1
     2    16    14    1
     3    28    19    1
     4    23    20    1
     5    15    14   ar
     6    15    12   ar
     7    14    11   ar
     8     8     3    1
     9    20    19   ar
    10    20    22   ar
    11    19    21   ar
    12     7     2    1
    13     3     2   ar
    14     3     4   ar
    15     2     1   ar
    16    27    22    1
    17    22    25   ar
    18    21    12    1
    19    21    24   ar
    20    12    10   ar
    21    11     4    1
    22    11     9   ar
    23     4     5   ar
    24     1     6    1
    25     1     5   ar
    26    25    24   ar
    27    25    29    1
    28    24    26    1
    29    10     9   ar
    30    10    13    1
    31     9    17    1
