@<TRIPOS>MOLECULE
mol_data/opt/m06hf/geoms/mol2/545-.out
 26 28 0 0 0
SMALL
GASTEIGER

@<TRIPOS>ATOM
      1 C          -1.9824   -1.9584    0.2752 C.ar    1  LIG1       -0.0237
      2 C          -0.6980   -1.9063   -0.1682 C.ar    1  LIG1       -0.0541
      3 C          -0.2226   -0.5618   -0.3061 C.ar    1  LIG1       -0.0469
      4 C          -1.1590    0.3707    0.0365 C.ar    1  LIG1        0.0193
      5 S          -2.6299   -0.3882    0.5401 S.2     1  LIG1       -0.0967
      6 H          -2.5848   -2.8317    0.4654 H       1  LIG1        0.0693
      7 H          -0.1095   -2.7818   -0.3986 H       1  LIG1        0.0623
      8 H           0.7590   -0.2992   -0.6733 H       1  LIG1        0.0629
      9 C           0.1928    2.4324    0.3965 C.ar    1  LIG1       -0.0529
     10 C           0.3444    3.8124    0.3740 C.ar    1  LIG1       -0.0529
     11 C          -1.0190    1.8436    0.0235 C.ar    1  LIG1       -0.0113
     12 C          -0.7152    4.6374   -0.0146 C.ar    1  LIG1       -0.0113
     13 H           1.2804    4.2558    0.6906 H       1  LIG1        0.0624
     14 C          -2.0786    2.6686   -0.3652 C.ar    1  LIG1       -0.0529
     15 C          -1.9270    4.0487   -0.3876 C.ar    1  LIG1       -0.0529
     16 H          -3.0146    2.2253   -0.6817 H       1  LIG1        0.0624
     17 H           1.0070    1.8043    0.7334 H       1  LIG1        0.0624
     18 H          -2.7411    4.6767   -0.7246 H       1  LIG1        0.0624
     19 C          -0.5752    6.1103   -0.0275 C.ar    1  LIG1        0.0193
     20 C          -1.5119    7.0428    0.3148 C.ar    1  LIG1       -0.0469
     21 C          -1.0365    8.3873    0.1774 C.ar    1  LIG1       -0.0541
     22 C           0.2481    8.4395   -0.2654 C.ar    1  LIG1       -0.0237
     23 S           0.8958    6.8694   -0.5302 S.2     1  LIG1       -0.0967
     24 H           0.8505    9.3129   -0.4552 H       1  LIG1        0.0693
     25 H          -2.4936    6.7800    0.6815 H       1  LIG1        0.0629
     26 H          -1.6252    9.2627    0.4077 H       1  LIG1        0.0623
@<TRIPOS>BOND
     1    18    15    1
     2    16    14    1
     3     8     3    1
     4    23    22   ar
     5    23    19   ar
     6    24    22    1
     7     7     2    1
     8    15    14   ar
     9    15    12   ar
    10    14    11   ar
    11     3     2   ar
    12     3     4   ar
    13    22    21   ar
    14     2     1   ar
    15    19    12    1
    16    19    20   ar
    17    12    10   ar
    18    11     4    1
    19    11     9   ar
    20     4     5   ar
    21    21    20   ar
    22    21    26    1
    23     1     6    1
    24     1     5   ar
    25    20    25    1
    26    10     9   ar
    27    10    13    1
    28     9    17    1
