@<TRIPOS>MOLECULE
mol_data/opt/m06hf/geoms/mol2/545-5-.out
 33 36 0 0 0
SMALL
GASTEIGER

@<TRIPOS>ATOM
      1 C          -2.0411   -2.0337    0.1292 C.ar    1  LIG1       -0.0237
      2 C          -0.7761   -1.9741   -0.3659 C.ar    1  LIG1       -0.0541
      3 C          -0.2884   -0.6293   -0.4565 C.ar    1  LIG1       -0.0469
      4 C          -1.1974    0.2946   -0.0282 C.ar    1  LIG1        0.0193
      5 S          -2.6556   -0.4710    0.5006 S.2     1  LIG1       -0.0967
      6 H          -2.6469   -2.9082    0.3014 H       1  LIG1        0.0693
      7 H          -0.2100   -2.8433   -0.6650 H       1  LIG1        0.0623
      8 H           0.6811   -0.3592   -0.8496 H       1  LIG1        0.0629
      9 C           0.1753    2.3237    0.4292 C.ar    1  LIG1       -0.0529
     10 C           0.3387    3.7018    0.4775 C.ar    1  LIG1       -0.0529
     11 C          -1.0412    1.7651    0.0271 C.ar    1  LIG1       -0.0113
     12 C          -0.7132    4.5540    0.1276 C.ar    1  LIG1       -0.0113
     13 H           1.2773    4.1192    0.8204 H       1  LIG1        0.0624
     14 C          -2.0926    2.6171   -0.3242 C.ar    1  LIG1       -0.0529
     15 C          -1.9282    3.9947   -0.2804 C.ar    1  LIG1       -0.0529
     16 H          -3.0311    2.1970   -0.6638 H       1  LIG1        0.0624
     17 H           0.9827    1.6711    0.7348 H       1  LIG1        0.0624
     18 H          -2.7352    4.6449   -0.5920 H       1  LIG1        0.0624
     19 C          -0.5643    6.0236    0.1931 C.ar    1  LIG1        0.0199
     20 C          -1.5186    6.9467    0.5170 C.ar    1  LIG1       -0.0463
     21 C          -1.0271    8.2882    0.4965 C.ar    1  LIG1       -0.0458
     22 C           0.2920    8.3620    0.1502 C.ar    1  LIG1        0.0265
     23 S           0.9447    6.7914   -0.1639 S.2     1  LIG1       -0.0877
     24 H          -2.5245    6.6767    0.8043 H       1  LIG1        0.0629
     25 H          -1.6091    9.1585    0.7615 H       1  LIG1        0.0629
     26 C           1.1011    9.5789    0.0157 C.ar    1  LIG1        0.0259
     27 C           0.7103   10.7690   -0.5276 C.ar    1  LIG1       -0.0464
     28 C           1.7373   11.7657   -0.4719 C.ar    1  LIG1       -0.0541
     29 C           2.8797   11.3014    0.1018 C.ar    1  LIG1       -0.0237
     30 S           2.7291    9.6627    0.5993 S.2     1  LIG1       -0.0961
     31 H           3.8053   11.8305    0.2609 H       1  LIG1        0.0693
     32 H          -0.2636   10.9146   -0.9714 H       1  LIG1        0.0629
     33 H           1.6257   12.7695   -0.8534 H       1  LIG1        0.0623
@<TRIPOS>BOND
     1    32    27    1
     2    33    28    1
     3     8     3    1
     4     7     2    1
     5    16    14    1
     6    18    15    1
     7    27    28   ar
     8    27    26   ar
     9    28    29   ar
    10     3     2   ar
    11     3     4   ar
    12     2     1   ar
    13    14    15   ar
    14    14    11   ar
    15    15    12   ar
    16    23    22   ar
    17    23    19   ar
    18     4    11    1
    19     4     5   ar
    20    26    22    1
    21    26    30   ar
    22    11     9   ar
    23    29    31    1
    24    29    30   ar
    25    12    19    1
    26    12    10   ar
    27     1     6    1
    28     1     5   ar
    29    22    21   ar
    30    19    20   ar
    31     9    10   ar
    32     9    17    1
    33    10    13    1
    34    21    20   ar
    35    21    25    1
    36    20    24    1
