@<TRIPOS>MOLECULE
mol_data/opt/m06hf/geoms/mol2/545-8-.out
 32 35 0 0 0
SMALL
GASTEIGER

@<TRIPOS>ATOM
      1 C          -2.0734   -2.0014    0.1835 C.ar    1  LIG1       -0.0237
      2 C          -0.7339   -1.9611   -0.0491 C.ar    1  LIG1       -0.0541
      3 C          -0.2311   -0.6207   -0.1086 C.ar    1  LIG1       -0.0469
      4 C          -1.2023    0.3195    0.0807 C.ar    1  LIG1        0.0193
      5 S          -2.7423   -0.4251    0.3432 S.2     1  LIG1       -0.0967
      6 H          -2.7062   -2.8687    0.2771 H       1  LIG1        0.0693
      7 H          -0.1236   -2.8416   -0.1826 H       1  LIG1        0.0623
      8 H           0.7987   -0.3670   -0.3144 H       1  LIG1        0.0629
      9 C           0.0787    2.3732    0.6692 C.ar    1  LIG1       -0.0529
     10 C           0.2455    3.7516    0.6625 C.ar    1  LIG1       -0.0529
     11 C          -1.0495    1.7911    0.0838 C.ar    1  LIG1       -0.0113
     12 C          -0.7183    4.5781    0.0771 C.ar    1  LIG1       -0.0113
     13 H           1.1110    4.1918    1.1423 H       1  LIG1        0.0624
     14 C          -2.0129    2.6190   -0.5008 C.ar    1  LIG1       -0.0529
     15 C          -1.8481    3.9975   -0.5064 C.ar    1  LIG1       -0.0529
     16 H          -2.8776    2.1774   -0.9802 H       1  LIG1        0.0624
     17 H           0.8107    1.7409    1.1541 H       1  LIG1        0.0624
     18 H          -2.5810    4.6290   -0.9911 H       1  LIG1        0.0624
     19 C          -0.5619    6.0494    0.0741 C.ar    1  LIG1        0.0200
     20 C          -1.5416    6.9924    0.2425 C.ar    1  LIG1       -0.0462
     21 C          -1.0390    8.3236    0.1818 C.ar    1  LIG1       -0.0432
     22 C           0.3111    8.3527   -0.0307 C.ar    1  LIG1        0.0604
     23 S           0.9854    6.7734   -0.1726 S.2     1  LIG1       -0.0850
     24 H          -2.5740    6.7412    0.4349 H       1  LIG1        0.0629
     25 H          -1.6292    9.2205    0.2975 H       1  LIG1        0.0630
     26 C           1.1532    9.5430   -0.1424 C.ar    1  LIG1        0.2098
     27 N           0.5657   10.7411   -0.0369 N.ar    1  LIG1       -0.1253
     28 C           2.6226   11.6078   -0.3356 C.ar    1  LIG1        0.1605
     29 N           2.4617    9.3658   -0.3431 N.ar    1  LIG1       -0.1253
     30 N           1.3187   11.7928   -0.1355 N.ar    1  LIG1       -0.1339
     31 N           3.2128   10.4211   -0.4416 N.ar    1  LIG1       -0.1339
     32 H           3.2452   12.4856   -0.4174 H       1  LIG1        0.1085
@<TRIPOS>BOND
     1    18    15    1
     2    16    14    1
     3    15    14   ar
     4    15    12   ar
     5    14    11   ar
     6    31    29   ar
     7    31    28   ar
     8    32    28    1
     9    29    26   ar
    10    28    30   ar
    11     8     3    1
    12     7     2    1
    13    23    22   ar
    14    23    19   ar
    15    26    27   ar
    16    26    22    1
    17    30    27   ar
    18     3     2   ar
    19     3     4   ar
    20     2     1   ar
    21    22    21   ar
    22    19    12    1
    23    19    20   ar
    24    12    10   ar
    25     4    11    1
    26     4     5   ar
    27    11     9   ar
    28    21    20   ar
    29    21    25    1
    30     1     6    1
    31     1     5   ar
    32    20    24    1
    33    10     9   ar
    34    10    13    1
    35     9    17    1
