@<TRIPOS>MOLECULE
mol_data/opt/m06hf/geoms/mol2/545.out
 26 28 0 0 0
SMALL
GASTEIGER

@<TRIPOS>ATOM
      1 C          -2.0056   -1.9530    0.2547 C.ar    1  LIG1       -0.0237
      2 C          -0.7203   -1.9092   -0.1879 C.ar    1  LIG1       -0.0541
      3 C          -0.2298   -0.5680   -0.3066 C.ar    1  LIG1       -0.0469
      4 C          -1.1562    0.3697    0.0495 C.ar    1  LIG1        0.0193
      5 S          -2.6352   -0.3787    0.5428 S.2     1  LIG1       -0.0967
      6 H          -2.6173   -2.8221    0.4324 H       1  LIG1        0.0693
      7 H          -0.1417   -2.7879   -0.4303 H       1  LIG1        0.0623
      8 H           0.7548   -0.3108   -0.6692 H       1  LIG1        0.0629
      9 C           0.2158    2.4115    0.4466 C.ar    1  LIG1       -0.0529
     10 C           0.3808    3.7897    0.4482 C.ar    1  LIG1       -0.0529
     11 C          -1.0002    1.8414    0.0571 C.ar    1  LIG1       -0.0113
     12 C          -0.6662    4.6316    0.0604 C.ar    1  LIG1       -0.0113
     13 H           1.3139    4.2233    0.7841 H       1  LIG1        0.0624
     14 C          -2.0501    2.6831   -0.3201 C.ar    1  LIG1       -0.0529
     15 C          -1.8850    4.0623   -0.3184 C.ar    1  LIG1       -0.0529
     16 H          -2.9912    2.2553   -0.6427 H       1  LIG1        0.0624
     17 H           1.0201    1.7691    0.7813 H       1  LIG1        0.0624
     18 H          -2.6984    4.7009   -0.6398 H       1  LIG1        0.0624
     19 C          -0.4704    6.0985    0.0562 C.ar    1  LIG1        0.0193
     20 C           0.6511    6.7919   -0.2985 C.ar    1  LIG1       -0.0469
     21 C           0.4911    8.2106   -0.1764 C.ar    1  LIG1       -0.0541
     22 C          -0.7474    8.5556    0.2674 C.ar    1  LIG1       -0.0237
     23 S          -1.7308    7.1737    0.5526 S.2     1  LIG1       -0.0967
     24 H          -1.1367    9.5441    0.4477 H       1  LIG1        0.0693
     25 H           1.5471    6.3104   -0.6625 H       1  LIG1        0.0629
     26 H           1.2606    8.9285   -0.4173 H       1  LIG1        0.0623
@<TRIPOS>BOND
     1     8     3    1
     2    25    20    1
     3    16    14    1
     4    18    15    1
     5     7     2    1
     6    26    21    1
     7    14    15   ar
     8    14    11   ar
     9    15    12   ar
    10     3     2   ar
    11     3     4   ar
    12    20    21   ar
    13    20    19   ar
    14     2     1   ar
    15    21    22   ar
    16     4    11    1
    17     4     5   ar
    18    19    12    1
    19    19    23   ar
    20    11     9   ar
    21    12    10   ar
    22     1     6    1
    23     1     5   ar
    24    22    24    1
    25    22    23   ar
    26     9    10   ar
    27     9    17    1
    28    10    13    1
