@<TRIPOS>MOLECULE
mol_data/opt/m06hf/geoms/mol2/548-.out
 25 27 0 0 0
SMALL
GASTEIGER

@<TRIPOS>ATOM
      1 C          -2.0477   -1.9278   -0.0005 C.ar    1  LIG1       -0.0237
      2 C          -0.6884   -1.8960   -0.0026 C.ar    1  LIG1       -0.0541
      3 C          -0.1754   -0.5601   -0.0016 C.ar    1  LIG1       -0.0469
      4 C          -1.1541    0.3937    0.0013 C.ar    1  LIG1        0.0193
      5 S          -2.7220   -0.3470    0.0028 S.2     1  LIG1       -0.0967
      6 H          -2.6936   -2.7903   -0.0006 H       1  LIG1        0.0693
      7 H          -0.0682   -2.7797   -0.0049 H       1  LIG1        0.0623
      8 H           0.8805   -0.3357   -0.0033 H       1  LIG1        0.0629
      9 C           0.2758    2.4440    0.0050 C.ar    1  LIG1       -0.0529
     10 C           0.4333    3.8212    0.0065 C.ar    1  LIG1       -0.0503
     11 C          -1.0005    1.8661    0.0030 C.ar    1  LIG1       -0.0113
     12 C          -0.6898    4.6503    0.0062 C.ar    1  LIG1        0.0227
     13 H           1.4208    4.2624    0.0080 H       1  LIG1        0.0625
     14 C          -2.1166    2.7105    0.0027 C.ar    1  LIG1       -0.0529
     15 C          -1.9671    4.0902    0.0044 C.ar    1  LIG1       -0.0503
     16 H          -3.1158    2.2933    0.0011 H       1  LIG1        0.0624
     17 H           1.1556    1.8164    0.0056 H       1  LIG1        0.0624
     18 H          -2.8320    4.7394    0.0041 H       1  LIG1        0.0625
     19 C          -0.5252    6.1234    0.0078 C.ar    1  LIG1        0.2033
     20 N          -1.6247    6.8834    0.0081 N.ar    1  LIG1       -0.1258
     21 C          -0.2405    8.6555    0.0108 C.ar    1  LIG1        0.1605
     22 N           0.7155    6.6206    0.0090 N.ar    1  LIG1       -0.1258
     23 N          -1.4804    8.1739    0.0096 N.ar    1  LIG1       -0.1339
     24 N           0.8614    7.9111    0.0105 N.ar    1  LIG1       -0.1339
     25 H          -0.1209    9.7286    0.0119 H       1  LIG1        0.1085
@<TRIPOS>BOND
     1     7     2    1
     2     8     3    1
     3     2     3   ar
     4     2     1   ar
     5     3     4   ar
     6     6     1    1
     7     1     5   ar
     8    16    14    1
     9     4     5   ar
    10     4    11    1
    11    14    11   ar
    12    14    15   ar
    13    11     9   ar
    14    18    15    1
    15    15    12   ar
    16     9    17    1
    17     9    10   ar
    18    12    10   ar
    19    12    19    1
    20    10    13    1
    21    19    20   ar
    22    19    22   ar
    23    20    23   ar
    24    22    24   ar
    25    23    21   ar
    26    24    21   ar
    27    21    25    1
