@<TRIPOS>MOLECULE
mol_data/opt/m06hf/geoms/mol2/548-12.out
 32 35 0 0 0
SMALL
GASTEIGER

@<TRIPOS>ATOM
      1 C          -1.8987   -1.9927    0.3321 C.ar    1  LIG1       -0.0237
      2 C          -0.6880   -1.9104   -0.2820 C.ar    1  LIG1       -0.0541
      3 C          -0.2482   -0.5569   -0.4394 C.ar    1  LIG1       -0.0469
      4 C          -1.1367    0.3519    0.0616 C.ar    1  LIG1        0.0193
      5 S          -2.5183   -0.4402    0.7347 S.2     1  LIG1       -0.0967
      6 H          -2.4608   -2.8790    0.5768 H       1  LIG1        0.0693
      7 H          -0.1292   -2.7704   -0.6193 H       1  LIG1        0.0623
      8 H           0.6705   -0.2706   -0.9303 H       1  LIG1        0.0629
      9 C           0.2480    2.4123    0.2471 C.ar    1  LIG1       -0.0529
     10 C           0.3918    3.7922    0.2312 C.ar    1  LIG1       -0.0503
     11 C          -1.0100    1.8256    0.0701 C.ar    1  LIG1       -0.0113
     12 C          -0.7301    4.6044    0.0546 C.ar    1  LIG1        0.0227
     13 H           1.3627    4.2487    0.3667 H       1  LIG1        0.0625
     14 C          -2.1272    2.6491   -0.1042 C.ar    1  LIG1       -0.0529
     15 C          -1.9920    4.0306   -0.1079 C.ar    1  LIG1       -0.0503
     16 H          -3.1022    2.2049   -0.2589 H       1  LIG1        0.0624
     17 H           1.1097    1.7812    0.4187 H       1  LIG1        0.0624
     18 H          -2.8522    4.6711   -0.2465 H       1  LIG1        0.0625
     19 C          -0.5807    6.0793    0.0413 C.ar    1  LIG1        0.2034
     20 N          -1.6736    6.8295   -0.1145 N.ar    1  LIG1       -0.1251
     21 C          -0.3199    8.6222    0.0136 C.ar    1  LIG1        0.2381
     22 N           0.6470    6.5941    0.1849 N.ar    1  LIG1       -0.1251
     23 N          -1.5471    8.1210   -0.1298 N.ar    1  LIG1       -0.1220
     24 N           0.7814    7.8793    0.1719 N.ar    1  LIG1       -0.1220
     25 C          -0.1320   10.0721    0.0009 C.ar    1  LIG1        0.1751
     26 C           0.9961   10.8244    0.1188 C.ar    1  LIG1       -0.0126
     27 C           0.5595   12.1862    0.0296 C.ar    1  LIG1       -0.0232
     28 C          -0.7885   12.1321   -0.1327 C.ar    1  LIG1        0.0927
     29 O          -1.2137   10.8580   -0.1509 O.2     1  LIG1       -0.4597
     30 H          -1.5464   12.8871   -0.2453 H       1  LIG1        0.1029
     31 H           1.9946   10.4451    0.2510 H       1  LIG1        0.0656
     32 H           1.1652   13.0740    0.0800 H       1  LIG1        0.0649
@<TRIPOS>BOND
     1     8     3    1
     2     7     2    1
     3     3     2   ar
     4     3     4   ar
     5     2     1   ar
     6    16    14    1
     7    18    15    1
     8    30    28    1
     9    29    28   ar
    10    29    25   ar
    11    28    27   ar
    12    23    20   ar
    13    23    21   ar
    14    20    19   ar
    15    15    14   ar
    16    15    12   ar
    17    14    11   ar
    18    25    21    1
    19    25    26   ar
    20    21    24   ar
    21    27    32    1
    22    27    26   ar
    23    19    12    1
    24    19    22   ar
    25    12    10   ar
    26     4    11    1
    27     4     5   ar
    28    11     9   ar
    29    26    31    1
    30    24    22   ar
    31    10     9   ar
    32    10    13    1
    33     9    17    1
    34     1     6    1
    35     1     5   ar
