@<TRIPOS>MOLECULE
mol_data/opt/m06hf/geoms/mol2/54812.out
 32 35 0 0 0
SMALL
GASTEIGER

@<TRIPOS>ATOM
      1 C          -1.8987   -1.9928    0.3311 C.ar    1  LIG1       -0.0237
      2 C          -0.6872   -1.9103   -0.2815 C.ar    1  LIG1       -0.0541
      3 C          -0.2476   -0.5566   -0.4384 C.ar    1  LIG1       -0.0469
      4 C          -1.1368    0.3520    0.0615 C.ar    1  LIG1        0.0193
      5 S          -2.5191   -0.4405    0.7329 S.2     1  LIG1       -0.0967
      6 H          -2.4609   -2.8792    0.5751 H       1  LIG1        0.0693
      7 H          -0.1278   -2.7701   -0.6181 H       1  LIG1        0.0623
      8 H           0.6717   -0.2702   -0.9283 H       1  LIG1        0.0629
      9 C           0.2475    2.4124    0.2485 C.ar    1  LIG1       -0.0529
     10 C           0.3913    3.7922    0.2326 C.ar    1  LIG1       -0.0503
     11 C          -1.0103    1.8257    0.0703 C.ar    1  LIG1       -0.0113
     12 C          -0.7304    4.6044    0.0548 C.ar    1  LIG1        0.0227
     13 H           1.3621    4.2489    0.3691 H       1  LIG1        0.0625
     14 C          -2.1274    2.6491   -0.1053 C.ar    1  LIG1       -0.0529
     15 C          -1.9921    4.0306   -0.1090 C.ar    1  LIG1       -0.0503
     16 H          -3.1021    2.2048   -0.2610 H       1  LIG1        0.0624
     17 H           1.1090    1.7813    0.4211 H       1  LIG1        0.0624
     18 H          -2.8522    4.6711   -0.2485 H       1  LIG1        0.0625
     19 C          -0.5810    6.0793    0.0415 C.ar    1  LIG1        0.2034
     20 N           0.6465    6.5941    0.1866 N.ar    1  LIG1       -0.1251
     21 C          -0.3201    8.6221    0.0135 C.ar    1  LIG1        0.2381
     22 N          -1.6737    6.8295   -0.1162 N.ar    1  LIG1       -0.1251
     23 N           0.7810    7.8793    0.1733 N.ar    1  LIG1       -0.1220
     24 N          -1.5471    8.1209   -0.1316 N.ar    1  LIG1       -0.1220
     25 C          -0.1322   10.0721    0.0005 C.ar    1  LIG1        0.1751
     26 C           0.9958   10.8243    0.1198 C.ar    1  LIG1       -0.0126
     27 C           0.5594   12.1861    0.0300 C.ar    1  LIG1       -0.0232
     28 C          -0.7884   12.1320   -0.1343 C.ar    1  LIG1        0.0927
     29 O          -1.2135   10.8580   -0.1530 O.2     1  LIG1       -0.4597
     30 H          -1.5460   12.8871   -0.2482 H       1  LIG1        0.1029
     31 H           1.9942   10.4450    0.2533 H       1  LIG1        0.0656
     32 H           1.1651   13.0739    0.0814 H       1  LIG1        0.0649
@<TRIPOS>BOND
     1     8     3    1
     2     7     2    1
     3     3     2   ar
     4     3     4   ar
     5     2     1   ar
     6    16    14    1
     7    18    15    1
     8    30    28    1
     9    29    28   ar
    10    29    25   ar
    11    28    27   ar
    12    24    22   ar
    13    24    21   ar
    14    22    19   ar
    15    15    14   ar
    16    15    12   ar
    17    14    11   ar
    18    25    21    1
    19    25    26   ar
    20    21    23   ar
    21    27    32    1
    22    27    26   ar
    23    19    12    1
    24    19    20   ar
    25    12    10   ar
    26     4    11    1
    27     4     5   ar
    28    11     9   ar
    29    26    31    1
    30    23    20   ar
    31    10     9   ar
    32    10    13    1
    33     9    17    1
    34     1     6    1
    35     1     5   ar
