@<TRIPOS>MOLECULE
mol_data/opt/m06hf/geoms/mol2/55-.out
 16 17 0 0 0
SMALL
GASTEIGER

@<TRIPOS>ATOM
      1 C          -2.0407   -1.8430   -0.0005 C.ar    1  LIG1       -0.0237
      2 C          -0.6828   -1.8026   -0.0008 C.ar    1  LIG1       -0.0541
      3 C          -0.1761   -0.4625    0.0001 C.ar    1  LIG1       -0.0464
      4 C          -1.1663    0.4784    0.0011 C.ar    1  LIG1        0.0259
      5 S          -2.7284   -0.2645    0.0014 S.2     1  LIG1       -0.0961
      6 H          -2.6822   -2.7087   -0.0011 H       1  LIG1        0.0693
      7 H          -0.0579   -2.6828   -0.0018 H       1  LIG1        0.0623
      8 H           0.8765   -0.2176   -0.0002 H       1  LIG1        0.0629
      9 C          -1.0336    1.9395    0.0020 C.ar    1  LIG1        0.0259
     10 C          -2.0238    2.8804    0.0025 C.ar    1  LIG1       -0.0464
     11 C          -1.5171    4.2205    0.0032 C.ar    1  LIG1       -0.0541
     12 C          -0.1592    4.2609    0.0031 C.ar    1  LIG1       -0.0237
     13 S           0.5285    2.6824    0.0028 S.2     1  LIG1       -0.0961
     14 H           0.4823    5.1266    0.0035 H       1  LIG1        0.0693
     15 H          -3.0764    2.6355    0.0022 H       1  LIG1        0.0629
     16 H          -2.1420    5.1007    0.0036 H       1  LIG1        0.0623
@<TRIPOS>BOND
     1     7     2    1
     2     6     1    1
     3     2     1   ar
     4     2     3   ar
     5     1     5   ar
     6     8     3    1
     7     3     4   ar
     8     4     5   ar
     9     4     9    1
    10     9    10   ar
    11     9    13   ar
    12    15    10    1
    13    10    11   ar
    14    13    12   ar
    15    12    11   ar
    16    12    14    1
    17    11    16    1
