@<TRIPOS>MOLECULE
mol_data/opt/m06hf/geoms/mol2/55-13.out
 24 26 0 0 0
SMALL
GASTEIGER

@<TRIPOS>ATOM
      1 C          -1.9937   -1.9325    0.3723 C.ar    1  LIG1       -0.0237
      2 C          -0.8559   -1.8753   -0.3711 C.ar    1  LIG1       -0.0541
      3 C          -0.3942   -0.5327   -0.5616 C.ar    1  LIG1       -0.0464
      4 C          -1.1951    0.3910    0.0471 C.ar    1  LIG1        0.0259
      5 S          -2.5126   -0.3696    0.8690 S.2     1  LIG1       -0.0961
      6 H          -2.5558   -2.8059    0.6609 H       1  LIG1        0.0693
      7 H          -0.3639   -2.7454   -0.7789 H       1  LIG1        0.0623
      8 H           0.4765   -0.2650   -1.1428 H       1  LIG1        0.0629
      9 C          -1.0477    1.8496    0.0677 C.ar    1  LIG1        0.0265
     10 C          -2.0306    2.7972    0.0982 C.ar    1  LIG1       -0.0458
     11 C          -1.5140    4.1298    0.1339 C.ar    1  LIG1       -0.0449
     12 C          -0.1484    4.1690    0.1152 C.ar    1  LIG1        0.0361
     13 S           0.5235    2.5786    0.0723 S.2     1  LIG1       -0.0863
     14 H          -3.0836    2.5542    0.0885 H       1  LIG1        0.0629
     15 H          -2.1301    5.0154    0.1982 H       1  LIG1        0.0630
     16 C           0.7200    5.3478    0.1096 C.ar    1  LIG1        0.0531
     17 C           1.9376    5.5878    0.7098 C.ar    1  LIG1       -0.0359
     18 C           2.3186    6.9155    0.3739 C.ar    1  LIG1       -0.0438
     19 C           1.3229    7.4369   -0.4181 C.ar    1  LIG1        0.0022
     20 N           0.3628    6.4812   -0.5684 N.ar    1  LIG1       -0.3603
     21 H          -0.4545    6.5505   -1.1534 H       1  LIG1        0.1653
     22 H           1.2268    8.4019   -0.8838 H       1  LIG1        0.0807
     23 H           2.4695    4.8937    1.3393 H       1  LIG1        0.0639
     24 H           3.2123    7.4299    0.6829 H       1  LIG1        0.0633
@<TRIPOS>BOND
     1    21    20    1
     2     8     3    1
     3    22    19    1
     4     7     2    1
     5    20    19   ar
     6    20    16   ar
     7     3     2   ar
     8     3     4   ar
     9    19    18   ar
    10     2     1   ar
    11     4     9    1
    12     4     5   ar
    13     9    13   ar
    14     9    10   ar
    15    13    12   ar
    16    14    10    1
    17    10    11   ar
    18    16    12    1
    19    16    17   ar
    20    12    11   ar
    21    11    15    1
    22     1     6    1
    23     1     5   ar
    24    18    24    1
    25    18    17   ar
    26    17    23    1
