@<TRIPOS>MOLECULE
mol_data/opt/m06hf/geoms/mol2/55-4-.out
 26 28 0 0 0
SMALL
GASTEIGER

@<TRIPOS>ATOM
      1 C          -2.1648   -1.8939   -0.4380 C.ar    1  LIG1       -0.0237
      2 C          -0.8316   -1.9218   -0.1712 C.ar    1  LIG1       -0.0541
      3 C          -0.2903   -0.6135    0.0457 C.ar    1  LIG1       -0.0464
      4 C          -1.2303    0.3709   -0.0656 C.ar    1  LIG1        0.0259
      5 S          -2.7820   -0.2891   -0.4500 S.2     1  LIG1       -0.0961
      6 H          -2.8209   -2.7264   -0.6329 H       1  LIG1        0.0693
      7 H          -0.2502   -2.8301   -0.1196 H       1  LIG1        0.0623
      8 H           0.7422   -0.4165    0.2967 H       1  LIG1        0.0629
      9 C          -1.0533    1.8182    0.0904 C.ar    1  LIG1        0.0265
     10 C          -1.9497    2.7357    0.5587 C.ar    1  LIG1       -0.0458
     11 C          -1.4231    4.0647    0.5738 C.ar    1  LIG1       -0.0463
     12 C          -0.1372    4.1344    0.1197 C.ar    1  LIG1        0.0199
     13 S           0.4356    2.5746   -0.3597 S.2     1  LIG1       -0.0877
     14 H          -2.9359    2.4690    0.9105 H       1  LIG1        0.0629
     15 H          -1.9617    4.9246    0.9450 H       1  LIG1        0.0629
     16 C           0.1636    6.5518   -0.3976 C.ar    1  LIG1       -0.0535
     17 C           0.9556    7.6909   -0.4884 C.ar    1  LIG1       -0.0612
     18 C           0.7218    5.3347    0.0050 C.ar    1  LIG1       -0.0113
     19 C           2.3154    7.6241   -0.1932 C.ar    1  LIG1       -0.0617
     20 H           0.5137    8.6276   -0.8018 H       1  LIG1        0.0618
     21 C           2.0869    5.2732    0.2998 C.ar    1  LIG1       -0.0535
     22 C           2.8789    6.4119    0.1965 C.ar    1  LIG1       -0.0612
     23 H           2.5215    4.3373    0.6284 H       1  LIG1        0.0624
     24 H           2.9322    8.5095   -0.2713 H       1  LIG1        0.0618
     25 H          -0.8862    6.5926   -0.6580 H       1  LIG1        0.0624
     26 H           3.9339    6.3536    0.4295 H       1  LIG1        0.0618
@<TRIPOS>BOND
     1    20    17    1
     2    25    16    1
     3     6     1    1
     4    17    16   ar
     5    17    19   ar
     6     5     1   ar
     7     5     4   ar
     8     1     2   ar
     9    16    18   ar
    10    13     9   ar
    11    13    12   ar
    12    24    19    1
    13    19    22   ar
    14     2     7    1
    15     2     3   ar
    16     4     3   ar
    17     4     9    1
    18    18    12    1
    19    18    21   ar
    20     3     8    1
    21     9    10   ar
    22    12    11   ar
    23    22    21   ar
    24    22    26    1
    25    21    23    1
    26    10    11   ar
    27    10    14    1
    28    11    15    1
