@<TRIPOS>MOLECULE
mol_data/opt/m06hf/geoms/mol2/55-4.out
 26 28 0 0 0
SMALL
GASTEIGER

@<TRIPOS>ATOM
      1 C          -2.1364   -1.9013   -0.4365 C.ar    1  LIG1       -0.0237
      2 C          -0.8032   -1.9184   -0.1689 C.ar    1  LIG1       -0.0541
      3 C          -0.2725   -0.6058    0.0480 C.ar    1  LIG1       -0.0464
      4 C          -1.2203    0.3710   -0.0643 C.ar    1  LIG1        0.0259
      5 S          -2.7664   -0.3016   -0.4495 S.2     1  LIG1       -0.0961
      6 H          -2.7858   -2.7391   -0.6316 H       1  LIG1        0.0693
      7 H          -0.2146   -2.8220   -0.1166 H       1  LIG1        0.0623
      8 H           0.7582   -0.4005    0.2995 H       1  LIG1        0.0629
      9 C          -1.0550    1.8197    0.0914 C.ar    1  LIG1        0.0265
     10 C          -1.9590    2.7302    0.5588 C.ar    1  LIG1       -0.0458
     11 C          -1.4431    4.0634    0.5737 C.ar    1  LIG1       -0.0463
     12 C          -0.1575    4.1432    0.1205 C.ar    1  LIG1        0.0199
     13 S           0.4281    2.5879   -0.3580 S.2     1  LIG1       -0.0877
     14 H          -2.9433    2.4557    0.9100 H       1  LIG1        0.0629
     15 H          -1.9889    4.9190    0.9443 H       1  LIG1        0.0629
     16 C           2.0572    5.2999    0.3018 C.ar    1  LIG1       -0.0535
     17 C           2.8402    6.4448    0.1986 C.ar    1  LIG1       -0.0612
     18 C           0.6919    5.3503    0.0060 C.ar    1  LIG1       -0.0113
     19 C           2.2672    7.6523   -0.1919 C.ar    1  LIG1       -0.0617
     20 H           3.8955    6.3950    0.4323 H       1  LIG1        0.0618
     21 C           0.1243    6.5628   -0.3973 C.ar    1  LIG1       -0.0535
     22 C           0.9072    7.7082   -0.4881 C.ar    1  LIG1       -0.0612
     23 H          -0.9256    6.5950   -0.6585 H       1  LIG1        0.0624
     24 H           2.8770    8.5426   -0.2698 H       1  LIG1        0.0618
     25 H           2.4991    4.3675    0.6310 H       1  LIG1        0.0624
     26 H           0.4579    8.6412   -0.8021 H       1  LIG1        0.0618
@<TRIPOS>BOND
     1    26    22    1
     2    23    21    1
     3     6     1    1
     4    22    21   ar
     5    22    19   ar
     6     5     1   ar
     7     5     4   ar
     8     1     2   ar
     9    21    18   ar
    10    13     9   ar
    11    13    12   ar
    12    24    19    1
    13    19    17   ar
    14     2     7    1
    15     2     3   ar
    16     4     3   ar
    17     4     9    1
    18    18    12    1
    19    18    16   ar
    20     3     8    1
    21     9    10   ar
    22    12    11   ar
    23    17    16   ar
    24    17    20    1
    25    16    25    1
    26    10    11   ar
    27    10    14    1
    28    11    15    1
