@<TRIPOS>MOLECULE
mol_data/opt/m06hf/geoms/mol2/55-5-.out
 23 25 0 0 0
SMALL
GASTEIGER

@<TRIPOS>ATOM
      1 C          -2.0927   -1.8801   -0.4196 C.ar    1  LIG1       -0.0237
      2 C          -0.7761   -1.8841   -0.0800 C.ar    1  LIG1       -0.0541
      3 C          -0.2629   -0.5639    0.1338 C.ar    1  LIG1       -0.0464
      4 C          -1.2075    0.4047   -0.0532 C.ar    1  LIG1        0.0259
      5 S          -2.7288   -0.2847   -0.5038 S.2     1  LIG1       -0.0961
      6 H          -2.7270   -2.7256   -0.6300 H       1  LIG1        0.0693
      7 H          -0.1878   -2.7830    0.0257 H       1  LIG1        0.0623
      8 H           0.7516   -0.3467    0.4362 H       1  LIG1        0.0629
      9 C          -1.0564    1.8570    0.0786 C.ar    1  LIG1        0.0265
     10 C          -1.9882    2.7729    0.4765 C.ar    1  LIG1       -0.0458
     11 C          -1.4753    4.1065    0.5053 C.ar    1  LIG1       -0.0458
     12 C          -0.1664    4.1782    0.1220 C.ar    1  LIG1        0.0265
     13 S           0.4504    2.6187   -0.2997 S.2     1  LIG1       -0.0872
     14 H          -2.9913    2.5019    0.7728 H       1  LIG1        0.0629
     15 H          -2.0366    4.9703    0.8298 H       1  LIG1        0.0629
     16 C           0.6600    5.3871    0.0266 C.ar    1  LIG1        0.0259
     17 C           0.2720    6.6116   -0.4359 C.ar    1  LIG1       -0.0464
     18 C           1.3203    7.5849   -0.3686 C.ar    1  LIG1       -0.0541
     19 C           2.4748    7.0694    0.1331 C.ar    1  LIG1       -0.0237
     20 S           2.3082    5.4096    0.5501 S.2     1  LIG1       -0.0961
     21 H           3.4162    7.5721    0.2834 H       1  LIG1        0.0693
     22 H          -0.7146    6.7981   -0.8335 H       1  LIG1        0.0629
     23 H           1.2156    8.6095   -0.6923 H       1  LIG1        0.0623
@<TRIPOS>BOND
     1    22    17    1
     2    23    18    1
     3     6     1    1
     4     5     1   ar
     5     5     4   ar
     6    17    18   ar
     7    17    16   ar
     8     1     2   ar
     9    18    19   ar
    10    13     9   ar
    11    13    12   ar
    12     2     7    1
    13     2     3   ar
    14     4     9    1
    15     4     3   ar
    16    16    12    1
    17    16    20   ar
    18     9    10   ar
    19    12    11   ar
    20    19    21    1
    21    19    20   ar
    22     3     8    1
    23    10    11   ar
    24    10    14    1
    25    11    15    1
