@<TRIPOS>MOLECULE
mol_data/opt/m06hf/geoms/mol2/55-5.out
 23 25 0 0 0
SMALL
GASTEIGER

@<TRIPOS>ATOM
      1 C          -1.9709   -1.9377    0.4232 C.ar    1  LIG1       -0.0237
      2 C          -0.8464   -1.8997   -0.3413 C.ar    1  LIG1       -0.0541
      3 C          -0.3906   -0.5623   -0.5766 C.ar    1  LIG1       -0.0464
      4 C          -1.1831    0.3765    0.0201 C.ar    1  LIG1        0.0259
      5 S          -2.4844   -0.3620    0.8870 S.2     1  LIG1       -0.0961
      6 H          -2.5268   -2.8034    0.7451 H       1  LIG1        0.0693
      7 H          -0.3600   -2.7802   -0.7331 H       1  LIG1        0.0623
      8 H           0.4695   -0.3088   -1.1796 H       1  LIG1        0.0629
      9 C          -1.0304    1.8349    0.0038 C.ar    1  LIG1        0.0265
     10 C          -2.0077    2.7893    0.0036 C.ar    1  LIG1       -0.0458
     11 C          -1.4832    4.1188    0.0056 C.ar    1  LIG1       -0.0458
     12 C          -0.1175    4.1490    0.0017 C.ar    1  LIG1        0.0265
     13 S           0.5443    2.5508    0.0008 S.2     1  LIG1       -0.0872
     14 H          -3.0620    2.5530   -0.0101 H       1  LIG1        0.0629
     15 H          -2.0922    5.0112    0.0221 H       1  LIG1        0.0629
     16 C           0.7665    5.3189   -0.0157 C.ar    1  LIG1        0.0259
     17 C           1.9882    5.4629    0.5776 C.ar    1  LIG1       -0.0464
     18 C           2.5676    6.7517    0.3425 C.ar    1  LIG1       -0.0541
     19 C           1.7697    7.5483   -0.4184 C.ar    1  LIG1       -0.0237
     20 S           0.3174    6.7482   -0.8792 S.2     1  LIG1       -0.0961
     21 H           1.9535    8.5608   -0.7393 H       1  LIG1        0.0693
     22 H           2.4454    4.6897    1.1782 H       1  LIG1        0.0629
     23 H           3.5253    7.0623    0.7320 H       1  LIG1        0.0623
@<TRIPOS>BOND
     1     8     3    1
     2    20    19   ar
     3    20    16   ar
     4    21    19    1
     5     7     2    1
     6     3     2   ar
     7     3     4   ar
     8    19    18   ar
     9     2     1   ar
    10    16    12    1
    11    16    17   ar
    12    14    10    1
    13    13    12   ar
    14    13     9   ar
    15    12    11   ar
    16    10     9   ar
    17    10    11   ar
    18     9     4    1
    19    11    15    1
    20     4     5   ar
    21    18    17   ar
    22    18    23    1
    23     1     6    1
    24     1     5   ar
    25    17    22    1
