@<TRIPOS>MOLECULE
mol_data/opt/m06hf/geoms/mol2/55-88.out
 28 31 0 0 0
SMALL
GASTEIGER

@<TRIPOS>ATOM
      1 C          -2.0922   -1.9232   -0.0004 C.ar    1  LIG1       -0.0237
      2 C          -0.7325   -1.8885   -0.0007 C.ar    1  LIG1       -0.0541
      3 C          -0.2227   -0.5517    0.0001 C.ar    1  LIG1       -0.0464
      4 C          -1.2105    0.3922    0.0010 C.ar    1  LIG1        0.0259
      5 S          -2.7769   -0.3459    0.0011 S.2     1  LIG1       -0.0961
      6 H          -2.7361   -2.7875   -0.0008 H       1  LIG1        0.0693
      7 H          -0.1109   -2.7706   -0.0014 H       1  LIG1        0.0623
      8 H           0.8311   -0.3106   -0.0001 H       1  LIG1        0.0629
      9 C          -1.0667    1.8502    0.0018 C.ar    1  LIG1        0.0266
     10 C          -2.0601    2.7963    0.0022 C.ar    1  LIG1       -0.0457
     11 C          -1.5520    4.1244    0.0029 C.ar    1  LIG1       -0.0432
     12 C          -0.1845    4.1510    0.0031 C.ar    1  LIG1        0.0604
     13 S           0.5036    2.5695    0.0024 S.2     1  LIG1       -0.0845
     14 H          -3.1129    2.5542    0.0019 H       1  LIG1        0.0629
     15 H          -2.1527    5.0216    0.0033 H       1  LIG1        0.0630
     16 C           0.6684    5.3319    0.0038 C.ar    1  LIG1        0.2099
     17 N           1.9927    5.1456    0.0039 N.ar    1  LIG1       -0.1246
     18 C           2.1693    7.3842    0.0050 C.ar    1  LIG1        0.2435
     19 N           0.0841    6.5382    0.0044 N.ar    1  LIG1       -0.1246
     20 N           2.7579    6.1907    0.0045 N.ar    1  LIG1       -0.1218
     21 N           0.8509    7.5808    0.0050 N.ar    1  LIG1       -0.1218
     22 C           3.0511    8.5907    0.0057 C.ar    1  LIG1        0.2434
     23 N           4.3668    8.3876    0.0054 N.ar    1  LIG1       -0.1224
     24 C           4.5464   10.6301    0.0068 C.ar    1  LIG1        0.1605
     25 N           2.4611    9.7843    0.0066 N.ar    1  LIG1       -0.1224
     26 N           5.1348    9.4364    0.0060 N.ar    1  LIG1       -0.1338
     27 N           3.2316   10.8318    0.0072 N.ar    1  LIG1       -0.1338
     28 H           5.1856   11.5006    0.0074 H       1  LIG1        0.1085
@<TRIPOS>BOND
     1     7     2    1
     2     6     1    1
     3     2     1   ar
     4     2     3   ar
     5     1     5   ar
     6     8     3    1
     7     3     4   ar
     8     4     5   ar
     9     4     9    1
    10     9    10   ar
    11     9    13   ar
    12    14    10    1
    13    10    11   ar
    14    13    12   ar
    15    11    12   ar
    16    11    15    1
    17    12    16    1
    18    16    17   ar
    19    16    19   ar
    20    17    20   ar
    21    19    21   ar
    22    20    18   ar
    23    21    18   ar
    24    18    22    1
    25    23    22   ar
    26    23    26   ar
    27    22    25   ar
    28    26    24   ar
    29    25    27   ar
    30    24    27   ar
    31    24    28    1
