@<TRIPOS>MOLECULE
mol_data/opt/m06hf/geoms/mol2/55-8-4-.out
 32 35 0 0 0
SMALL
GASTEIGER

@<TRIPOS>ATOM
      1 C          -2.1128   -1.9571    0.0003 C.ar    1  LIG1       -0.0237
      2 C          -0.7536   -1.9201   -0.0002 C.ar    1  LIG1       -0.0541
      3 C          -0.2452   -0.5822    0.0003 C.ar    1  LIG1       -0.0464
      4 C          -1.2333    0.3608    0.0011 C.ar    1  LIG1        0.0259
      5 S          -2.7992   -0.3796    0.0013 S.2     1  LIG1       -0.0961
      6 H          -2.7556   -2.8221    0.0001 H       1  LIG1        0.0693
      7 H          -0.1306   -2.8013   -0.0009 H       1  LIG1        0.0623
      8 H           0.8082   -0.3395   -0.0000 H       1  LIG1        0.0629
      9 C          -1.0915    1.8195    0.0018 C.ar    1  LIG1        0.0266
     10 C          -2.0831    2.7648    0.0020 C.ar    1  LIG1       -0.0457
     11 C          -1.5745    4.0953    0.0027 C.ar    1  LIG1       -0.0432
     12 C          -0.2089    4.1231    0.0028 C.ar    1  LIG1        0.0604
     13 S           0.4796    2.5416    0.0023 S.2     1  LIG1       -0.0845
     14 H          -3.1362    2.5232    0.0018 H       1  LIG1        0.0629
     15 H          -2.1757    4.9920    0.0029 H       1  LIG1        0.0630
     16 C           0.6500    5.3054    0.0033 C.ar    1  LIG1        0.2099
     17 N           0.0723    6.5123    0.0038 N.ar    1  LIG1       -0.1247
     18 C           2.1693    7.3684    0.0042 C.ar    1  LIG1        0.2034
     19 N           1.9717    5.1167    0.0033 N.ar    1  LIG1       -0.1247
     20 N           0.8436    7.5511    0.0042 N.ar    1  LIG1       -0.1252
     21 N           2.7389    6.1597    0.0038 N.ar    1  LIG1       -0.1252
     22 C           2.4870    9.8413    0.0052 C.ar    1  LIG1       -0.0509
     23 C           3.3184   10.9556    0.0056 C.ar    1  LIG1       -0.0611
     24 C           3.0489    8.5632    0.0047 C.ar    1  LIG1        0.0226
     25 C           4.7027   10.7967    0.0056 C.ar    1  LIG1       -0.0617
     26 H           2.8856   11.9471    0.0060 H       1  LIG1        0.0618
     27 C           4.4352    8.3993    0.0047 C.ar    1  LIG1       -0.0509
     28 C           5.2588    9.5189    0.0051 C.ar    1  LIG1       -0.0611
     29 H           4.8491    7.4001    0.0043 H       1  LIG1        0.0625
     30 H           5.3471   11.6660    0.0059 H       1  LIG1        0.0618
     31 H           1.4107    9.9476    0.0052 H       1  LIG1        0.0625
     32 H           6.3333    9.3946    0.0051 H       1  LIG1        0.0618
@<TRIPOS>BOND
     1     7     2    1
     2     2     1   ar
     3     2     3   ar
     4     8     3    1
     5     6     1    1
     6     1     5   ar
     7     3     4   ar
     8     4     5   ar
     9     4     9    1
    10     9    10   ar
    11     9    13   ar
    12    14    10    1
    13    10    11   ar
    14    13    12   ar
    15    11    12   ar
    16    11    15    1
    17    12    16    1
    18    16    19   ar
    19    16    17   ar
    20    19    21   ar
    21    17    20   ar
    22    21    18   ar
    23    18    20   ar
    24    18    24    1
    25    29    27    1
    26    27    24   ar
    27    27    28   ar
    28    24    22   ar
    29    32    28    1
    30    28    25   ar
    31    22    31    1
    32    22    23   ar
    33    25    23   ar
    34    25    30    1
    35    23    26    1
