@<TRIPOS>MOLECULE
mol_data/opt/m06hf/geoms/mol2/55-8-.out
 22 24 0 0 0
SMALL
GASTEIGER

@<TRIPOS>ATOM
      1 C          -2.0833   -1.8880    0.0004 C.ar    1  LIG1       -0.0237
      2 C          -0.7234   -1.8605   -0.0009 C.ar    1  LIG1       -0.0541
      3 C          -0.2064   -0.5265   -0.0006 C.ar    1  LIG1       -0.0464
      4 C          -1.1897    0.4230    0.0008 C.ar    1  LIG1        0.0259
      5 S          -2.7577   -0.3078    0.0012 S.2     1  LIG1       -0.0961
      6 H          -2.7317   -2.7493    0.0007 H       1  LIG1        0.0693
      7 H          -0.1058   -2.7457   -0.0018 H       1  LIG1        0.0623
      8 H           0.8490   -0.2917   -0.0013 H       1  LIG1        0.0629
      9 C          -1.0400    1.8803    0.0017 C.ar    1  LIG1        0.0266
     10 C          -2.0312    2.8281    0.0020 C.ar    1  LIG1       -0.0457
     11 C          -1.5202    4.1562    0.0029 C.ar    1  LIG1       -0.0432
     12 C          -0.1543    4.1805    0.0031 C.ar    1  LIG1        0.0604
     13 S           0.5302    2.5995    0.0025 S.2     1  LIG1       -0.0845
     14 H          -3.0851    2.5894    0.0016 H       1  LIG1        0.0629
     15 H          -2.1195    5.0546    0.0032 H       1  LIG1        0.0630
     16 C           0.7000    5.3661    0.0038 C.ar    1  LIG1        0.2098
     17 N           0.1075    6.5659    0.0044 N.ar    1  LIG1       -0.1253
     18 C           2.1883    7.4265    0.0057 C.ar    1  LIG1        0.1605
     19 N           2.0237    5.1841    0.0041 N.ar    1  LIG1       -0.1253
     20 N           0.8692    7.6158    0.0052 N.ar    1  LIG1       -0.1339
     21 N           2.7835    6.2379    0.0049 N.ar    1  LIG1       -0.1339
     22 H           2.8192    8.3024    0.0060 H       1  LIG1        0.1085
@<TRIPOS>BOND
     1     7     2    1
     2     8     3    1
     3     2     3   ar
     4     2     1   ar
     5     3     4   ar
     6     1     6    1
     7     1     5   ar
     8     4     5   ar
     9     4     9    1
    10    14    10    1
    11     9    10   ar
    12     9    13   ar
    13    10    11   ar
    14    13    12   ar
    15    11    12   ar
    16    11    15    1
    17    12    16    1
    18    16    19   ar
    19    16    17   ar
    20    19    21   ar
    21    17    20   ar
    22    21    18   ar
    23    20    18   ar
    24    18    22    1
