@<TRIPOS>MOLECULE
mol_data/opt/m06hf/geoms/mol2/55.out
 16 17 0 0 0
SMALL
GASTEIGER

@<TRIPOS>ATOM
      1 C          -2.0446   -1.8365   -0.0002 C.ar    1  LIG1       -0.0237
      2 C          -0.6853   -1.8178   -0.0006 C.ar    1  LIG1       -0.0541
      3 C          -0.1568   -0.4874   -0.0000 C.ar    1  LIG1       -0.0464
      4 C          -1.1296    0.4719    0.0008 C.ar    1  LIG1        0.0259
      5 S          -2.7045   -0.2484    0.0014 S.2     1  LIG1       -0.0961
      6 H          -2.6993   -2.6924   -0.0005 H       1  LIG1        0.0693
      7 H          -0.0750   -2.7082   -0.0013 H       1  LIG1        0.0623
      8 H           0.8988   -0.2605   -0.0004 H       1  LIG1        0.0629
      9 C          -0.9413    1.9294    0.0013 C.ar    1  LIG1        0.0259
     10 C           0.2433    2.6099    0.0013 C.ar    1  LIG1       -0.0464
     11 C           0.0703    4.0310    0.0020 C.ar    1  LIG1       -0.0541
     12 C          -1.2396    4.3946    0.0024 C.ar    1  LIG1       -0.0237
     13 S          -2.2815    3.0262    0.0017 S.2     1  LIG1       -0.0961
     14 H          -1.6553    5.3887    0.0030 H       1  LIG1        0.0693
     15 H           1.2066    2.1222    0.0010 H       1  LIG1        0.0629
     16 H           0.8869    4.7371    0.0022 H       1  LIG1        0.0623
@<TRIPOS>BOND
     1     7     2    1
     2     2     1   ar
     3     2     3   ar
     4     6     1    1
     5     8     3    1
     6     1     5   ar
     7     3     4   ar
     8     4     9    1
     9     4     5   ar
    10    15    10    1
    11     9    10   ar
    12     9    13   ar
    13    10    11   ar
    14    13    12   ar
    15    11    16    1
    16    11    12   ar
    17    12    14    1
