@<TRIPOS>MOLECULE
mol_data/opt/m06hf/geoms/mol2/5512.out
 23 25 0 0 0
SMALL
GASTEIGER

@<TRIPOS>ATOM
      1 C          -2.0156   -1.9104   -0.0004 C.ar    1  LIG1       -0.0237
      2 C          -0.6561   -1.8842   -0.0010 C.ar    1  LIG1       -0.0541
      3 C          -0.1346   -0.5521   -0.0003 C.ar    1  LIG1       -0.0464
      4 C          -1.1134    0.4028    0.0009 C.ar    1  LIG1        0.0259
      5 S          -2.6842   -0.3255    0.0021 S.2     1  LIG1       -0.0961
      6 H          -2.6667   -2.7691   -0.0009 H       1  LIG1        0.0693
      7 H          -0.0417   -2.7716   -0.0021 H       1  LIG1        0.0623
      8 H           0.9200   -0.3202   -0.0009 H       1  LIG1        0.0629
      9 C          -0.9333    1.8591    0.0016 C.ar    1  LIG1        0.0266
     10 C           0.2504    2.5455    0.0016 C.ar    1  LIG1       -0.0457
     11 C           0.0727    3.9597    0.0024 C.ar    1  LIG1       -0.0434
     12 C          -1.2443    4.3231    0.0029 C.ar    1  LIG1        0.0550
     13 S          -2.2813    2.9435    0.0027 S.2     1  LIG1       -0.0847
     14 H           1.2174    2.0653    0.0012 H       1  LIG1        0.0629
     15 H           0.8858    4.6708    0.0025 H       1  LIG1        0.0630
     16 C          -1.8029    5.6693    0.0037 C.ar    1  LIG1        0.1413
     17 C          -1.2440    6.9104    0.0041 C.ar    1  LIG1       -0.0154
     18 C          -2.3418    7.8373    0.0049 C.ar    1  LIG1       -0.0233
     19 C          -3.4672    7.0828    0.0047 C.ar    1  LIG1        0.0926
     20 O          -3.1500    5.7715    0.0040 O.2     1  LIG1       -0.4624
     21 H          -4.5157    7.3206    0.0051 H       1  LIG1        0.1029
     22 H          -0.1924    7.1402    0.0039 H       1  LIG1        0.0655
     23 H          -2.2890    8.9122    0.0055 H       1  LIG1        0.0649
@<TRIPOS>BOND
     1     7     2    1
     2     2     1   ar
     3     2     3   ar
     4     8     3    1
     5     6     1    1
     6     1     5   ar
     7     3     4   ar
     8     4     9    1
     9     4     5   ar
    10    14    10    1
    11     9    10   ar
    12     9    13   ar
    13    10    11   ar
    14    11    15    1
    15    11    12   ar
    16    13    12   ar
    17    12    16    1
    18    16    20   ar
    19    16    17   ar
    20    22    17    1
    21    20    19   ar
    22    17    18   ar
    23    19    18   ar
    24    19    21    1
    25    18    23    1
