@<TRIPOS>MOLECULE
mol_data/opt/m06hf/geoms/mol2/5512-.out
 23 25 0 0 0
SMALL
GASTEIGER

@<TRIPOS>ATOM
      1 C          -2.0406   -1.8964   -0.0001 C.ar    1  LIG1       -0.0237
      2 C          -0.6808   -1.8869   -0.0011 C.ar    1  LIG1       -0.0541
      3 C          -0.1429   -0.5611   -0.0006 C.ar    1  LIG1       -0.0464
      4 C          -1.1112    0.4044    0.0008 C.ar    1  LIG1        0.0259
      5 S          -2.6895   -0.3038    0.0016 S.2     1  LIG1       -0.0961
      6 H          -2.7021   -2.7469   -0.0001 H       1  LIG1        0.0693
      7 H          -0.0778   -2.7823   -0.0022 H       1  LIG1        0.0623
      8 H           0.9140   -0.3408   -0.0014 H       1  LIG1        0.0629
      9 C          -0.9184    1.8592    0.0015 C.ar    1  LIG1        0.0266
     10 C           0.2650    2.5437    0.0017 C.ar    1  LIG1       -0.0457
     11 C           0.0902    3.9608    0.0025 C.ar    1  LIG1       -0.0434
     12 C          -1.2247    4.3256    0.0029 C.ar    1  LIG1        0.0550
     13 S          -2.2657    2.9485    0.0024 S.2     1  LIG1       -0.0847
     14 H           1.2303    2.0604    0.0014 H       1  LIG1        0.0629
     15 H           0.8950    4.6802    0.0027 H       1  LIG1        0.0630
     16 C          -1.7619    5.6805    0.0037 C.ar    1  LIG1        0.1413
     17 C          -3.0238    6.1905    0.0042 C.ar    1  LIG1       -0.0154
     18 C          -2.8718    7.6194    0.0050 C.ar    1  LIG1       -0.0233
     19 C          -1.5372    7.8504    0.0048 C.ar    1  LIG1        0.0926
     20 O          -0.8576    6.6843    0.0040 O.2     1  LIG1       -0.4624
     21 H          -0.9442    8.7477    0.0052 H       1  LIG1        0.1029
     22 H          -3.9421    5.6281    0.0041 H       1  LIG1        0.0655
     23 H          -3.6522    8.3603    0.0055 H       1  LIG1        0.0649
@<TRIPOS>BOND
     1     7     2    1
     2     8     3    1
     3     2     3   ar
     4     2     1   ar
     5     3     4   ar
     6     6     1    1
     7     1     5   ar
     8     4     9    1
     9     4     5   ar
    10    14    10    1
    11     9    10   ar
    12     9    13   ar
    13    10    11   ar
    14    13    12   ar
    15    11    15    1
    16    11    12   ar
    17    12    16    1
    18    16    20   ar
    19    16    17   ar
    20    20    19   ar
    21    22    17    1
    22    17    18   ar
    23    19    18   ar
    24    19    21    1
    25    18    23    1
