@<TRIPOS>MOLECULE
mol_data/opt/m06hf/geoms/mol2/551212-.out
 30 33 0 0 0
SMALL
GASTEIGER

@<TRIPOS>ATOM
      1 C          -1.9702   -1.9484    0.0004 C.ar    1  LIG1       -0.0237
      2 C          -0.6103   -1.9233   -0.0009 C.ar    1  LIG1       -0.0541
      3 C          -0.0882   -0.5913   -0.0007 C.ar    1  LIG1       -0.0464
      4 C          -1.0674    0.3633    0.0007 C.ar    1  LIG1        0.0259
      5 S          -2.6370   -0.3640    0.0019 S.2     1  LIG1       -0.0961
      6 H          -2.6220   -2.8064    0.0005 H       1  LIG1        0.0693
      7 H           0.0041   -2.8108   -0.0020 H       1  LIG1        0.0623
      8 H           0.9665   -0.3595   -0.0017 H       1  LIG1        0.0629
      9 C          -0.8899    1.8203    0.0014 C.ar    1  LIG1        0.0266
     10 C           0.2906    2.5124    0.0013 C.ar    1  LIG1       -0.0457
     11 C           0.1061    3.9261    0.0021 C.ar    1  LIG1       -0.0434
     12 C          -1.2134    4.2829    0.0027 C.ar    1  LIG1        0.0550
     13 S          -2.2432    2.8971    0.0024 S.2     1  LIG1       -0.0847
     14 H           1.2595    2.0360    0.0008 H       1  LIG1        0.0629
     15 H           0.9147    4.6424    0.0021 H       1  LIG1        0.0630
     16 C          -1.7810    5.6232    0.0037 C.ar    1  LIG1        0.1424
     17 C          -1.2360    6.8722    0.0044 C.ar    1  LIG1       -0.0146
     18 C          -2.3380    7.7886    0.0052 C.ar    1  LIG1       -0.0121
     19 C          -3.4600    7.0199    0.0049 C.ar    1  LIG1        0.1706
     20 O          -3.1313    5.7110    0.0040 O.2     1  LIG1       -0.4512
     21 H          -0.1865    7.1113    0.0043 H       1  LIG1        0.0656
     22 H          -2.3087    8.8640    0.0059 H       1  LIG1        0.0657
     23 C          -4.8757    7.3420    0.0055 C.ar    1  LIG1        0.1697
     24 C          -5.9945    6.5708    0.0052 C.ar    1  LIG1       -0.0128
     25 C          -7.0981    7.4926    0.0060 C.ar    1  LIG1       -0.0232
     26 C          -6.5501    8.7319    0.0068 C.ar    1  LIG1        0.0927
     27 O          -5.2022    8.6510    0.0064 O.2     1  LIG1       -0.4598
     28 H          -6.9664    9.7235    0.0076 H       1  LIG1        0.1029
     29 H          -6.0226    5.4953    0.0045 H       1  LIG1        0.0656
     30 H          -8.1479    7.2554    0.0061 H       1  LIG1        0.0649
@<TRIPOS>BOND
     1     7     2    1
     2     8     3    1
     3     2     3   ar
     4     2     1   ar
     5     3     4   ar
     6     1     6    1
     7     1     5   ar
     8     4     9    1
     9     4     5   ar
    10    14    10    1
    11    10     9   ar
    12    10    11   ar
    13     9    13   ar
    14    11    15    1
    15    11    12   ar
    16    13    12   ar
    17    12    16    1
    18    16    20   ar
    19    16    17   ar
    20    20    19   ar
    21    21    17    1
    22    17    18   ar
    23    29    24    1
    24    19    18   ar
    25    19    23    1
    26    18    22    1
    27    24    23   ar
    28    24    25   ar
    29    23    27   ar
    30    25    30    1
    31    25    26   ar
    32    27    26   ar
    33    26    28    1
