@<TRIPOS>MOLECULE
mol_data/opt/m06hf/geoms/mol2/5513-4-.out
 34 37 0 0 0
SMALL
GASTEIGER

@<TRIPOS>ATOM
      1 C          -1.9693   -2.0102   -0.3270 C.ar    1  LIG1       -0.0237
      2 C          -0.7090   -1.8655   -0.8185 C.ar    1  LIG1       -0.0541
      3 C          -0.2294   -0.5212   -0.7031 C.ar    1  LIG1       -0.0464
      4 C          -1.1373    0.3134   -0.1164 C.ar    1  LIG1        0.0259
      5 S          -2.5866   -0.5331    0.3010 S.2     1  LIG1       -0.0961
      6 H          -2.5709   -2.9039   -0.2963 H       1  LIG1        0.0693
      7 H          -0.1434   -2.6732   -1.2578 H       1  LIG1        0.0623
      8 H           0.7302   -0.1782   -1.0606 H       1  LIG1        0.0629
      9 C          -0.9632    1.7417    0.1725 C.ar    1  LIG1        0.0265
     10 C           0.1598    2.3523    0.6529 C.ar    1  LIG1       -0.0458
     11 C          -0.0025    3.7637    0.8105 C.ar    1  LIG1       -0.0449
     12 C          -1.2479    4.1956    0.4469 C.ar    1  LIG1        0.0361
     13 S          -2.2252    2.8903   -0.1190 S.2     1  LIG1       -0.0863
     14 H           1.0512    1.8047    0.9212 H       1  LIG1        0.0629
     15 H           0.7516    4.4190    1.2228 H       1  LIG1        0.0630
     16 C          -1.7728    5.5611    0.4722 C.ar    1  LIG1        0.0536
     17 C          -3.0315    6.0487    0.7581 C.ar    1  LIG1       -0.0353
     18 C          -2.9771    7.4599    0.6177 C.ar    1  LIG1       -0.0358
     19 C          -1.6884    7.7922    0.2512 C.ar    1  LIG1        0.0469
     20 N          -0.9725    6.6297    0.1766 N.ar    1  LIG1       -0.3537
     21 H          -0.0444    6.5520   -0.2104 H       1  LIG1        0.1659
     22 H          -3.8742    5.4537    1.0692 H       1  LIG1        0.0639
     23 H          -3.7713    8.1628    0.8066 H       1  LIG1        0.0639
     24 C          -1.8191   10.1078   -0.6479 C.ar    1  LIG1       -0.0526
     25 C          -1.2486   11.3490   -0.9061 C.ar    1  LIG1       -0.0611
     26 C          -1.0715    9.1031   -0.0268 C.ar    1  LIG1       -0.0017
     27 C           0.0789   11.5962   -0.5623 C.ar    1  LIG1       -0.0617
     28 H          -1.8362   12.1195   -1.3878 H       1  LIG1        0.0618
     29 C           0.2566    9.3604    0.3266 C.ar    1  LIG1       -0.0526
     30 C           0.8302   10.5978    0.0520 C.ar    1  LIG1       -0.0611
     31 H           0.8303    8.6012    0.8445 H       1  LIG1        0.0624
     32 H           0.5243   12.5600   -0.7709 H       1  LIG1        0.0618
     33 H          -2.8393    9.8996   -0.9426 H       1  LIG1        0.0624
     34 H           1.8583   10.7868    0.3316 H       1  LIG1        0.0618
@<TRIPOS>BOND
     1    28    25    1
     2     7     2    1
     3     8     3    1
     4    33    24    1
     5    25    24   ar
     6    25    27   ar
     7     2     3   ar
     8     2     1   ar
     9    32    27    1
    10     3     4   ar
    11    24    26   ar
    12    27    30   ar
    13     1     6    1
    14     1     5   ar
    15    21    20    1
    16    13     9   ar
    17    13    12   ar
    18     4     9    1
    19     4     5   ar
    20    26    19    1
    21    26    29   ar
    22    30    29   ar
    23    30    34    1
    24     9    10   ar
    25    20    19   ar
    26    20    16   ar
    27    19    18   ar
    28    29    31    1
    29    12    16    1
    30    12    11   ar
    31    16    17   ar
    32    18    17   ar
    33    18    23    1
    34    10    11   ar
    35    10    14    1
    36    17    22    1
    37    11    15    1
