@<TRIPOS>MOLECULE
mol_data/opt/m06hf/geoms/mol2/5513-.out
 24 26 0 0 0
SMALL
GASTEIGER

@<TRIPOS>ATOM
      1 C          -2.0396   -1.9143    0.0008 C.ar    1  LIG1       -0.0237
      2 C          -0.6799   -1.9073   -0.0007 C.ar    1  LIG1       -0.0541
      3 C          -0.1396   -0.5825   -0.0007 C.ar    1  LIG1       -0.0464
      4 C          -1.1056    0.3854    0.0007 C.ar    1  LIG1        0.0259
      5 S          -2.6856   -0.3202    0.0021 S.2     1  LIG1       -0.0961
      6 H          -2.7027   -2.7637    0.0012 H       1  LIG1        0.0693
      7 H          -0.0785   -2.8037   -0.0017 H       1  LIG1        0.0623
      8 H           0.9179   -0.3644   -0.0019 H       1  LIG1        0.0629
      9 C          -0.9091    1.8396    0.0012 C.ar    1  LIG1        0.0265
     10 C           0.2758    2.5188    0.0010 C.ar    1  LIG1       -0.0458
     11 C           0.1059    3.9368    0.0017 C.ar    1  LIG1       -0.0449
     12 C          -1.2070    4.3182    0.0023 C.ar    1  LIG1        0.0361
     13 S          -2.2480    2.9385    0.0021 S.2     1  LIG1       -0.0863
     14 H           1.2404    2.0337    0.0005 H       1  LIG1        0.0629
     15 H           0.9376    4.6270    0.0015 H       1  LIG1        0.0630
     16 C          -1.7767    5.6645    0.0032 C.ar    1  LIG1        0.0531
     17 C          -3.0897    6.0902    0.0029 C.ar    1  LIG1       -0.0359
     18 C          -3.0769    7.5105    0.0043 C.ar    1  LIG1       -0.0438
     19 C          -1.7601    7.9035    0.0053 C.ar    1  LIG1        0.0022
     20 N          -0.9863    6.7814    0.0047 N.ar    1  LIG1       -0.3603
     21 H           0.0202    6.7734    0.0054 H       1  LIG1        0.1653
     22 H          -1.3177    8.8841    0.0064 H       1  LIG1        0.0807
     23 H          -3.9577    5.4512    0.0018 H       1  LIG1        0.0639
     24 H          -3.9316    8.1648    0.0045 H       1  LIG1        0.0633
@<TRIPOS>BOND
     1     8     3    1
     2     7     2    1
     3     3     2   ar
     4     3     4   ar
     5     2     1   ar
     6    14    10    1
     7     4     9    1
     8     4     5   ar
     9     1     6    1
    10     1     5   ar
    11    10     9   ar
    12    10    11   ar
    13     9    13   ar
    14    15    11    1
    15    11    12   ar
    16    23    17    1
    17    13    12   ar
    18    12    16    1
    19    17    16   ar
    20    17    18   ar
    21    16    20   ar
    22    18    24    1
    23    18    19   ar
    24    20    19   ar
    25    20    21    1
    26    19    22    1
