@<TRIPOS>MOLECULE
mol_data/opt/m06hf/geoms/mol2/555-.out
 23 25 0 0 0
SMALL
GASTEIGER

@<TRIPOS>ATOM
      1 C          -2.0145   -1.9273    0.0005 C.ar    1  LIG1       -0.0237
      2 C          -0.6547   -1.9077   -0.0010 C.ar    1  LIG1       -0.0541
      3 C          -0.1268   -0.5778   -0.0009 C.ar    1  LIG1       -0.0464
      4 C          -1.1023    0.3802    0.0007 C.ar    1  LIG1        0.0259
      5 S          -2.6752   -0.3398    0.0017 S.2     1  LIG1       -0.0961
      6 H          -2.6695   -2.7828    0.0009 H       1  LIG1        0.0693
      7 H          -0.0452   -2.7986   -0.0021 H       1  LIG1        0.0623
      8 H           0.9285   -0.3496   -0.0020 H       1  LIG1        0.0629
      9 C          -0.9214    1.8367    0.0014 C.ar    1  LIG1        0.0265
     10 C           0.2557    2.5312    0.0013 C.ar    1  LIG1       -0.0458
     11 C           0.0663    3.9461    0.0021 C.ar    1  LIG1       -0.0458
     12 C          -1.2505    4.3089    0.0029 C.ar    1  LIG1        0.0265
     13 S          -2.2754    2.9145    0.0023 S.2     1  LIG1       -0.0872
     14 H           1.2260    2.0582    0.0008 H       1  LIG1        0.0629
     15 H           0.8787    4.6589    0.0022 H       1  LIG1        0.0629
     16 C          -1.8268    5.6555    0.0039 C.ar    1  LIG1        0.0259
     17 C          -3.1462    6.0093    0.0039 C.ar    1  LIG1       -0.0464
     18 C          -3.3418    7.4279    0.0054 C.ar    1  LIG1       -0.0541
     19 C          -2.1673    8.1121    0.0064 C.ar    1  LIG1       -0.0237
     20 S          -0.8092    7.0563    0.0052 S.2     1  LIG1       -0.0961
     21 H          -2.0182    9.1795    0.0076 H       1  LIG1        0.0693
     22 H          -3.9538    5.2909    0.0031 H       1  LIG1        0.0629
     23 H          -4.3113    7.9020    0.0057 H       1  LIG1        0.0623
@<TRIPOS>BOND
     1     7     2    1
     2     8     3    1
     3     2     3   ar
     4     2     1   ar
     5     3     4   ar
     6     1     6    1
     7     1     5   ar
     8     4     9    1
     9     4     5   ar
    10    14    10    1
    11    10     9   ar
    12    10    11   ar
    13     9    13   ar
    14    11    15    1
    15    11    12   ar
    16    13    12   ar
    17    12    16    1
    18    22    17    1
    19    16    17   ar
    20    16    20   ar
    21    17    18   ar
    22    20    19   ar
    23    18    23    1
    24    18    19   ar
    25    19    21    1
