@<TRIPOS>MOLECULE
mol_data/opt/m06hf/geoms/mol2/555-5-.out
 30 33 0 0 0
SMALL
GASTEIGER

@<TRIPOS>ATOM
      1 C          -1.5510   -1.9588    1.0915 C.ar    1  LIG1       -0.0237
      2 C          -0.8344   -1.9875   -0.0648 C.ar    1  LIG1       -0.0541
      3 C          -0.5438   -0.6751   -0.5586 C.ar    1  LIG1       -0.0464
      4 C          -1.0417    0.3111    0.2437 C.ar    1  LIG1        0.0259
      5 S          -1.8704   -0.3508    1.6098 S.2     1  LIG1       -0.0961
      6 H          -1.9109   -2.7939    1.6698 H       1  LIG1        0.0693
      7 H          -0.5316   -2.8993   -0.5566 H       1  LIG1        0.0623
      8 H          -0.0141   -0.4667   -1.4764 H       1  LIG1        0.0629
      9 C          -0.8991    1.7592    0.0513 C.ar    1  LIG1        0.0265
     10 C           0.2272    2.4283   -0.3338 C.ar    1  LIG1       -0.0458
     11 C           0.0190    3.8366   -0.4616 C.ar    1  LIG1       -0.0458
     12 C          -1.2600    4.2108   -0.1593 C.ar    1  LIG1        0.0265
     13 S          -2.2281    2.8459    0.2802 S.2     1  LIG1       -0.0872
     14 H           1.1713    1.9319   -0.5024 H       1  LIG1        0.0629
     15 H           0.7794    4.5381   -0.7729 H       1  LIG1        0.0629
     16 C          -1.8329    5.5601   -0.1602 C.ar    1  LIG1        0.0265
     17 C          -3.1051    5.9395   -0.4831 C.ar    1  LIG1       -0.0458
     18 C          -3.3108    7.3481   -0.3543 C.ar    1  LIG1       -0.0458
     19 C          -2.1879    8.0121    0.0504 C.ar    1  LIG1        0.0265
     20 S          -0.8688    6.9195    0.3014 S.2     1  LIG1       -0.0872
     21 H          -3.8620    5.2415   -0.8107 H       1  LIG1        0.0629
     22 H          -4.2507    7.8476   -0.5366 H       1  LIG1        0.0629
     23 C          -2.0384    9.4584    0.2476 C.ar    1  LIG1        0.0259
     24 C          -2.5637   10.4518   -0.5284 C.ar    1  LIG1       -0.0464
     25 C          -2.2428   11.7600   -0.0421 C.ar    1  LIG1       -0.0541
     26 C          -1.4759   11.7216    1.0811 C.ar    1  LIG1       -0.0237
     27 S          -1.1472   10.1096    1.5789 S.2     1  LIG1       -0.0961
     28 H          -1.0856   12.5521    1.6467 H       1  LIG1        0.0693
     29 H          -3.1323   10.2521   -1.4249 H       1  LIG1        0.0629
     30 H          -2.5601   12.6756   -0.5176 H       1  LIG1        0.0623
@<TRIPOS>BOND
     1     8     3    1
     2    29    24    1
     3    21    17    1
     4    15    11    1
     5     3     2   ar
     6     3     4   ar
     7     7     2    1
     8    22    18    1
     9    24    25   ar
    10    24    23   ar
    11    30    25    1
    12    14    10    1
    13    17    18   ar
    14    17    16   ar
    15    11    10   ar
    16    11    12   ar
    17    18    19   ar
    18    10     9   ar
    19    16    12    1
    20    16    20   ar
    21    12    13   ar
    22     2     1   ar
    23    25    26   ar
    24    19    23    1
    25    19    20   ar
    26     9     4    1
    27     9    13   ar
    28     4     5   ar
    29    23    27   ar
    30    26    27   ar
    31    26    28    1
    32     1     5   ar
    33     1     6    1
