@<TRIPOS>MOLECULE
mol_data/opt/m06hf/geoms/mol2/558-5-.out
 29 32 0 0 0
SMALL
GASTEIGER

@<TRIPOS>ATOM
      1 C          -1.9846   -1.9564   -0.0002 C.ar    1  LIG1       -0.0237
      2 C          -0.6249   -1.9182   -0.0014 C.ar    1  LIG1       -0.0541
      3 C          -0.1159   -0.5816   -0.0009 C.ar    1  LIG1       -0.0464
      4 C          -1.1037    0.3635    0.0007 C.ar    1  LIG1        0.0259
      5 S          -2.6686   -0.3786    0.0017 S.2     1  LIG1       -0.0961
      6 H          -2.6280   -2.8210   -0.0003 H       1  LIG1        0.0693
      7 H          -0.0019   -2.7995   -0.0026 H       1  LIG1        0.0623
      8 H           0.9369   -0.3415   -0.0017 H       1  LIG1        0.0629
      9 C          -0.9326    1.8206    0.0015 C.ar    1  LIG1        0.0266
     10 C           0.2549    2.5082    0.0014 C.ar    1  LIG1       -0.0457
     11 C           0.0734    3.9182    0.0024 C.ar    1  LIG1       -0.0432
     12 C          -1.2481    4.2676    0.0032 C.ar    1  LIG1        0.0604
     13 S          -2.2861    2.8939    0.0028 S.2     1  LIG1       -0.0845
     14 H           1.2220    2.0287    0.0007 H       1  LIG1        0.0629
     15 H           0.8689    4.6485    0.0024 H       1  LIG1        0.0630
     16 C          -1.7928    5.6228    0.0042 C.ar    1  LIG1        0.2099
     17 N          -3.1218    5.7711    0.0048 N.ar    1  LIG1       -0.1247
     18 C          -2.7455    7.9941    0.0059 C.ar    1  LIG1        0.2099
     19 N          -0.9314    6.6460    0.0044 N.ar    1  LIG1       -0.1247
     20 N          -3.6061    6.9717    0.0057 N.ar    1  LIG1       -0.1247
     21 N          -1.4157    7.8450    0.0053 N.ar    1  LIG1       -0.1247
     22 C          -3.2825    9.3546    0.0068 C.ar    1  LIG1        0.0598
     23 C          -4.6002    9.7174    0.0075 C.ar    1  LIG1       -0.0438
     24 C          -4.7633   11.1359    0.0084 C.ar    1  LIG1       -0.0540
     25 C          -3.5668   11.7909    0.0083 C.ar    1  LIG1       -0.0236
     26 S          -2.2290   10.7168    0.0072 S.2     1  LIG1       -0.0934
     27 H          -3.3974   12.8556    0.0088 H       1  LIG1        0.0693
     28 H          -5.4033    8.9957    0.0074 H       1  LIG1        0.0630
     29 H          -5.7204   11.6347    0.0090 H       1  LIG1        0.0623
@<TRIPOS>BOND
     1     7     2    1
     2     8     3    1
     3     2     3   ar
     4     2     1   ar
     5     3     4   ar
     6     6     1    1
     7     1     5   ar
     8     4     9    1
     9     4     5   ar
    10    14    10    1
    11    10     9   ar
    12    10    11   ar
    13     9    13   ar
    14    11    15    1
    15    11    12   ar
    16    13    12   ar
    17    12    16    1
    18    16    19   ar
    19    16    17   ar
    20    19    21   ar
    21    17    20   ar
    22    21    18   ar
    23    20    18   ar
    24    18    22    1
    25    22    26   ar
    26    22    23   ar
    27    26    25   ar
    28    28    23    1
    29    23    24   ar
    30    25    24   ar
    31    25    27    1
    32    24    29    1
