@<TRIPOS>MOLECULE
mol_data/opt/m06hf/geoms/mol2/558-4-.out
 32 35 0 0 0
SMALL
GASTEIGER

@<TRIPOS>ATOM
      1 C          -1.8473   -1.9923    0.3761 C.ar    1  LIG1       -0.0237
      2 C          -0.7411   -1.9016   -0.4112 C.ar    1  LIG1       -0.0541
      3 C          -0.3063   -0.5488   -0.5852 C.ar    1  LIG1       -0.0464
      4 C          -1.0921    0.3459    0.0826 C.ar    1  LIG1        0.0259
      5 S          -2.3702   -0.4516    0.9307 S.2     1  LIG1       -0.0961
      6 H          -2.3857   -2.8803    0.6647 H       1  LIG1        0.0693
      7 H          -0.2566   -2.7547   -0.8614 H       1  LIG1        0.0623
      8 H           0.5323   -0.2466   -1.1951 H       1  LIG1        0.0629
      9 C          -0.9145    1.8022    0.1325 C.ar    1  LIG1        0.0266
     10 C           0.2734    2.4739    0.2506 C.ar    1  LIG1       -0.0457
     11 C           0.1033    3.8879    0.2386 C.ar    1  LIG1       -0.0432
     12 C          -1.2102    4.2463    0.1212 C.ar    1  LIG1        0.0604
     13 S          -2.2562    2.8810    0.0036 S.2     1  LIG1       -0.0845
     14 H           1.2210    1.9700    0.3678 H       1  LIG1        0.0629
     15 H           0.8985    4.6131    0.3252 H       1  LIG1        0.0630
     16 C          -1.7436    5.6077    0.0880 C.ar    1  LIG1        0.2099
     17 N          -3.0643    5.7652   -0.0265 N.ar    1  LIG1       -0.1247
     18 C          -2.6787    7.9923    0.0248 C.ar    1  LIG1        0.2034
     19 N          -0.8800    6.6251    0.1727 N.ar    1  LIG1       -0.1247
     20 N          -3.5355    6.9713   -0.0583 N.ar    1  LIG1       -0.1252
     21 N          -1.3556    7.8276    0.1406 N.ar    1  LIG1       -0.1252
     22 C          -4.5921    9.5785   -0.1440 C.ar    1  LIG1       -0.0509
     23 C          -5.0918   10.8751   -0.1837 C.ar    1  LIG1       -0.0611
     24 C          -3.2170    9.3744   -0.0151 C.ar    1  LIG1        0.0226
     25 C          -4.2248   11.9623   -0.0949 C.ar    1  LIG1       -0.0617
     26 H          -6.1566   11.0368   -0.2842 H       1  LIG1        0.0618
     27 C          -2.3447   10.4607    0.0747 C.ar    1  LIG1       -0.0509
     28 C          -2.8532   11.7539    0.0343 C.ar    1  LIG1       -0.0611
     29 H          -1.2830   10.2808    0.1744 H       1  LIG1        0.0625
     30 H          -4.6180   12.9700   -0.1266 H       1  LIG1        0.0618
     31 H          -5.2508    8.7234   -0.2121 H       1  LIG1        0.0625
     32 H          -2.1794   12.5974    0.1033 H       1  LIG1        0.0618
@<TRIPOS>BOND
     1     8     3    1
     2     7     2    1
     3     3     2   ar
     4     3     4   ar
     5     2     1   ar
     6    26    23    1
     7    31    22    1
     8    23    22   ar
     9    23    25   ar
    10    22    24   ar
    11    30    25    1
    12    25    28   ar
    13    20    17   ar
    14    20    18   ar
    15    17    16   ar
    16    24    18    1
    17    24    27   ar
    18    13    12   ar
    19    13     9   ar
    20    18    21   ar
    21    28    27   ar
    22    28    32    1
    23    27    29    1
    24     4     9    1
    25     4     5   ar
    26    16    12    1
    27    16    19   ar
    28    12    11   ar
    29     9    10   ar
    30    21    19   ar
    31    11    10   ar
    32    11    15    1
    33    10    14    1
    34     1     6    1
    35     1     5   ar
