@<TRIPOS>MOLECULE
mol_data/opt/m06hf/geoms/mol2/558.out
 22 24 0 0 0
SMALL
GASTEIGER

@<TRIPOS>ATOM
      1 C          -2.0287   -1.8875    0.0001 C.ar    1  LIG1       -0.0237
      2 C          -0.6685   -1.8666   -0.0009 C.ar    1  LIG1       -0.0541
      3 C          -0.1438   -0.5366   -0.0006 C.ar    1  LIG1       -0.0464
      4 C          -1.1216    0.4197    0.0006 C.ar    1  LIG1        0.0259
      5 S          -2.6937   -0.3029    0.0008 S.2     1  LIG1       -0.0961
      6 H          -2.6824   -2.7443    0.0003 H       1  LIG1        0.0693
      7 H          -0.0576   -2.7563   -0.0016 H       1  LIG1        0.0623
      8 H           0.9113   -0.3072   -0.0011 H       1  LIG1        0.0629
      9 C          -0.9358    1.8755    0.0013 C.ar    1  LIG1        0.0266
     10 C           0.2565    2.5554    0.0015 C.ar    1  LIG1       -0.0457
     11 C           0.0825    3.9664    0.0023 C.ar    1  LIG1       -0.0432
     12 C          -1.2370    4.3233    0.0028 C.ar    1  LIG1        0.0604
     13 S          -2.2821    2.9546    0.0020 S.2     1  LIG1       -0.0845
     14 H           1.2205    2.0703    0.0011 H       1  LIG1        0.0629
     15 H           0.8819    4.6927    0.0026 H       1  LIG1        0.0630
     16 C          -1.7790    5.6801    0.0038 C.ar    1  LIG1        0.2098
     17 N          -0.9158    6.7023    0.0042 N.ar    1  LIG1       -0.1253
     18 C          -2.7304    8.0356    0.0051 C.ar    1  LIG1        0.1605
     19 N          -3.1076    5.8199    0.0041 N.ar    1  LIG1       -0.1253
     20 N          -1.4047    7.9043    0.0049 N.ar    1  LIG1       -0.1339
     21 N          -3.5935    7.0246    0.0048 N.ar    1  LIG1       -0.1339
     22 H          -3.1328    9.0374    0.0060 H       1  LIG1        0.1085
@<TRIPOS>BOND
     1     7     2    1
     2     8     3    1
     3     2     3   ar
     4     2     1   ar
     5     3     4   ar
     6     1     6    1
     7     1     5   ar
     8     4     5   ar
     9     4     9    1
    10    14    10    1
    11     9    10   ar
    12     9    13   ar
    13    10    11   ar
    14    13    12   ar
    15    11    15    1
    16    11    12   ar
    17    12    16    1
    18    16    19   ar
    19    16    17   ar
    20    19    21   ar
    21    17    20   ar
    22    21    18   ar
    23    20    18   ar
    24    18    22    1
