@<TRIPOS>MOLECULE
mol_data/opt/m06hf/geoms/mol2/58-.out
 15 16 0 0 0
SMALL
GASTEIGER

@<TRIPOS>ATOM
      1 C          -2.0402   -1.7858   -0.0006 C.ar    1  LIG1       -0.0236
      2 C          -0.6764   -1.7679   -0.0005 C.ar    1  LIG1       -0.0540
      3 C          -0.1559   -0.4383    0.0004 C.ar    1  LIG1       -0.0438
      4 C          -1.1486    0.5000    0.0009 C.ar    1  LIG1        0.0598
      5 S          -2.7201   -0.2091    0.0012 S.2     1  LIG1       -0.0934
      6 H          -2.6879   -2.6477   -0.0013 H       1  LIG1        0.0693
      7 H          -0.0649   -2.6572   -0.0012 H       1  LIG1        0.0623
      8 H           0.8915   -0.1760    0.0004 H       1  LIG1        0.0630
      9 C          -0.9771    1.9535    0.0015 C.ar    1  LIG1        0.2098
     10 N          -2.0752    2.7132    0.0022 N.ar    1  LIG1       -0.1253
     11 C          -0.6814    4.4767    0.0028 C.ar    1  LIG1        0.1605
     12 N           0.2706    2.4368    0.0016 N.ar    1  LIG1       -0.1253
     13 N          -1.9240    4.0035    0.0028 N.ar    1  LIG1       -0.1339
     14 N           0.4184    3.7259    0.0022 N.ar    1  LIG1       -0.1339
     15 H          -0.5551    5.5489    0.0033 H       1  LIG1        0.1085
@<TRIPOS>BOND
     1     6     1    1
     2     7     2    1
     3     1     2   ar
     4     1     5   ar
     5     2     3   ar
     6     8     3    1
     7     3     4   ar
     8     4     5   ar
     9     4     9    1
    10     9    12   ar
    11     9    10   ar
    12    12    14   ar
    13    14    11   ar
    14    10    13   ar
    15    13    11   ar
    16    11    15    1
