@<TRIPOS>MOLECULE
mol_data/opt/m06hf/geoms/mol2/58-134-.out
 33 36 0 0 0
SMALL
GASTEIGER

@<TRIPOS>ATOM
      1 C          -2.0656   -1.8459   -0.3066 C.ar    1  LIG1       -0.0236
      2 C          -0.7222   -1.8601   -0.0758 C.ar    1  LIG1       -0.0540
      3 C          -0.1800   -0.5430    0.0309 C.ar    1  LIG1       -0.0438
      4 C          -1.1371    0.4193   -0.1247 C.ar    1  LIG1        0.0598
      5 S          -2.6995   -0.2532   -0.4017 S.2     1  LIG1       -0.0934
      6 H          -2.7230   -2.6919   -0.4289 H       1  LIG1        0.0693
      7 H          -0.1392   -2.7637    0.0161 H       1  LIG1        0.0623
      8 H           0.8571   -0.3052    0.2155 H       1  LIG1        0.0630
      9 C          -0.9396    1.8683   -0.0642 C.ar    1  LIG1        0.2099
     10 N          -2.0013    2.6580   -0.2184 N.ar    1  LIG1       -0.1246
     11 C          -0.5869    4.3965    0.0665 C.ar    1  LIG1        0.2194
     12 N           0.3045    2.3251    0.1476 N.ar    1  LIG1       -0.1246
     13 N          -1.8229    3.9418   -0.1521 N.ar    1  LIG1       -0.1237
     14 N           0.4851    3.6009    0.2136 N.ar    1  LIG1       -0.1237
     15 C          -0.4009    5.8341    0.1500 C.ar    1  LIG1        0.0879
     16 C           0.7350    6.5942    0.3530 C.ar    1  LIG1       -0.0326
     17 C           0.3266    7.9462    0.3356 C.ar    1  LIG1       -0.0357
     18 C          -1.0451    7.9675    0.1252 C.ar    1  LIG1        0.0470
     19 N          -1.4639    6.6795    0.0187 N.ar    1  LIG1       -0.3516
     20 H          -2.3993    6.3662   -0.2007 H       1  LIG1        0.1660
     21 H           1.7254    6.1997    0.5037 H       1  LIG1        0.0640
     22 H           0.9440    8.8142    0.4951 H       1  LIG1        0.0639
     23 C          -3.2775    9.0062    0.5506 C.ar    1  LIG1       -0.0526
     24 C          -4.1497   10.0865    0.4636 C.ar    1  LIG1       -0.0611
     25 C          -1.9809    9.1055    0.0381 C.ar    1  LIG1       -0.0017
     26 C          -3.7304   11.2781   -0.1219 C.ar    1  LIG1       -0.0617
     27 H          -5.1507   10.0015    0.8655 H       1  LIG1        0.0618
     28 C          -1.5663   10.3020   -0.5526 C.ar    1  LIG1       -0.0526
     29 C          -2.4358   11.3845   -0.6255 C.ar    1  LIG1       -0.0611
     30 H          -0.5692   10.3692   -0.9682 H       1  LIG1        0.0624
     31 H          -4.4072   12.1201   -0.1835 H       1  LIG1        0.0618
     32 H          -3.5935    8.0947    1.0436 H       1  LIG1        0.0624
     33 H          -2.1069   12.3073   -1.0847 H       1  LIG1        0.0618
@<TRIPOS>BOND
     1    33    29    1
     2    30    28    1
     3    29    28   ar
     4    29    26   ar
     5    28    25   ar
     6     6     1    1
     7     5     1   ar
     8     5     4   ar
     9     1     2   ar
    10    10    13   ar
    11    10     9   ar
    12    20    19    1
    13    31    26    1
    14    13    11   ar
    15     4     9    1
    16     4     3   ar
    17    26    24   ar
    18     2     7    1
    19     2     3   ar
    20     9    12   ar
    21    19    18   ar
    22    19    15   ar
    23     3     8    1
    24    25    18    1
    25    25    23   ar
    26    11    15    1
    27    11    14   ar
    28    18    17   ar
    29    12    14   ar
    30    15    16   ar
    31    17    16   ar
    32    17    22    1
    33    16    21    1
    34    24    23   ar
    35    24    27    1
    36    23    32    1
