@<TRIPOS>MOLECULE
mol_data/opt/m06hf/geoms/mol2/58-12.out
 22 24 0 0 0
SMALL
GASTEIGER

@<TRIPOS>ATOM
      1 C          -2.0063   -1.8294   -0.0006 C.ar    1  LIG1       -0.0236
      2 C          -0.6429   -1.7905   -0.0006 C.ar    1  LIG1       -0.0540
      3 C          -0.1428   -0.4527    0.0002 C.ar    1  LIG1       -0.0438
      4 C          -1.1497    0.4700    0.0008 C.ar    1  LIG1        0.0598
      5 S          -2.7101   -0.2632    0.0004 S.2     1  LIG1       -0.0934
      6 H          -2.6400   -2.7016   -0.0011 H       1  LIG1        0.0693
      7 H          -0.0178   -2.6703   -0.0011 H       1  LIG1        0.0623
      8 H           0.9004   -0.1744    0.0003 H       1  LIG1        0.0630
      9 C          -1.0032    1.9259    0.0016 C.ar    1  LIG1        0.2099
     10 N          -2.1095    2.6705    0.0021 N.ar    1  LIG1       -0.1246
     11 C          -0.7499    4.4627    0.0031 C.ar    1  LIG1        0.2381
     12 N           0.2368    2.4341    0.0019 N.ar    1  LIG1       -0.1246
     13 N          -1.9854    3.9624    0.0028 N.ar    1  LIG1       -0.1220
     14 N           0.3640    3.7195    0.0026 N.ar    1  LIG1       -0.1220
     15 C          -0.5694    5.9138    0.0039 C.ar    1  LIG1        0.1751
     16 C           0.5587    6.6751    0.0043 C.ar    1  LIG1       -0.0126
     17 C           0.1039    8.0337    0.0051 C.ar    1  LIG1       -0.0232
     18 C          -1.2534    7.9691    0.0050 C.ar    1  LIG1        0.0927
     19 O          -1.6676    6.6913    0.0044 O.2     1  LIG1       -0.4597
     20 H          -2.0256    8.7182    0.0055 H       1  LIG1        0.1029
     21 H           1.5693    6.3038    0.0041 H       1  LIG1        0.0656
     22 H           0.7045    8.9262    0.0056 H       1  LIG1        0.0649
@<TRIPOS>BOND
     1     7     2    1
     2     6     1    1
     3     2     1   ar
     4     2     3   ar
     5     1     5   ar
     6     3     8    1
     7     3     4   ar
     8     5     4   ar
     9     4     9    1
    10     9    12   ar
    11     9    10   ar
    12    12    14   ar
    13    10    13   ar
    14    14    11   ar
    15    13    11   ar
    16    11    15    1
    17    15    16   ar
    18    15    19   ar
    19    21    16    1
    20    16    17   ar
    21    19    18   ar
    22    18    17   ar
    23    18    20    1
    24    17    22    1
