@<TRIPOS>MOLECULE
mol_data/opt/m06hf/geoms/mol2/58-13-8.out
 29 32 0 0 0
SMALL
GASTEIGER

@<TRIPOS>ATOM
      1 C          -2.0304   -1.8443    0.0000 C.ar    1  LIG1       -0.0236
      2 C          -0.6661   -1.8200   -0.0004 C.ar    1  LIG1       -0.0540
      3 C          -0.1526   -0.4884    0.0000 C.ar    1  LIG1       -0.0438
      4 C          -1.1512    0.4452    0.0008 C.ar    1  LIG1        0.0598
      5 S          -2.7163   -0.2733    0.0004 S.2     1  LIG1       -0.0934
      6 H          -2.6745   -2.7095   -0.0001 H       1  LIG1        0.0693
      7 H          -0.0498   -2.7059   -0.0009 H       1  LIG1        0.0623
      8 H           0.8941   -0.2223   -0.0000 H       1  LIG1        0.0630
      9 C          -0.9895    1.8985    0.0016 C.ar    1  LIG1        0.2099
     10 N          -2.0958    2.6527    0.0021 N.ar    1  LIG1       -0.1246
     11 C          -0.7247    4.4363    0.0028 C.ar    1  LIG1        0.2194
     12 N           0.2501    2.3979    0.0017 N.ar    1  LIG1       -0.1246
     13 N          -1.9654    3.9397    0.0027 N.ar    1  LIG1       -0.1237
     14 N           0.3814    3.6864    0.0023 N.ar    1  LIG1       -0.1237
     15 C          -0.5540    5.8843    0.0035 C.ar    1  LIG1        0.0880
     16 C          -1.4923    6.9048    0.0039 C.ar    1  LIG1       -0.0325
     17 C          -0.7739    8.1173    0.0048 C.ar    1  LIG1       -0.0325
     18 C           0.5719    7.7849    0.0042 C.ar    1  LIG1        0.0880
     19 N           0.6862    6.4329    0.0035 N.ar    1  LIG1       -0.3491
     20 H           1.5566    5.9145    0.0031 H       1  LIG1        0.1661
     21 H          -2.5595    6.7649    0.0039 H       1  LIG1        0.0640
     22 H          -1.1632    9.1210    0.0056 H       1  LIG1        0.0640
     23 C           1.7578    8.6319    0.0044 C.ar    1  LIG1        0.2193
     24 N           2.9478    8.0259    0.0037 N.ar    1  LIG1       -0.1243
     25 C           3.8361   10.0900    0.0047 C.ar    1  LIG1        0.1605
     26 N           1.5864    9.9589    0.0052 N.ar    1  LIG1       -0.1243
     27 N           4.0118    8.7727    0.0039 N.ar    1  LIG1       -0.1338
     28 N           2.6501   10.7001    0.0054 N.ar    1  LIG1       -0.1338
     29 H           4.7167   10.7139    0.0049 H       1  LIG1        0.1085
@<TRIPOS>BOND
     1     7     2    1
     2     2     1   ar
     3     2     3   ar
     4     6     1    1
     5     8     3    1
     6     1     5   ar
     7     3     4   ar
     8     5     4   ar
     9     4     9    1
    10     9    12   ar
    11     9    10   ar
    12    12    14   ar
    13    10    13   ar
    14    14    11   ar
    15    13    11   ar
    16    11    15    1
    17    20    19    1
    18    15    19   ar
    19    15    16   ar
    20    19    18   ar
    21    24    27   ar
    22    24    23   ar
    23    27    25   ar
    24    21    16    1
    25    16    17   ar
    26    18    23    1
    27    18    17   ar
    28    23    26   ar
    29    25    29    1
    30    25    28   ar
    31    17    22    1
    32    26    28   ar
