@<TRIPOS>MOLECULE
mol_data/opt/m06hf/geoms/mol2/58-48.out
 31 34 0 0 0
SMALL
GASTEIGER

@<TRIPOS>ATOM
      1 C          -2.0425   -1.8983   -0.0020 C.ar    1  LIG1       -0.0236
      2 C          -0.6784   -1.8777   -0.0017 C.ar    1  LIG1       -0.0540
      3 C          -0.1608   -0.5471   -0.0003 C.ar    1  LIG1       -0.0438
      4 C          -1.1558    0.3890    0.0003 C.ar    1  LIG1        0.0598
      5 S          -2.7257   -0.3234   -0.0007 S.2     1  LIG1       -0.0934
      6 H          -2.6877   -2.7620   -0.0030 H       1  LIG1        0.0693
      7 H          -0.0651   -2.7658   -0.0024 H       1  LIG1        0.0623
      8 H           0.8860   -0.2826    0.0001 H       1  LIG1        0.0630
      9 C          -0.9869    1.8417    0.0017 C.ar    1  LIG1        0.2099
     10 N          -2.0822    2.6053    0.0022 N.ar    1  LIG1       -0.1247
     11 C          -0.6905    4.3848    0.0042 C.ar    1  LIG1        0.2034
     12 N           0.2584    2.3311    0.0024 N.ar    1  LIG1       -0.1247
     13 N          -1.9306    3.8918    0.0034 N.ar    1  LIG1       -0.1252
     14 N           0.4039    3.6164    0.0037 N.ar    1  LIG1       -0.1252
     15 C           0.7699    6.4038    0.0065 C.ar    1  LIG1       -0.0503
     16 C           0.9344    7.7821    0.0079 C.ar    1  LIG1       -0.0503
     17 C          -0.5159    5.8596    0.0057 C.ar    1  LIG1        0.0227
     18 C          -0.1874    8.6130    0.0084 C.ar    1  LIG1        0.0227
     19 H           1.9226    8.2210    0.0085 H       1  LIG1        0.0625
     20 C          -1.6379    6.6907    0.0062 C.ar    1  LIG1       -0.0503
     21 C          -1.4733    8.0691    0.0076 C.ar    1  LIG1       -0.0503
     22 H          -2.6262    6.2521    0.0056 H       1  LIG1        0.0625
     23 H           1.6266    5.7443    0.0060 H       1  LIG1        0.0625
     24 H          -2.3299    8.7287    0.0081 H       1  LIG1        0.0625
     25 C          -0.0118   10.0884    0.0099 C.ar    1  LIG1        0.2033
     26 N           1.2320   10.5753    0.0107 N.ar    1  LIG1       -0.1258
     27 C           0.2909   12.6169    0.0127 C.ar    1  LIG1        0.1605
     28 N          -1.1056   10.8548    0.0105 N.ar    1  LIG1       -0.1258
     29 N           1.3877   11.8647    0.0121 N.ar    1  LIG1       -0.1339
     30 N          -0.9525   12.1445    0.0118 N.ar    1  LIG1       -0.1339
     31 H           0.4185   13.6891    0.0138 H       1  LIG1        0.1085
@<TRIPOS>BOND
     1     6     1    1
     2     7     2    1
     3     1     2   ar
     4     1     5   ar
     5     2     3   ar
     6     5     4   ar
     7     3     8    1
     8     3     4   ar
     9     4     9    1
    10     9    10   ar
    11     9    12   ar
    12    10    13   ar
    13    12    14   ar
    14    13    11   ar
    15    14    11   ar
    16    11    17    1
    17    22    20    1
    18    17    20   ar
    19    17    15   ar
    20    23    15    1
    21    20    21   ar
    22    15    16   ar
    23    21    24    1
    24    21    18   ar
    25    16    18   ar
    26    16    19    1
    27    18    25    1
    28    25    28   ar
    29    25    26   ar
    30    28    30   ar
    31    26    29   ar
    32    30    27   ar
    33    29    27   ar
    34    27    31    1
