@<TRIPOS>MOLECULE
mol_data/opt/m06hf/geoms/mol2/58-4-.out
 25 27 0 0 0
SMALL
GASTEIGER

@<TRIPOS>ATOM
      1 C          -2.0662   -1.8458   -0.0003 C.ar    1  LIG1       -0.0236
      2 C          -0.7023   -1.8358   -0.0001 C.ar    1  LIG1       -0.0540
      3 C          -0.1738   -0.5089    0.0005 C.ar    1  LIG1       -0.0438
      4 C          -1.1604    0.4353    0.0008 C.ar    1  LIG1        0.0598
      5 S          -2.7362   -0.2643    0.0002 S.2     1  LIG1       -0.0934
      6 H          -2.7185   -2.7040   -0.0007 H       1  LIG1        0.0693
      7 H          -0.0960   -2.7287   -0.0004 H       1  LIG1        0.0623
      8 H           0.8752   -0.2530    0.0008 H       1  LIG1        0.0630
      9 C          -0.9798    1.8877    0.0014 C.ar    1  LIG1        0.2099
     10 N          -2.0680    2.6601    0.0015 N.ar    1  LIG1       -0.1247
     11 C          -0.6614    4.4301    0.0024 C.ar    1  LIG1        0.2034
     12 N           0.2691    2.3661    0.0017 N.ar    1  LIG1       -0.1247
     13 N          -1.9059    3.9457    0.0020 N.ar    1  LIG1       -0.1252
     14 N           0.4259    3.6502    0.0022 N.ar    1  LIG1       -0.1252
     15 C          -1.5874    6.7441    0.0031 C.ar    1  LIG1       -0.0509
     16 C          -1.4047    8.1223    0.0035 C.ar    1  LIG1       -0.0611
     17 C          -0.4738    5.9022    0.0029 C.ar    1  LIG1        0.0226
     18 C          -0.1182    8.6578    0.0039 C.ar    1  LIG1       -0.0617
     19 H          -2.2657    8.7771    0.0037 H       1  LIG1        0.0618
     20 C           0.8168    6.4345    0.0033 C.ar    1  LIG1       -0.0509
     21 C           0.9901    7.8138    0.0038 C.ar    1  LIG1       -0.0611
     22 H           1.6659    5.7649    0.0031 H       1  LIG1        0.0625
     23 H           0.0198    9.7314    0.0043 H       1  LIG1        0.0618
     24 H          -2.5795    6.3132    0.0028 H       1  LIG1        0.0625
     25 H           1.9893    8.2285    0.0040 H       1  LIG1        0.0618
@<TRIPOS>BOND
     1     6     1    1
     2     7     2    1
     3     1     2   ar
     4     1     5   ar
     5     2     3   ar
     6     5     4   ar
     7     3     8    1
     8     3     4   ar
     9     4     9    1
    10     9    10   ar
    11     9    12   ar
    12    10    13   ar
    13    12    14   ar
    14    13    11   ar
    15    14    11   ar
    16    11    17    1
    17    24    15    1
    18    17    15   ar
    19    17    20   ar
    20    15    16   ar
    21    22    20    1
    22    20    21   ar
    23    16    19    1
    24    16    18   ar
    25    21    18   ar
    26    21    25    1
    27    18    23    1
