@<TRIPOS>MOLECULE
mol_data/opt/m06hf/geoms/mol2/58-4-5.out
 32 35 0 0 0
SMALL
GASTEIGER

@<TRIPOS>ATOM
      1 C          -2.1021   -1.8977   -0.1381 C.ar    1  LIG1       -0.0236
      2 C          -0.7483   -1.9070    0.0272 C.ar    1  LIG1       -0.0540
      3 C          -0.2060   -0.5876    0.0957 C.ar    1  LIG1       -0.0438
      4 C          -1.1742    0.3694   -0.0213 C.ar    1  LIG1        0.0598
      5 S          -2.7457   -0.3085   -0.2139 S.2     1  LIG1       -0.0934
      6 H          -2.7612   -2.7471   -0.2201 H       1  LIG1        0.0693
      7 H          -0.1588   -2.8083    0.0976 H       1  LIG1        0.0623
      8 H           0.8384   -0.3454    0.2236 H       1  LIG1        0.0630
      9 C          -0.9791    1.8196    0.0008 C.ar    1  LIG1        0.2099
     10 N          -2.0529    2.6011   -0.1358 N.ar    1  LIG1       -0.1247
     11 C          -0.6425    4.3591    0.0317 C.ar    1  LIG1        0.2034
     12 N           0.2640    2.2883    0.1551 N.ar    1  LIG1       -0.1247
     13 N          -1.8818    3.8847   -0.1196 N.ar    1  LIG1       -0.1252
     14 N           0.4303    3.5712    0.1697 N.ar    1  LIG1       -0.1252
     15 C          -1.5388    6.6799   -0.1149 C.ar    1  LIG1       -0.0503
     16 C          -1.3494    8.0550   -0.1091 C.ar    1  LIG1       -0.0529
     17 C          -0.4450    5.8281    0.0464 C.ar    1  LIG1        0.0227
     18 C          -0.0716    8.5961    0.0667 C.ar    1  LIG1       -0.0113
     19 H          -2.1945    8.7136   -0.2630 H       1  LIG1        0.0624
     20 C           0.8349    6.3573    0.2235 C.ar    1  LIG1       -0.0503
     21 C           1.0156    7.7328    0.2421 C.ar    1  LIG1       -0.0529
     22 H           1.6728    5.6870    0.3577 H       1  LIG1        0.0625
     23 H          -2.5249    6.2582   -0.2538 H       1  LIG1        0.0625
     24 H           2.0005    8.1458    0.4146 H       1  LIG1        0.0624
     25 C           0.1458   10.0593    0.0624 C.ar    1  LIG1        0.0193
     26 C           1.2227   10.7402   -0.4301 C.ar    1  LIG1       -0.0469
     27 C           1.1055   12.1583   -0.2697 C.ar    1  LIG1       -0.0541
     28 C          -0.0574   12.5155    0.3385 C.ar    1  LIG1       -0.0237
     29 S          -1.0206   11.1468    0.7304 S.2     1  LIG1       -0.0967
     30 H          -0.4017   13.5067    0.5836 H       1  LIG1        0.0693
     31 H           2.0539   10.2515   -0.9173 H       1  LIG1        0.0629
     32 H           1.8491   12.8674   -0.6007 H       1  LIG1        0.0623
@<TRIPOS>BOND
     1    31    26    1
     2    32    27    1
     3    26    27   ar
     4    26    25   ar
     5    27    28   ar
     6    19    16    1
     7    23    15    1
     8     6     1    1
     9     5     1   ar
    10     5     4   ar
    11     1     2   ar
    12    10    13   ar
    13    10     9   ar
    14    13    11   ar
    15    15    16   ar
    16    15    17   ar
    17    16    18   ar
    18     4     9    1
    19     4     3   ar
    20     9    12   ar
    21     2     3   ar
    22     2     7    1
    23    11    17    1
    24    11    14   ar
    25    17    20   ar
    26    25    18    1
    27    25    29   ar
    28    18    21   ar
    29     3     8    1
    30    12    14   ar
    31    20    21   ar
    32    20    22    1
    33    21    24    1
    34    28    30    1
    35    28    29   ar
