@<TRIPOS>MOLECULE
mol_data/opt/m06hf/geoms/mol2/58-5.out
 22 24 0 0 0
SMALL
GASTEIGER

@<TRIPOS>ATOM
      1 C          -2.0605   -1.8240   -0.0001 C.ar    1  LIG1       -0.0236
      2 C          -0.6967   -1.8176   -0.0004 C.ar    1  LIG1       -0.0540
      3 C          -0.1652   -0.4919   -0.0001 C.ar    1  LIG1       -0.0438
      4 C          -1.1502    0.4544    0.0006 C.ar    1  LIG1        0.0598
      5 S          -2.7269   -0.2420    0.0003 S.2     1  LIG1       -0.0934
      6 H          -2.7147   -2.6810   -0.0002 H       1  LIG1        0.0693
      7 H          -0.0926   -2.7118   -0.0008 H       1  LIG1        0.0623
      8 H           0.8841   -0.2377   -0.0001 H       1  LIG1        0.0630
      9 C          -0.9661    1.9061    0.0013 C.ar    1  LIG1        0.2099
     10 N          -2.0520    2.6810    0.0020 N.ar    1  LIG1       -0.1247
     11 C          -0.6392    4.4402    0.0028 C.ar    1  LIG1        0.2099
     12 N           0.2863    2.3813    0.0014 N.ar    1  LIG1       -0.1247
     13 N          -1.8862    3.9663    0.0027 N.ar    1  LIG1       -0.1247
     14 N           0.4516    3.6628    0.0021 N.ar    1  LIG1       -0.1247
     15 C          -0.4488    5.8912    0.0036 C.ar    1  LIG1        0.0598
     16 C           0.7441    6.5564    0.0038 C.ar    1  LIG1       -0.0438
     17 C           0.5665    7.9736    0.0046 C.ar    1  LIG1       -0.0540
     18 C          -0.7511    8.3259    0.0051 C.ar    1  LIG1       -0.0236
     19 S          -1.7972    6.9649    0.0047 S.2     1  LIG1       -0.0934
     20 H          -1.1663    9.3209    0.0057 H       1  LIG1        0.0693
     21 H           1.6946    6.0443    0.0033 H       1  LIG1        0.0630
     22 H           1.3778    8.6852    0.0048 H       1  LIG1        0.0623
@<TRIPOS>BOND
     1     7     2    1
     2     2     3   ar
     3     2     1   ar
     4     6     1    1
     5     8     3    1
     6     3     4   ar
     7     1     5   ar
     8     5     4   ar
     9     4     9    1
    10     9    12   ar
    11     9    10   ar
    12    12    14   ar
    13    10    13   ar
    14    14    11   ar
    15    13    11   ar
    16    11    15    1
    17    21    16    1
    18    15    16   ar
    19    15    19   ar
    20    16    17   ar
    21    17    22    1
    22    17    18   ar
    23    19    18   ar
    24    18    20    1
