@<TRIPOS>MOLECULE
mol_data/opt/m06hf/geoms/mol2/58-58-.out
 28 31 0 0 0
SMALL
GASTEIGER

@<TRIPOS>ATOM
      1 C          -2.0599   -1.8545   -0.0000 C.ar    1  LIG1       -0.0236
      2 C          -0.6951   -1.8538   -0.0007 C.ar    1  LIG1       -0.0540
      3 C          -0.1593   -0.5313   -0.0004 C.ar    1  LIG1       -0.0438
      4 C          -1.1427    0.4185    0.0006 C.ar    1  LIG1        0.0598
      5 S          -2.7198   -0.2720    0.0001 S.2     1  LIG1       -0.0934
      6 H          -2.7175   -2.7089    0.0000 H       1  LIG1        0.0693
      7 H          -0.0955   -2.7511   -0.0012 H       1  LIG1        0.0623
      8 H           0.8914   -0.2811   -0.0005 H       1  LIG1        0.0630
      9 C          -0.9560    1.8683    0.0015 C.ar    1  LIG1        0.2099
     10 N          -2.0432    2.6446    0.0022 N.ar    1  LIG1       -0.1247
     11 C          -0.6277    4.3994    0.0029 C.ar    1  LIG1        0.2099
     12 N           0.2971    2.3423    0.0015 N.ar    1  LIG1       -0.1247
     13 N          -1.8752    3.9288    0.0029 N.ar    1  LIG1       -0.1247
     14 N           0.4635    3.6241    0.0022 N.ar    1  LIG1       -0.1247
     15 C          -0.4396    5.8528    0.0037 C.ar    1  LIG1        0.0605
     16 C           0.7588    6.5156    0.0039 C.ar    1  LIG1       -0.0431
     17 C           0.5806    7.9263    0.0048 C.ar    1  LIG1       -0.0431
     18 C          -0.7437    8.2713    0.0053 C.ar    1  LIG1        0.0605
     19 S          -1.7970    6.9105    0.0048 S.2     1  LIG1       -0.0818
     20 H           1.7097    6.0051    0.0033 H       1  LIG1        0.0630
     21 H           1.3743    8.6582    0.0050 H       1  LIG1        0.0630
     22 C          -1.2822    9.6349    0.0061 C.ar    1  LIG1        0.2099
     23 N          -2.6085    9.7843    0.0066 N.ar    1  LIG1       -0.1253
     24 C          -2.2130   11.9969    0.0078 C.ar    1  LIG1        0.1605
     25 N          -0.4108   10.6484    0.0065 N.ar    1  LIG1       -0.1253
     26 N          -3.0847   10.9926    0.0075 N.ar    1  LIG1       -0.1339
     27 N          -0.8886   11.8545    0.0073 N.ar    1  LIG1       -0.1339
     28 H          -2.6079   13.0014    0.0085 H       1  LIG1        0.1085
@<TRIPOS>BOND
     1     7     2    1
     2     2     3   ar
     3     2     1   ar
     4     8     3    1
     5     3     4   ar
     6     1     6    1
     7     1     5   ar
     8     5     4   ar
     9     4     9    1
    10    12     9   ar
    11    12    14   ar
    12     9    10   ar
    13    10    13   ar
    14    14    11   ar
    15    11    13   ar
    16    11    15    1
    17    20    16    1
    18    15    16   ar
    19    15    19   ar
    20    16    17   ar
    21    17    21    1
    22    17    18   ar
    23    19    18   ar
    24    18    22    1
    25    22    25   ar
    26    22    23   ar
    27    25    27   ar
    28    23    26   ar
    29    27    24   ar
    30    26    24   ar
    31    24    28    1
