@<TRIPOS>MOLECULE
mol_data/opt/m06hf/geoms/mol2/58-55.out
 29 32 0 0 0
SMALL
GASTEIGER

@<TRIPOS>ATOM
      1 C          -2.0935   -1.8612    0.0003 C.ar    1  LIG1       -0.0236
      2 C          -0.7294   -1.8803   -0.0004 C.ar    1  LIG1       -0.0540
      3 C          -0.1735   -0.5653   -0.0002 C.ar    1  LIG1       -0.0438
      4 C          -1.1419    0.3989    0.0006 C.ar    1  LIG1        0.0598
      5 S          -2.7300   -0.2679    0.0003 S.2     1  LIG1       -0.0934
      6 H          -2.7641   -2.7054    0.0005 H       1  LIG1        0.0693
      7 H          -0.1432   -2.7864   -0.0009 H       1  LIG1        0.0623
      8 H           0.8806   -0.3306   -0.0005 H       1  LIG1        0.0630
      9 C          -0.9378    1.8474    0.0014 C.ar    1  LIG1        0.2099
     10 N          -2.0163    2.6342    0.0021 N.ar    1  LIG1       -0.1247
     11 C          -0.5842    4.3778    0.0026 C.ar    1  LIG1        0.2099
     12 N           0.3197    2.3095    0.0013 N.ar    1  LIG1       -0.1247
     13 N          -1.8368    3.9167    0.0027 N.ar    1  LIG1       -0.1247
     14 N           0.4993    3.5894    0.0019 N.ar    1  LIG1       -0.1247
     15 C          -0.3865    5.8251    0.0033 C.ar    1  LIG1        0.0604
     16 C           0.8046    6.4954    0.0034 C.ar    1  LIG1       -0.0432
     17 C           0.6251    7.9068    0.0043 C.ar    1  LIG1       -0.0457
     18 C          -0.6967    8.2730    0.0048 C.ar    1  LIG1        0.0266
     19 S          -1.7375    6.8936    0.0044 S.2     1  LIG1       -0.0845
     20 H           1.7581    5.9892    0.0028 H       1  LIG1        0.0630
     21 H           1.4397    8.6149    0.0044 H       1  LIG1        0.0629
     22 C          -1.2368    9.6381    0.0058 C.ar    1  LIG1        0.0259
     23 C          -0.5284   10.8073    0.0067 C.ar    1  LIG1       -0.0464
     24 C          -1.3683   11.9655    0.0075 C.ar    1  LIG1       -0.0541
     25 C          -2.6905   11.6473    0.0072 C.ar    1  LIG1       -0.0237
     26 S          -2.9399    9.9467    0.0060 S.2     1  LIG1       -0.0961
     27 H          -3.5367   12.3148    0.0077 H       1  LIG1        0.0693
     28 H           0.5507   10.8484    0.0068 H       1  LIG1        0.0629
     29 H          -0.9965   12.9787    0.0083 H       1  LIG1        0.0623
@<TRIPOS>BOND
     1     7     2    1
     2     8     3    1
     3     2     3   ar
     4     2     1   ar
     5     3     4   ar
     6     1     5   ar
     7     1     6    1
     8     5     4   ar
     9     4     9    1
    10    12     9   ar
    11    12    14   ar
    12     9    10   ar
    13    14    11   ar
    14    10    13   ar
    15    11    13   ar
    16    11    15    1
    17    20    16    1
    18    15    16   ar
    19    15    19   ar
    20    16    17   ar
    21    17    21    1
    22    17    18   ar
    23    19    18   ar
    24    18    22    1
    25    22    26   ar
    26    22    23   ar
    27    26    25   ar
    28    23    28    1
    29    23    24   ar
    30    25    24   ar
    31    25    27    1
    32    24    29    1
