@<TRIPOS>MOLECULE
mol_data/opt/m06hf/geoms/mol2/58-54-.out
 32 35 0 0 0
SMALL
GASTEIGER

@<TRIPOS>ATOM
      1 C          -2.0382   -1.8899    0.3475 C.ar    1  LIG1       -0.0236
      2 C          -0.7063   -1.9005    0.0538 C.ar    1  LIG1       -0.0540
      3 C          -0.1751   -0.5819   -0.0816 C.ar    1  LIG1       -0.0438
      4 C          -1.1281    0.3767    0.1152 C.ar    1  LIG1        0.0598
      5 S          -2.6744   -0.3008    0.4672 S.2     1  LIG1       -0.0934
      6 H          -2.6851   -2.7385    0.5022 H       1  LIG1        0.0693
      7 H          -0.1257   -2.8028   -0.0626 H       1  LIG1        0.0623
      8 H           0.8519   -0.3417   -0.3126 H       1  LIG1        0.0630
      9 C          -0.9386    1.8261    0.0552 C.ar    1  LIG1        0.2099
     10 N          -1.9927    2.6104    0.2870 N.ar    1  LIG1       -0.1247
     11 C          -0.6043    4.3572   -0.0510 C.ar    1  LIG1        0.2099
     12 N           0.2858    2.2903   -0.2284 N.ar    1  LIG1       -0.1247
     13 N          -1.8234    3.8938    0.2324 N.ar    1  LIG1       -0.1247
     14 N           0.4555    3.5701   -0.2813 N.ar    1  LIG1       -0.1247
     15 C          -0.4166    5.8052   -0.1163 C.ar    1  LIG1        0.0604
     16 C           0.7441    6.4703   -0.3982 C.ar    1  LIG1       -0.0432
     17 C           0.5669    7.8837   -0.3871 C.ar    1  LIG1       -0.0462
     18 C          -0.7202    8.2532   -0.0974 C.ar    1  LIG1        0.0200
     19 S          -1.7302    6.8817    0.1768 S.2     1  LIG1       -0.0850
     20 H           1.6703    5.9588   -0.6133 H       1  LIG1        0.0630
     21 H           1.3462    8.5960   -0.6149 H       1  LIG1        0.0629
     22 C          -2.5443    9.9255   -0.4821 C.ar    1  LIG1       -0.0535
     23 C          -3.0409   11.2215   -0.3917 C.ar    1  LIG1       -0.0612
     24 C          -1.2659    9.6268   -0.0021 C.ar    1  LIG1       -0.0113
     25 C          -2.2638   12.2305    0.1714 C.ar    1  LIG1       -0.0617
     26 H          -4.0302   11.4436   -0.7686 H       1  LIG1        0.0618
     27 C          -0.4930   10.6413    0.5709 C.ar    1  LIG1       -0.0535
     28 C          -0.9890   11.9378    0.6507 C.ar    1  LIG1       -0.0612
     29 H           0.4841   10.4032    0.9706 H       1  LIG1        0.0624
     30 H          -2.6508   13.2385    0.2396 H       1  LIG1        0.0618
     31 H          -3.1390    9.1466   -0.9434 H       1  LIG1        0.0624
     32 H          -0.3854   12.7169    1.0975 H       1  LIG1        0.0618
@<TRIPOS>BOND
     1    31    22    1
     2    26    23    1
     3    21    17    1
     4    20    16    1
     5    22    23   ar
     6    22    24   ar
     7    16    17   ar
     8    16    15   ar
     9    23    25   ar
    10    17    18   ar
    11     8     3    1
    12    14    12   ar
    13    14    11   ar
    14    12     9   ar
    15    15    11    1
    16    15    19   ar
    17    18    24    1
    18    18    19   ar
    19     3     2   ar
    20     3     4   ar
    21     7     2    1
    22    11    13   ar
    23    24    27   ar
    24     2     1   ar
    25     9     4    1
    26     9    10   ar
    27     4     5   ar
    28    25    30    1
    29    25    28   ar
    30    13    10   ar
    31     1     5   ar
    32     1     6    1
    33    27    28   ar
    34    27    29    1
    35    28    32    1
