@<TRIPOS>MOLECULE
mol_data/opt/m06hf/geoms/mol2/58-8-13-.out
 29 32 0 0 0
SMALL
GASTEIGER

@<TRIPOS>ATOM
      1 C          -2.0390   -1.8435   -0.0007 C.ar    1  LIG1       -0.0236
      2 C          -0.6742   -1.8256   -0.0007 C.ar    1  LIG1       -0.0540
      3 C          -0.1546   -0.4967    0.0002 C.ar    1  LIG1       -0.0438
      4 C          -1.1490    0.4410    0.0009 C.ar    1  LIG1        0.0598
      5 S          -2.7202   -0.2685    0.0005 S.2     1  LIG1       -0.0934
      6 H          -2.6856   -2.7062   -0.0014 H       1  LIG1        0.0693
      7 H          -0.0628   -2.7149   -0.0014 H       1  LIG1        0.0623
      8 H           0.8926   -0.2335    0.0004 H       1  LIG1        0.0630
      9 C          -0.9775    1.8915    0.0018 C.ar    1  LIG1        0.2099
     10 N          -2.0735    2.6556    0.0022 N.ar    1  LIG1       -0.1246
     11 C          -0.6797    4.4185    0.0032 C.ar    1  LIG1        0.2435
     12 N           0.2699    2.3779    0.0020 N.ar    1  LIG1       -0.1246
     13 N          -1.9229    3.9430    0.0030 N.ar    1  LIG1       -0.1218
     14 N           0.4197    3.6637    0.0028 N.ar    1  LIG1       -0.1218
     15 C          -0.5032    5.8997    0.0040 C.ar    1  LIG1        0.2435
     16 N          -1.6038    6.6556    0.0045 N.ar    1  LIG1       -0.1218
     17 C          -0.2090    8.4279    0.0053 C.ar    1  LIG1        0.2194
     18 N           0.7391    6.3741    0.0042 N.ar    1  LIG1       -0.1218
     19 N          -1.4592    7.9400    0.0052 N.ar    1  LIG1       -0.1236
     20 N           0.8885    7.6618    0.0049 N.ar    1  LIG1       -0.1236
     21 C          -0.0209    9.8639    0.0060 C.ar    1  LIG1        0.0875
     22 C          -0.9320   10.9037    0.0066 C.ar    1  LIG1       -0.0333
     23 C          -0.1818   12.1011    0.0073 C.ar    1  LIG1       -0.0437
     24 C           1.1558   11.7472    0.0069 C.ar    1  LIG1        0.0023
     25 N           1.2373   10.3964    0.0062 N.ar    1  LIG1       -0.3582
     26 H           2.0743    9.8314    0.0059 H       1  LIG1        0.1654
     27 H           2.0409   12.3596    0.0071 H       1  LIG1        0.0807
     28 H          -2.0030   10.7882    0.0065 H       1  LIG1        0.0640
     29 H          -0.5661   13.1064    0.0079 H       1  LIG1        0.0633
@<TRIPOS>BOND
     1     6     1    1
     2     7     2    1
     3     1     2   ar
     4     1     5   ar
     5     2     3   ar
     6     3     8    1
     7     3     4   ar
     8     5     4   ar
     9     4     9    1
    10     9    12   ar
    11     9    10   ar
    12    12    14   ar
    13    10    13   ar
    14    14    11   ar
    15    13    11   ar
    16    11    15    1
    17    15    18   ar
    18    15    16   ar
    19    18    20   ar
    20    16    19   ar
    21    20    17   ar
    22    19    17   ar
    23    17    21    1
    24    26    25    1
    25    21    25   ar
    26    21    22   ar
    27    25    24   ar
    28    28    22    1
    29    22    23   ar
    30    24    27    1
    31    24    23   ar
    32    23    29    1
