@<TRIPOS>MOLECULE
mol_data/opt/m06hf/geoms/mol2/58.out
 15 16 0 0 0
SMALL
GASTEIGER

@<TRIPOS>ATOM
      1 C          -2.0404   -1.7857   -0.0002 C.ar    1  LIG1       -0.0236
      2 C          -0.6764   -1.7681   -0.0005 C.ar    1  LIG1       -0.0540
      3 C          -0.1558   -0.4386   -0.0000 C.ar    1  LIG1       -0.0438
      4 C          -1.1482    0.5000    0.0006 C.ar    1  LIG1        0.0598
      5 S          -2.7198   -0.2091    0.0002 S.2     1  LIG1       -0.0934
      6 H          -2.6882   -2.6474   -0.0004 H       1  LIG1        0.0693
      7 H          -0.0652   -2.6575   -0.0010 H       1  LIG1        0.0623
      8 H           0.8917   -0.1763   -0.0000 H       1  LIG1        0.0630
      9 C          -0.9769    1.9535    0.0014 C.ar    1  LIG1        0.2098
     10 N           0.2707    2.4371    0.0016 N.ar    1  LIG1       -0.1253
     11 C          -0.6817    4.4769    0.0030 C.ar    1  LIG1        0.1605
     12 N          -2.0751    2.7131    0.0020 N.ar    1  LIG1       -0.1253
     13 N           0.4182    3.7263    0.0024 N.ar    1  LIG1       -0.1339
     14 N          -1.9242    4.0033    0.0028 N.ar    1  LIG1       -0.1339
     15 H          -0.5556    5.5491    0.0036 H       1  LIG1        0.1085
@<TRIPOS>BOND
     1     7     2    1
     2     2     1   ar
     3     2     3   ar
     4     6     1    1
     5     1     5   ar
     6     3     8    1
     7     3     4   ar
     8     5     4   ar
     9     4     9    1
    10     9    10   ar
    11     9    12   ar
    12    10    13   ar
    13    12    14   ar
    14    13    11   ar
    15    14    11   ar
    16    11    15    1
