@<TRIPOS>MOLECULE
mol_data/opt/m06hf/geoms/mol2/5812-5-.out
 29 32 0 0 0
SMALL
GASTEIGER

@<TRIPOS>ATOM
      1 C          -2.1858   -1.8423   -0.0008 C.ar    1  LIG1       -0.0236
      2 C          -0.8219   -1.8735   -0.0006 C.ar    1  LIG1       -0.0540
      3 C          -0.2547   -0.5637    0.0002 C.ar    1  LIG1       -0.0438
      4 C          -1.2137    0.4100    0.0006 C.ar    1  LIG1        0.0598
      5 S          -2.8076   -0.2441   -0.0001 S.2     1  LIG1       -0.0934
      6 H          -2.8644   -2.6806   -0.0014 H       1  LIG1        0.0693
      7 H          -0.2422   -2.7837   -0.0010 H       1  LIG1        0.0623
      8 H           0.8015   -0.3389    0.0006 H       1  LIG1        0.0630
      9 C          -0.9872    1.8551    0.0016 C.ar    1  LIG1        0.2099
     10 N           0.2748    2.2942    0.0021 N.ar    1  LIG1       -0.1246
     11 C          -0.5930    4.3730    0.0031 C.ar    1  LIG1        0.2381
     12 N          -2.0556    2.6603    0.0018 N.ar    1  LIG1       -0.1246
     13 N           0.4779    3.5742    0.0029 N.ar    1  LIG1       -0.1220
     14 N          -1.8572    3.9386    0.0026 N.ar    1  LIG1       -0.1220
     15 C          -0.3934    5.8187    0.0040 C.ar    1  LIG1        0.1760
     16 C          -1.2825    6.8506    0.0044 C.ar    1  LIG1       -0.0120
     17 C          -0.4947    8.0418    0.0052 C.ar    1  LIG1       -0.0146
     18 C           0.8093    7.6313    0.0052 C.ar    1  LIG1        0.1424
     19 O           0.8701    6.2866    0.0045 O.2     1  LIG1       -0.4511
     20 H          -2.3549    6.7573    0.0042 H       1  LIG1        0.0657
     21 H          -0.8452    9.0591    0.0057 H       1  LIG1        0.0656
     22 C           2.0783    8.3467    0.0058 C.ar    1  LIG1        0.0544
     23 C           2.2725    9.6994    0.0065 C.ar    1  LIG1       -0.0440
     24 C           3.6583   10.0498    0.0069 C.ar    1  LIG1       -0.0540
     25 C           4.4684    8.9548    0.0065 C.ar    1  LIG1       -0.0236
     26 S           3.5750    7.4869    0.0057 S.2     1  LIG1       -0.0936
     27 H           5.5458    8.9275    0.0067 H       1  LIG1        0.0693
     28 H           1.4648   10.4170    0.0067 H       1  LIG1        0.0630
     29 H           4.0228   11.0658    0.0074 H       1  LIG1        0.0623
@<TRIPOS>BOND
     1     6     1    1
     2     7     2    1
     3     1     2   ar
     4     1     5   ar
     5     2     3   ar
     6     5     4   ar
     7     3     8    1
     8     3     4   ar
     9     4     9    1
    10     9    12   ar
    11     9    10   ar
    12    12    14   ar
    13    10    13   ar
    14    14    11   ar
    15    13    11   ar
    16    11    15    1
    17    15    16   ar
    18    15    19   ar
    19    20    16    1
    20    16    17   ar
    21    19    18   ar
    22    18    17   ar
    23    18    22    1
    24    17    21    1
    25    26    22   ar
    26    26    25   ar
    27    22    23   ar
    28    23    28    1
    29    23    24   ar
    30    25    27    1
    31    25    24   ar
    32    24    29    1
