@<TRIPOS>MOLECULE
mol_data/opt/m06hf/geoms/mol2/5812-8.out
 28 31 0 0 0
SMALL
GASTEIGER

@<TRIPOS>ATOM
      1 C          -2.2749   -1.8354   -0.0003 C.ar    1  LIG1       -0.0236
      2 C          -0.9120   -1.9055   -0.0007 C.ar    1  LIG1       -0.0540
      3 C          -0.3078   -0.6129   -0.0002 C.ar    1  LIG1       -0.0438
      4 C          -1.2399    0.3874    0.0006 C.ar    1  LIG1        0.0598
      5 S          -2.8509   -0.2211   -0.0003 S.2     1  LIG1       -0.0934
      6 H          -2.9772   -2.6541   -0.0004 H       1  LIG1        0.0693
      7 H          -0.3584   -2.8320   -0.0011 H       1  LIG1        0.0623
      8 H           0.7547   -0.4188   -0.0000 H       1  LIG1        0.0630
      9 C          -0.9761    1.8248    0.0016 C.ar    1  LIG1        0.2099
     10 N           0.2971    2.2332    0.0020 N.ar    1  LIG1       -0.1246
     11 C          -0.5203    4.3296    0.0031 C.ar    1  LIG1        0.2381
     12 N          -2.0252    2.6560    0.0019 N.ar    1  LIG1       -0.1246
     13 N           0.5312    3.5081    0.0027 N.ar    1  LIG1       -0.1220
     14 N          -1.7936    3.9288    0.0027 N.ar    1  LIG1       -0.1220
     15 C          -0.2957    5.7766    0.0039 C.ar    1  LIG1        0.1761
     16 C          -1.1849    6.8115    0.0043 C.ar    1  LIG1       -0.0119
     17 C          -0.3910    7.9966    0.0051 C.ar    1  LIG1       -0.0119
     18 C           0.9042    7.5689    0.0051 C.ar    1  LIG1        0.1761
     19 O           0.9678    6.2281    0.0043 O.2     1  LIG1       -0.4483
     20 H          -2.2572    6.7208    0.0041 H       1  LIG1        0.0657
     21 H          -0.7144    9.0232    0.0057 H       1  LIG1        0.0657
     22 C           2.1545    8.3309    0.0057 C.ar    1  LIG1        0.2381
     23 N           3.3150    7.6757    0.0054 N.ar    1  LIG1       -0.1226
     24 C           4.2771    9.7132    0.0064 C.ar    1  LIG1        0.1605
     25 N           2.0293    9.6617    0.0064 N.ar    1  LIG1       -0.1226
     26 N           4.4030    8.3901    0.0058 N.ar    1  LIG1       -0.1338
     27 N           3.1163   10.3684    0.0068 N.ar    1  LIG1       -0.1338
     28 H           5.1811   10.3030    0.0071 H       1  LIG1        0.1085
@<TRIPOS>BOND
     1     7     2    1
     2     2     1   ar
     3     2     3   ar
     4     6     1    1
     5     5     1   ar
     6     5     4   ar
     7     3     8    1
     8     3     4   ar
     9     4     9    1
    10     9    12   ar
    11     9    10   ar
    12    12    14   ar
    13    10    13   ar
    14    14    11   ar
    15    13    11   ar
    16    11    15    1
    17    15    19   ar
    18    15    16   ar
    19    20    16    1
    20    19    18   ar
    21    16    17   ar
    22    18    17   ar
    23    18    22    1
    24    17    21    1
    25    23    22   ar
    26    23    26   ar
    27    22    25   ar
    28    26    24   ar
    29    24    27   ar
    30    24    28    1
    31    25    27   ar
