@<TRIPOS>MOLECULE
mol_data/opt/m06hf/geoms/mol2/581313-.out
 31 34 0 0 0
SMALL
GASTEIGER

@<TRIPOS>ATOM
      1 C          -2.0696   -1.8369   -0.2128 C.ar    1  LIG1       -0.0236
      2 C          -0.7109   -1.8440   -0.0998 C.ar    1  LIG1       -0.0540
      3 C          -0.1702   -0.5243   -0.0217 C.ar    1  LIG1       -0.0438
      4 C          -1.1439    0.4322   -0.0802 C.ar    1  LIG1        0.0598
      5 S          -2.7206   -0.2483   -0.2279 S.2     1  LIG1       -0.0934
      6 H          -2.7294   -2.6862   -0.2895 H       1  LIG1        0.0693
      7 H          -0.1169   -2.7445   -0.0728 H       1  LIG1        0.0623
      8 H           0.8775   -0.2810    0.0732 H       1  LIG1        0.0630
      9 C          -0.9506    1.8821   -0.0247 C.ar    1  LIG1        0.2099
     10 N           0.3019    2.3447    0.1134 N.ar    1  LIG1       -0.1246
     11 C          -0.6011    4.4124    0.0800 C.ar    1  LIG1        0.2194
     12 N          -2.0229    2.6677   -0.1142 N.ar    1  LIG1       -0.1246
     13 N           0.4805    3.6211    0.1661 N.ar    1  LIG1       -0.1237
     14 N          -1.8465    3.9521   -0.0613 N.ar    1  LIG1       -0.1237
     15 C          -0.4136    5.8506    0.1413 C.ar    1  LIG1        0.0880
     16 C           0.7314    6.6106    0.2844 C.ar    1  LIG1       -0.0326
     17 C           0.3248    7.9640    0.2812 C.ar    1  LIG1       -0.0343
     18 C          -1.0557    7.9821    0.1309 C.ar    1  LIG1        0.0634
     19 N          -1.4801    6.6969    0.0470 N.ar    1  LIG1       -0.3505
     20 H          -2.4306    6.3928   -0.1121 H       1  LIG1        0.1660
     21 H           1.7272    6.2156    0.3911 H       1  LIG1        0.0640
     22 H           0.9505    8.8306    0.4158 H       1  LIG1        0.0639
     23 C          -1.9952    9.0998    0.0608 C.ar    1  LIG1        0.0629
     24 C          -3.2842    9.2339    0.5308 C.ar    1  LIG1       -0.0350
     25 C          -3.7241   10.5413    0.1836 C.ar    1  LIG1       -0.0438
     26 C          -2.6889   11.1555   -0.4804 C.ar    1  LIG1        0.0022
     27 N          -1.6511   10.2739   -0.5471 N.ar    1  LIG1       -0.3595
     28 H          -0.7769   10.4253   -1.0242 H       1  LIG1        0.1654
     29 H          -2.6127   12.1396   -0.9092 H       1  LIG1        0.0807
     30 H          -3.8266    8.4908    1.0919 H       1  LIG1        0.0639
     31 H          -4.6817   10.9805    0.4041 H       1  LIG1        0.0633
@<TRIPOS>BOND
     1    28    27    1
     2    29    26    1
     3    27    26   ar
     4    27    23   ar
     5    26    25   ar
     6     6     1    1
     7     5     1   ar
     8     5     4   ar
     9     1     2   ar
    10    12    14   ar
    11    12     9   ar
    12    20    19    1
    13     2     7    1
    14     2     3   ar
    15     4     9    1
    16     4     3   ar
    17    14    11   ar
    18     9    10   ar
    19     3     8    1
    20    19    18   ar
    21    19    15   ar
    22    23    18    1
    23    23    24   ar
    24    11    15    1
    25    11    13   ar
    26    10    13   ar
    27    18    17   ar
    28    15    16   ar
    29    25    31    1
    30    25    24   ar
    31    17    16   ar
    32    17    22    1
    33    16    21    1
    34    24    30    1
