@<TRIPOS>MOLECULE
mol_data/opt/m06hf/geoms/mol2/5813-4-.out
 33 36 0 0 0
SMALL
GASTEIGER

@<TRIPOS>ATOM
      1 C          -2.0622   -1.8863    0.0007 C.ar    1  LIG1       -0.0236
      2 C          -0.6984   -1.8595   -0.0003 C.ar    1  LIG1       -0.0540
      3 C          -0.1868   -0.5265   -0.0002 C.ar    1  LIG1       -0.0438
      4 C          -1.1859    0.4058    0.0008 C.ar    1  LIG1        0.0598
      5 S          -2.7502   -0.3154    0.0012 S.2     1  LIG1       -0.0934
      6 H          -2.7048   -2.7525    0.0010 H       1  LIG1        0.0693
      7 H          -0.0804   -2.7444   -0.0010 H       1  LIG1        0.0623
      8 H           0.8593   -0.2587   -0.0008 H       1  LIG1        0.0630
      9 C          -1.0265    1.8606    0.0015 C.ar    1  LIG1        0.2099
     10 N           0.2109    2.3619    0.0010 N.ar    1  LIG1       -0.1246
     11 C          -0.7671    4.4031    0.0026 C.ar    1  LIG1        0.2194
     12 N          -2.1339    2.6134    0.0024 N.ar    1  LIG1       -0.1246
     13 N           0.3398    3.6508    0.0015 N.ar    1  LIG1       -0.1237
     14 N          -2.0085    3.8998    0.0030 N.ar    1  LIG1       -0.1237
     15 C          -0.5923    5.8444    0.0032 C.ar    1  LIG1        0.0879
     16 C          -1.5090    6.8778    0.0043 C.ar    1  LIG1       -0.0326
     17 C          -0.7647    8.0759    0.0048 C.ar    1  LIG1       -0.0357
     18 C           0.5850    7.7401    0.0036 C.ar    1  LIG1        0.0470
     19 N           0.6598    6.3833    0.0027 N.ar    1  LIG1       -0.3516
     20 H           1.4910    5.8103    0.0016 H       1  LIG1        0.1660
     21 H          -2.5789    6.7600    0.0048 H       1  LIG1        0.0640
     22 H          -1.1682    9.0737    0.0058 H       1  LIG1        0.0639
     23 C           1.6329    9.9946    0.0030 C.ar    1  LIG1       -0.0526
     24 C           2.7440   10.8280    0.0029 C.ar    1  LIG1       -0.0611
     25 C           1.7833    8.6040    0.0034 C.ar    1  LIG1       -0.0017
     26 C           4.0281   10.2876    0.0031 C.ar    1  LIG1       -0.0617
     27 H           2.6069   11.9012    0.0026 H       1  LIG1        0.0618
     28 C           3.0755    8.0698    0.0037 C.ar    1  LIG1       -0.0526
     29 C           4.1874    8.9055    0.0035 C.ar    1  LIG1       -0.0611
     30 H           3.2336    6.9988    0.0042 H       1  LIG1        0.0624
     31 H           4.8933   10.9368    0.0030 H       1  LIG1        0.0618
     32 H           0.6415   10.4272    0.0027 H       1  LIG1        0.0624
     33 H           5.1792    8.4723    0.0038 H       1  LIG1        0.0618
@<TRIPOS>BOND
     1     7     2    1
     2     8     3    1
     3     2     3   ar
     4     2     1   ar
     5     3     4   ar
     6     1     6    1
     7     1     5   ar
     8     4     5   ar
     9     4     9    1
    10    10     9   ar
    11    10    13   ar
    12     9    12   ar
    13    13    11   ar
    14    20    19    1
    15    12    14   ar
    16    11    14   ar
    17    11    15    1
    18    27    24    1
    19    19    15   ar
    20    19    18   ar
    21    32    23    1
    22    24    23   ar
    23    24    26   ar
    24    23    25   ar
    25    31    26    1
    26    26    29   ar
    27    15    16   ar
    28    25    18    1
    29    25    28   ar
    30    29    28   ar
    31    29    33    1
    32    18    17   ar
    33    28    30    1
    34    16    17   ar
    35    16    21    1
    36    17    22    1
