@<TRIPOS>MOLECULE
mol_data/opt/m06hf/geoms/mol2/584-8-.out
 31 34 0 0 0
SMALL
GASTEIGER

@<TRIPOS>ATOM
      1 C          -2.0849   -1.8849    0.0002 C.ar    1  LIG1       -0.0236
      2 C          -0.7207   -1.8809    0.0004 C.ar    1  LIG1       -0.0540
      3 C          -0.1870   -0.5567    0.0009 C.ar    1  LIG1       -0.0438
      4 C          -1.1705    0.3914    0.0011 C.ar    1  LIG1        0.0598
      5 S          -2.7489   -0.3018    0.0006 S.2     1  LIG1       -0.0934
      6 H          -2.7406   -2.7407   -0.0001 H       1  LIG1        0.0693
      7 H          -0.1183   -2.7764    0.0002 H       1  LIG1        0.0623
      8 H           0.8630   -0.3049    0.0011 H       1  LIG1        0.0630
      9 C          -0.9841    1.8420    0.0016 C.ar    1  LIG1        0.2099
     10 N           0.2671    2.3162    0.0018 N.ar    1  LIG1       -0.1247
     11 C          -0.6569    4.3814    0.0021 C.ar    1  LIG1        0.2034
     12 N          -2.0701    2.6188    0.0016 N.ar    1  LIG1       -0.1247
     13 N           0.4281    3.5997    0.0020 N.ar    1  LIG1       -0.1252
     14 N          -1.9029    3.9034    0.0019 N.ar    1  LIG1       -0.1252
     15 C          -1.5764    6.6985    0.0023 C.ar    1  LIG1       -0.0503
     16 C          -1.3951    8.0748    0.0025 C.ar    1  LIG1       -0.0503
     17 C          -0.4646    5.8539    0.0023 C.ar    1  LIG1        0.0227
     18 C          -0.1028    8.6031    0.0026 C.ar    1  LIG1        0.0227
     19 H          -2.2437    8.7447    0.0025 H       1  LIG1        0.0625
     20 C           0.8278    6.3825    0.0025 C.ar    1  LIG1       -0.0503
     21 C           1.0090    7.7587    0.0026 C.ar    1  LIG1       -0.0503
     22 H           1.6764    5.7127    0.0025 H       1  LIG1        0.0625
     23 H          -2.5699    6.2719    0.0022 H       1  LIG1        0.0625
     24 H           2.0024    8.1856    0.0028 H       1  LIG1        0.0625
     25 C           0.0907   10.0763    0.0028 C.ar    1  LIG1        0.2033
     26 N          -0.9938   10.8559    0.0028 N.ar    1  LIG1       -0.1258
     27 C           0.4239   12.6009    0.0033 C.ar    1  LIG1        0.1605
     28 N           1.3403   10.5481    0.0030 N.ar    1  LIG1       -0.1258
     29 N          -0.8252   12.1436    0.0031 N.ar    1  LIG1       -0.1339
     30 N           1.5115   11.8355    0.0032 N.ar    1  LIG1       -0.1339
     31 H           0.5644   13.6715    0.0034 H       1  LIG1        0.1085
@<TRIPOS>BOND
     1     6     1    1
     2     7     2    1
     3     1     2   ar
     4     1     5   ar
     5     2     3   ar
     6     5     4   ar
     7     3     8    1
     8     3     4   ar
     9     4     9    1
    10     9    12   ar
    11     9    10   ar
    12    12    14   ar
    13    10    13   ar
    14    14    11   ar
    15    13    11   ar
    16    11    17    1
    17    23    15    1
    18    15    17   ar
    19    15    16   ar
    20    17    20   ar
    21    22    20    1
    22    19    16    1
    23    20    21   ar
    24    16    18   ar
    25    18    21   ar
    26    18    25    1
    27    21    24    1
    28    25    26   ar
    29    25    28   ar
    30    26    29   ar
    31    28    30   ar
    32    29    27   ar
    33    30    27   ar
    34    27    31    1
