@<TRIPOS>MOLECULE
mol_data/opt/m06hf/geoms/mol2/584.out
 25 27 0 0 0
SMALL
GASTEIGER

@<TRIPOS>ATOM
      1 C          -2.0393   -1.8546   -0.0013 C.ar    1  LIG1       -0.0236
      2 C          -0.6756   -1.8337   -0.0010 C.ar    1  LIG1       -0.0540
      3 C          -0.1577   -0.5026    0.0001 C.ar    1  LIG1       -0.0438
      4 C          -1.1518    0.4337    0.0007 C.ar    1  LIG1        0.0598
      5 S          -2.7220   -0.2785   -0.0002 S.2     1  LIG1       -0.0934
      6 H          -2.6848   -2.7180   -0.0021 H       1  LIG1        0.0693
      7 H          -0.0622   -2.7217   -0.0016 H       1  LIG1        0.0623
      8 H           0.8892   -0.2383    0.0006 H       1  LIG1        0.0630
      9 C          -0.9828    1.8874    0.0019 C.ar    1  LIG1        0.2099
     10 N           0.2622    2.3758    0.0025 N.ar    1  LIG1       -0.1247
     11 C          -0.6848    4.4323    0.0039 C.ar    1  LIG1        0.2034
     12 N          -2.0772    2.6512    0.0023 N.ar    1  LIG1       -0.1247
     13 N           0.4087    3.6612    0.0035 N.ar    1  LIG1       -0.1252
     14 N          -1.9254    3.9380    0.0033 N.ar    1  LIG1       -0.1252
     15 C           0.7774    6.4485    0.0056 C.ar    1  LIG1       -0.0509
     16 C           0.9396    7.8292    0.0066 C.ar    1  LIG1       -0.0611
     17 C          -0.5090    5.9059    0.0050 C.ar    1  LIG1        0.0226
     18 C          -0.1754    8.6643    0.0070 C.ar    1  LIG1       -0.0617
     19 H           1.9354    8.2518    0.0071 H       1  LIG1        0.0618
     20 C          -1.6293    6.7389    0.0054 C.ar    1  LIG1       -0.0509
     21 C          -1.4576    8.1185    0.0064 C.ar    1  LIG1       -0.0611
     22 H          -2.6179    6.3001    0.0049 H       1  LIG1        0.0625
     23 H          -0.0460    9.7389    0.0078 H       1  LIG1        0.0618
     24 H           1.6318    5.7857    0.0053 H       1  LIG1        0.0625
     25 H          -2.3238    8.7664    0.0067 H       1  LIG1        0.0618
@<TRIPOS>BOND
     1     6     1    1
     2     7     2    1
     3     1     2   ar
     4     1     5   ar
     5     2     3   ar
     6     5     4   ar
     7     3     8    1
     8     3     4   ar
     9     4     9    1
    10     9    12   ar
    11     9    10   ar
    12    12    14   ar
    13    10    13   ar
    14    14    11   ar
    15    13    11   ar
    16    11    17    1
    17    22    20    1
    18    17    20   ar
    19    17    15   ar
    20    24    15    1
    21    20    21   ar
    22    15    16   ar
    23    21    25    1
    24    21    18   ar
    25    16    18   ar
    26    16    19    1
    27    18    23    1
