@<TRIPOS>MOLECULE
mol_data/opt/m06hf/geoms/mol2/585-.out
 22 24 0 0 0
SMALL
GASTEIGER

@<TRIPOS>ATOM
      1 C          -2.0410   -1.8335   -0.0007 C.ar    1  LIG1       -0.0236
      2 C          -0.6776   -1.8114   -0.0008 C.ar    1  LIG1       -0.0540
      3 C          -0.1602   -0.4802    0.0001 C.ar    1  LIG1       -0.0438
      4 C          -1.1549    0.4561    0.0008 C.ar    1  LIG1        0.0598
      5 S          -2.7248   -0.2578    0.0004 S.2     1  LIG1       -0.0934
      6 H          -2.6866   -2.6968   -0.0012 H       1  LIG1        0.0693
      7 H          -0.0635   -2.6989   -0.0014 H       1  LIG1        0.0623
      8 H           0.8866   -0.2159    0.0001 H       1  LIG1        0.0630
      9 C          -0.9880    1.9096    0.0017 C.ar    1  LIG1        0.2099
     10 N           0.2554    2.4016    0.0019 N.ar    1  LIG1       -0.1247
     11 C          -0.7032    4.4479    0.0033 C.ar    1  LIG1        0.2099
     12 N          -2.0878    2.6693    0.0023 N.ar    1  LIG1       -0.1247
     13 N           0.3966    3.6882    0.0027 N.ar    1  LIG1       -0.1247
     14 N          -1.9466    3.9559    0.0031 N.ar    1  LIG1       -0.1247
     15 C          -0.5363    5.9014    0.0042 C.ar    1  LIG1        0.0598
     16 C          -1.5309    6.8377    0.0049 C.ar    1  LIG1       -0.0438
     17 C          -1.0135    8.1689    0.0056 C.ar    1  LIG1       -0.0540
     18 C           0.3499    8.1910    0.0055 C.ar    1  LIG1       -0.0236
     19 S           1.0336    6.6153    0.0045 S.2     1  LIG1       -0.0934
     20 H           0.9954    9.0543    0.0060 H       1  LIG1        0.0693
     21 H          -2.5778    6.5734    0.0048 H       1  LIG1        0.0630
     22 H          -1.6277    9.0564    0.0062 H       1  LIG1        0.0623
@<TRIPOS>BOND
     1     7     2    1
     2     6     1    1
     3     2     1   ar
     4     2     3   ar
     5     1     5   ar
     6     3     8    1
     7     3     4   ar
     8     5     4   ar
     9     4     9    1
    10     9    10   ar
    11     9    12   ar
    12    10    13   ar
    13    12    14   ar
    14    13    11   ar
    15    14    11   ar
    16    11    15    1
    17    15    19   ar
    18    15    16   ar
    19    19    18   ar
    20    21    16    1
    21    16    17   ar
    22    18    17   ar
    23    18    20    1
    24    17    22    1
