@<TRIPOS>MOLECULE
mol_data/opt/m06hf/geoms/mol2/588-4.out
 31 34 0 0 0
SMALL
GASTEIGER

@<TRIPOS>ATOM
      1 C          -2.0481   -1.8634   -0.0015 C.ar    1  LIG1       -0.0236
      2 C          -0.6831   -1.8483   -0.0013 C.ar    1  LIG1       -0.0540
      3 C          -0.1613   -0.5204   -0.0001 C.ar    1  LIG1       -0.0438
      4 C          -1.1544    0.4190    0.0005 C.ar    1  LIG1        0.0598
      5 S          -2.7266   -0.2877   -0.0004 S.2     1  LIG1       -0.0934
      6 H          -2.6960   -2.7251   -0.0024 H       1  LIG1        0.0693
      7 H          -0.0734   -2.7386   -0.0019 H       1  LIG1        0.0623
      8 H           0.8863   -0.2586    0.0004 H       1  LIG1        0.0630
      9 C          -0.9796    1.8687    0.0017 C.ar    1  LIG1        0.2099
     10 N           0.2690    2.3520    0.0024 N.ar    1  LIG1       -0.1246
     11 C          -0.6754    4.3942    0.0037 C.ar    1  LIG1        0.2435
     12 N          -2.0740    2.6358    0.0021 N.ar    1  LIG1       -0.1246
     13 N           0.4220    3.6374    0.0033 N.ar    1  LIG1       -0.1218
     14 N          -1.9197    3.9226    0.0031 N.ar    1  LIG1       -0.1218
     15 C          -0.4948    5.8761    0.0048 C.ar    1  LIG1        0.2435
     16 N          -1.5889    6.6341    0.0051 N.ar    1  LIG1       -0.1218
     17 C          -0.1831    8.4080    0.0065 C.ar    1  LIG1        0.2034
     18 N           0.7503    6.3463    0.0052 N.ar    1  LIG1       -0.1218
     19 N          -1.4284    7.9201    0.0059 N.ar    1  LIG1       -0.1251
     20 N           0.9064    7.6327    0.0061 N.ar    1  LIG1       -0.1251
     21 C           1.2881   10.4149    0.0079 C.ar    1  LIG1       -0.0509
     22 C           1.4556   11.7948    0.0088 C.ar    1  LIG1       -0.0611
     23 C          -0.0014    9.8792    0.0074 C.ar    1  LIG1        0.0226
     24 C           0.3430   12.6336    0.0091 C.ar    1  LIG1       -0.0617
     25 H           2.4527   12.2138    0.0092 H       1  LIG1        0.0618
     26 C          -1.1196   10.7155    0.0077 C.ar    1  LIG1       -0.0509
     27 C          -0.9419   12.0942    0.0086 C.ar    1  LIG1       -0.0611
     28 H          -2.1098   10.2805    0.0073 H       1  LIG1        0.0625
     29 H           0.4769   13.7076    0.0098 H       1  LIG1        0.0618
     30 H           2.1401    9.7490    0.0077 H       1  LIG1        0.0625
     31 H          -1.8051   12.7459    0.0088 H       1  LIG1        0.0618
@<TRIPOS>BOND
     1     6     1    1
     2     7     2    1
     3     1     2   ar
     4     1     5   ar
     5     2     3   ar
     6     5     4   ar
     7     3     8    1
     8     3     4   ar
     9     4     9    1
    10     9    12   ar
    11     9    10   ar
    12    12    14   ar
    13    10    13   ar
    14    14    11   ar
    15    13    11   ar
    16    11    15    1
    17    15    16   ar
    18    15    18   ar
    19    16    19   ar
    20    18    20   ar
    21    19    17   ar
    22    20    17   ar
    23    17    23    1
    24    28    26    1
    25    23    26   ar
    26    23    21   ar
    27    30    21    1
    28    26    27   ar
    29    21    22   ar
    30    27    31    1
    31    27    24   ar
    32    22    24   ar
    33    22    25    1
    34    24    29    1
