@<TRIPOS>MOLECULE
mol_data/opt/m06hf/geoms/mol2/588-13.out
 29 32 0 0 0
SMALL
GASTEIGER

@<TRIPOS>ATOM
      1 C          -2.0773   -1.8319   -0.0011 C.ar    1  LIG1       -0.0236
      2 C          -0.7124   -1.8275   -0.0010 C.ar    1  LIG1       -0.0540
      3 C          -0.1801   -0.5037    0.0001 C.ar    1  LIG1       -0.0438
      4 C          -1.1656    0.4435    0.0007 C.ar    1  LIG1        0.0598
      5 S          -2.7433   -0.2508    0.0002 S.2     1  LIG1       -0.0934
      6 H          -2.7320   -2.6885   -0.0018 H       1  LIG1        0.0693
      7 H          -0.1096   -2.7226   -0.0017 H       1  LIG1        0.0623
      8 H           0.8695   -0.2500    0.0003 H       1  LIG1        0.0630
      9 C          -0.9790    1.8922    0.0018 C.ar    1  LIG1        0.2099
     10 N           0.2732    2.3656    0.0021 N.ar    1  LIG1       -0.1246
     11 C          -0.6541    4.4161    0.0034 C.ar    1  LIG1        0.2435
     12 N          -2.0668    2.6680    0.0022 N.ar    1  LIG1       -0.1246
     13 N           0.4370    3.6495    0.0029 N.ar    1  LIG1       -0.1218
     14 N          -1.9022    3.9536    0.0031 N.ar    1  LIG1       -0.1218
     15 C          -0.4624    5.8954    0.0043 C.ar    1  LIG1        0.2435
     16 N          -1.5497    6.6612    0.0047 N.ar    1  LIG1       -0.1218
     17 C          -0.1252    8.4185    0.0058 C.ar    1  LIG1        0.2194
     18 N           0.7901    6.3575    0.0046 N.ar    1  LIG1       -0.1218
     19 N          -1.3776    7.9457    0.0055 N.ar    1  LIG1       -0.1236
     20 N           0.9661    7.6379    0.0053 N.ar    1  LIG1       -0.1236
     21 C           0.0462    9.8566    0.0066 C.ar    1  LIG1        0.0875
     22 C           1.1869   10.6376    0.0071 C.ar    1  LIG1       -0.0333
     23 C           0.7578   11.9836    0.0077 C.ar    1  LIG1       -0.0437
     24 C          -0.6258   11.9730    0.0078 C.ar    1  LIG1        0.0023
     25 N          -1.0402   10.6850    0.0071 N.ar    1  LIG1       -0.3582
     26 H          -1.9919   10.3473    0.0069 H       1  LIG1        0.1654
     27 H          -1.3309   12.7862    0.0083 H       1  LIG1        0.0807
     28 H           2.1955   10.2601    0.0069 H       1  LIG1        0.0640
     29 H           1.3801   12.8615    0.0080 H       1  LIG1        0.0633
@<TRIPOS>BOND
     1     6     1    1
     2     7     2    1
     3     1     2   ar
     4     1     5   ar
     5     2     3   ar
     6     3     8    1
     7     3     4   ar
     8     5     4   ar
     9     4     9    1
    10     9    10   ar
    11     9    12   ar
    12    10    13   ar
    13    12    14   ar
    14    13    11   ar
    15    14    11   ar
    16    11    15    1
    17    15    18   ar
    18    15    16   ar
    19    18    20   ar
    20    16    19   ar
    21    20    17   ar
    22    19    17   ar
    23    17    21    1
    24    21    25   ar
    25    21    22   ar
    26    26    25    1
    27    28    22    1
    28    25    24   ar
    29    22    23   ar
    30    23    24   ar
    31    23    29    1
    32    24    27    1
