@<TRIPOS>MOLECULE
mol_data/opt/m06hf/geoms/mol2/5aa.out
 9 9 0 0 0
SMALL
GASTEIGER

@<TRIPOS>ATOM
      1 C          -2.0335   -1.7404   -0.0002 C.ar    1  LIG1       -0.0243
      2 C          -0.6740   -1.7207   -0.0004 C.ar    1  LIG1       -0.0547
      3 C          -0.1475   -0.3856   -0.0001 C.ar    1  LIG1       -0.0547
      4 C          -1.1276    0.5568    0.0005 C.ar    1  LIG1       -0.0243
      5 S          -2.6937   -0.1528    0.0006 S.2     1  LIG1       -0.1051
      6 H          -2.6873   -2.5973   -0.0004 H       1  LIG1        0.0693
      7 H          -1.0206    1.6293    0.0009 H       1  LIG1        0.0693
      8 H          -0.0638   -2.6115   -0.0009 H       1  LIG1        0.0623
      9 H           0.9065   -0.1509   -0.0002 H       1  LIG1        0.0623
@<TRIPOS>BOND
     1     8     2    1
     2     2     1   ar
     3     2     3   ar
     4     6     1    1
     5     9     3    1
     6     1     5   ar
     7     3     4   ar
     8     4     5   ar
     9     4     7    1
