@<TRIPOS>MOLECULE
mol_data/opt/m06hf/geoms/mol2/5aa5aa5aa-.out
 23 25 0 0 0
SMALL
GASTEIGER

@<TRIPOS>ATOM
      1 C          -1.9145   -1.9535    0.0281 C.ar    1  LIG1       -0.0237
      2 C          -0.6326   -1.8481   -0.4140 C.ar    1  LIG1       -0.0541
      3 C          -0.1662   -0.4940   -0.4165 C.ar    1  LIG1       -0.0464
      4 C          -1.1071    0.3877    0.0328 C.ar    1  LIG1        0.0259
      5 S          -2.5717   -0.4253    0.4648 S.2     1  LIG1       -0.0961
      6 H          -2.5129   -2.8449    0.1234 H       1  LIG1        0.0693
      7 H          -0.0421   -2.6915   -0.7382 H       1  LIG1        0.0623
      8 H           0.8085   -0.1802   -0.7602 H       1  LIG1        0.0629
      9 C          -0.9521    1.8399    0.1792 C.ar    1  LIG1        0.0265
     10 C           0.1449    2.5036    0.6493 C.ar    1  LIG1       -0.0458
     11 C          -0.0239    3.9223    0.6464 C.ar    1  LIG1       -0.0458
     12 C          -1.2458    4.3083    0.1742 C.ar    1  LIG1        0.0265
     13 S          -2.2006    2.9420   -0.2923 S.2     1  LIG1       -0.0872
     14 H           1.0222    1.9916    1.0163 H       1  LIG1        0.0629
     15 H           0.7085    4.6274    1.0110 H       1  LIG1        0.0629
     16 C          -1.7372    5.6829    0.0220 C.ar    1  LIG1        0.0259
     17 C          -1.0292    6.7590   -0.4310 C.ar    1  LIG1       -0.0464
     18 C          -1.8004    7.9658   -0.4339 C.ar    1  LIG1       -0.0541
     19 C          -3.0716    7.7692    0.0079 C.ar    1  LIG1       -0.0237
     20 S          -3.3521    6.1311    0.4508 S.2     1  LIG1       -0.0961
     21 H          -3.8625    8.4956    0.0997 H       1  LIG1        0.0693
     22 H          -0.0078    6.6815   -0.7735 H       1  LIG1        0.0629
     23 H          -1.4241    8.9230   -0.7616 H       1  LIG1        0.0623
@<TRIPOS>BOND
     1    22    17    1
     2    23    18    1
     3     8     3    1
     4     7     2    1
     5    18    17   ar
     6    18    19   ar
     7    17    16   ar
     8     3     2   ar
     9     3     4   ar
    10     2     1   ar
    11    13    12   ar
    12    13     9   ar
    13    19    21    1
    14    19    20   ar
    15    16    12    1
    16    16    20   ar
    17     1     6    1
    18     1     5   ar
    19     4     9    1
    20     4     5   ar
    21    12    11   ar
    22     9    10   ar
    23    11    10   ar
    24    11    15    1
    25    10    14    1
