@<TRIPOS>MOLECULE
mol_data/opt/m06hf/geoms/mol2/5aa5aa.out
 16 17 0 0 0
SMALL
GASTEIGER

@<TRIPOS>ATOM
      1 C          -1.9801   -1.8389    0.2719 C.ar    1  LIG1       -0.0237
      2 C          -0.7049   -1.8103   -0.2003 C.ar    1  LIG1       -0.0541
      3 C          -0.2118   -0.4748   -0.3592 C.ar    1  LIG1       -0.0464
      4 C          -1.1243    0.4718    0.0074 C.ar    1  LIG1        0.0259
      5 S          -2.5979   -0.2579    0.5503 S.2     1  LIG1       -0.0961
      6 H          -2.5936   -2.7015    0.4746 H       1  LIG1        0.0693
      7 H          -0.1365   -2.6964   -0.4393 H       1  LIG1        0.0623
      8 H           0.7628   -0.2224   -0.7505 H       1  LIG1        0.0629
      9 C          -0.9361    1.9281   -0.0042 C.ar    1  LIG1        0.0259
     10 C           0.1810    2.6125    0.3790 C.ar    1  LIG1       -0.0464
     11 C           0.0462    4.0291    0.2149 C.ar    1  LIG1       -0.0541
     12 C          -1.1722    4.3799   -0.2777 C.ar    1  LIG1       -0.0237
     13 S          -2.1669    3.0072   -0.5693 S.2     1  LIG1       -0.0961
     14 H          -1.5429    5.3696   -0.4885 H       1  LIG1        0.0693
     15 H           1.0530    2.1215    0.7854 H       1  LIG1        0.0629
     16 H           0.8171    4.7422    0.4649 H       1  LIG1        0.0623
@<TRIPOS>BOND
     1     8     3    1
     2    13    12   ar
     3    13     9   ar
     4    14    12    1
     5     7     2    1
     6     3     2   ar
     7     3     4   ar
     8    12    11   ar
     9     2     1   ar
    10     9     4    1
    11     9    10   ar
    12     4     5   ar
    13    11    10   ar
    14    11    16    1
    15     1     6    1
    16     1     5   ar
    17    10    15    1
