@<TRIPOS>MOLECULE
mol_data/opt/m06hf/geoms/mol2/5aa5aa-5aa.out
 23 25 0 0 0
SMALL
GASTEIGER

@<TRIPOS>ATOM
      1 C          -2.0288   -1.9221   -0.0002 C.ar    1  LIG1       -0.0237
      2 C          -0.6692   -1.9061   -0.0007 C.ar    1  LIG1       -0.0541
      3 C          -0.1371   -0.5780   -0.0002 C.ar    1  LIG1       -0.0464
      4 C          -1.1083    0.3844    0.0008 C.ar    1  LIG1        0.0259
      5 S          -2.6851   -0.3318    0.0017 S.2     1  LIG1       -0.0961
      6 H          -2.6868   -2.7756   -0.0005 H       1  LIG1        0.0693
      7 H          -0.0613   -2.7980   -0.0017 H       1  LIG1        0.0623
      8 H           0.9194   -0.3549   -0.0007 H       1  LIG1        0.0629
      9 C          -0.9159    1.8385    0.0014 C.ar    1  LIG1        0.0265
     10 C           0.2699    2.5192    0.0013 C.ar    1  LIG1       -0.0458
     11 C           0.1012    3.9345    0.0020 C.ar    1  LIG1       -0.0458
     12 C          -1.2115    4.3174    0.0026 C.ar    1  LIG1        0.0265
     13 S          -2.2526    2.9362    0.0023 S.2     1  LIG1       -0.0872
     14 H           1.2344    2.0337    0.0009 H       1  LIG1        0.0629
     15 H           0.9245    4.6332    0.0021 H       1  LIG1        0.0629
     16 C          -1.7403    5.6855    0.0033 C.ar    1  LIG1        0.0259
     17 C          -1.0226    6.8492    0.0035 C.ar    1  LIG1       -0.0464
     18 C          -1.8520    8.0150    0.0045 C.ar    1  LIG1       -0.0541
     19 C          -3.1772    7.7109    0.0050 C.ar    1  LIG1       -0.0237
     20 S          -3.4413    6.0109    0.0037 S.2     1  LIG1       -0.0961
     21 H          -4.0174    8.3858    0.0058 H       1  LIG1        0.0693
     22 H           0.0568    6.8808    0.0031 H       1  LIG1        0.0629
     23 H          -1.4708    9.0249    0.0049 H       1  LIG1        0.0623
@<TRIPOS>BOND
     1     7     2    1
     2     2     1   ar
     3     2     3   ar
     4     8     3    1
     5     6     1    1
     6     1     5   ar
     7     3     4   ar
     8     4     9    1
     9     4     5   ar
    10    14    10    1
    11    10     9   ar
    12    10    11   ar
    13     9    13   ar
    14    11    15    1
    15    11    12   ar
    16    13    12   ar
    17    12    16    1
    18    22    17    1
    19    16    17   ar
    20    16    20   ar
    21    17    18   ar
    22    20    19   ar
    23    18    23    1
    24    18    19   ar
    25    19    21    1
