@<TRIPOS>MOLECULE
mol_data/opt/m06hf/geoms/mol2/5aa5aa5aa-5aa.out
 30 33 0 0 0
SMALL
GASTEIGER

@<TRIPOS>ATOM
      1 C          -1.7821   -2.0615    0.1842 C.ar    1  LIG1       -0.0237
      2 C          -0.5087   -1.9454   -0.2805 C.ar    1  LIG1       -0.0541
      3 C          -0.0765   -0.5819   -0.3515 C.ar    1  LIG1       -0.0464
      4 C          -1.0329    0.2964    0.0708 C.ar    1  LIG1        0.0259
      5 S          -2.4713   -0.5310    0.5582 S.2     1  LIG1       -0.0961
      6 H          -2.3576   -2.9615    0.3280 H       1  LIG1        0.0693
      7 H           0.0991   -2.7876   -0.5746 H       1  LIG1        0.0623
      8 H           0.8860   -0.2616   -0.7221 H       1  LIG1        0.0629
      9 C          -0.9076    1.7558    0.1575 C.ar    1  LIG1        0.0265
     10 C           0.1829    2.4584    0.5852 C.ar    1  LIG1       -0.0458
     11 C          -0.0174    3.8721    0.5389 C.ar    1  LIG1       -0.0458
     12 C          -1.2557    4.2158    0.0752 C.ar    1  LIG1        0.0265
     13 S          -2.1888    2.8126   -0.3258 S.2     1  LIG1       -0.0872
     14 H           1.0765    1.9778    0.9551 H       1  LIG1        0.0629
     15 H           0.7048    4.6039    0.8700 H       1  LIG1        0.0629
     16 C          -1.7749    5.5741   -0.1116 C.ar    1  LIG1        0.0265
     17 C          -1.0770    6.6601   -0.5589 C.ar    1  LIG1       -0.0458
     18 C          -1.8724    7.8456   -0.6102 C.ar    1  LIG1       -0.0458
     19 C          -3.1593    7.6367   -0.2026 C.ar    1  LIG1        0.0265
     20 S          -3.4126    5.9916    0.2677 S.2     1  LIG1       -0.0872
     21 H          -0.0460    6.6005   -0.8751 H       1  LIG1        0.0629
     22 H          -1.5238    8.8025   -0.9696 H       1  LIG1        0.0629
     23 C          -4.2294    8.6379   -0.1260 C.ar    1  LIG1        0.0259
     24 C          -4.1115    9.9280    0.3054 C.ar    1  LIG1       -0.0464
     25 C          -5.3434   10.6535    0.2203 C.ar    1  LIG1       -0.0541
     26 C          -6.3611    9.8912   -0.2637 C.ar    1  LIG1       -0.0237
     27 S          -5.8448    8.2944   -0.6391 S.2     1  LIG1       -0.0961
     28 H          -7.3885   10.1766   -0.4210 H       1  LIG1        0.0693
     29 H          -3.1871   10.3312    0.6919 H       1  LIG1        0.0629
     30 H          -5.4587   11.6845    0.5185 H       1  LIG1        0.0623
@<TRIPOS>BOND
     1    22    18    1
     2    21    17    1
     3     8     3    1
     4    27    26   ar
     5    27    23   ar
     6    18    17   ar
     7    18    19   ar
     8     7     2    1
     9    17    16   ar
    10    28    26    1
    11     3     2   ar
    12     3     4   ar
    13    13    12   ar
    14    13     9   ar
    15     2     1   ar
    16    26    25   ar
    17    19    23    1
    18    19    20   ar
    19    23    24   ar
    20    16    12    1
    21    16    20   ar
    22     4     9    1
    23     4     5   ar
    24    12    11   ar
    25     9    10   ar
    26     1     6    1
    27     1     5   ar
    28    25    24   ar
    29    25    30    1
    30    24    29    1
    31    11    10   ar
    32    11    15    1
    33    10    14    1
