@<TRIPOS>MOLECULE
mol_data/opt/m06hf/geoms/mol2/5aa5aa-5aa-5aa-.out
 30 33 0 0 0
SMALL
GASTEIGER

@<TRIPOS>ATOM
      1 C          -1.7815   -2.0625   -0.1767 C.ar    1  LIG1       -0.0237
      2 C          -0.5155   -1.9447    0.3075 C.ar    1  LIG1       -0.0541
      3 C          -0.0840   -0.5810    0.3794 C.ar    1  LIG1       -0.0464
      4 C          -1.0334    0.2956   -0.0618 C.ar    1  LIG1        0.0259
      5 S          -2.4642   -0.5335   -0.5683 S.2     1  LIG1       -0.0961
      6 H          -2.3549   -2.9629   -0.3257 H       1  LIG1        0.0693
      7 H           0.0873   -2.7857    0.6147 H       1  LIG1        0.0623
      8 H           0.8726   -0.2593    0.7637 H       1  LIG1        0.0629
      9 C          -0.9063    1.7547   -0.1529 C.ar    1  LIG1        0.0265
     10 C           0.1910    2.4551   -0.5667 C.ar    1  LIG1       -0.0458
     11 C          -0.0095    3.8690   -0.5297 C.ar    1  LIG1       -0.0458
     12 C          -1.2547    4.2151   -0.0867 C.ar    1  LIG1        0.0265
     13 S          -2.1944    2.8140    0.3059 S.2     1  LIG1       -0.0872
     14 H           1.0901    1.9726   -0.9205 H       1  LIG1        0.0629
     15 H           0.7180    4.5991   -0.8526 H       1  LIG1        0.0629
     16 C          -1.7762    5.5743    0.0862 C.ar    1  LIG1        0.0265
     17 C          -1.0849    6.6621    0.5396 C.ar    1  LIG1       -0.0458
     18 C          -1.8805    7.8480    0.5734 C.ar    1  LIG1       -0.0458
     19 C          -3.1611    7.6378    0.1468 C.ar    1  LIG1        0.0265
     20 S          -3.4077    5.9908   -0.3203 S.2     1  LIG1       -0.0872
     21 H          -0.0589    6.6035    0.8720 H       1  LIG1        0.0629
     22 H          -1.5372    8.8064    0.9340 H       1  LIG1        0.0629
     23 C          -4.2294    8.6390    0.0493 C.ar    1  LIG1        0.0259
     24 C          -4.1044    9.9271   -0.3861 C.ar    1  LIG1       -0.0464
     25 C          -5.3370   10.6535   -0.3232 C.ar    1  LIG1       -0.0541
     26 C          -6.3623    9.8938    0.1487 C.ar    1  LIG1       -0.0237
     27 S          -5.8526    8.2985    0.5392 S.2     1  LIG1       -0.0961
     28 H          -7.3919   10.1803    0.2890 H       1  LIG1        0.0693
     29 H          -3.1740   10.3282   -0.7602 H       1  LIG1        0.0629
     30 H          -5.4474   11.6831   -0.6277 H       1  LIG1        0.0623
@<TRIPOS>BOND
     1    14    10    1
     2    15    11    1
     3    29    24    1
     4    30    25    1
     5     5     1   ar
     6     5     4   ar
     7    10    11   ar
     8    10     9   ar
     9    11    12   ar
    10    24    25   ar
    11    24    23   ar
    12     6     1    1
    13    25    26   ar
    14    20    16   ar
    15    20    19   ar
    16     1     2   ar
    17     9     4    1
    18     9    13   ar
    19    12    16    1
    20    12    13   ar
    21     4     3   ar
    22    23    19    1
    23    23    27   ar
    24    16    17   ar
    25    19    18   ar
    26    26    28    1
    27    26    27   ar
    28     2     3   ar
    29     2     7    1
    30     3     8    1
    31    17    18   ar
    32    17    21    1
    33    18    22    1
