@<TRIPOS>MOLECULE
mol_data/opt/m06hf/geoms/mol2/5aa5aa5aa5aa-.out
 30 33 0 0 0
SMALL
GASTEIGER

@<TRIPOS>ATOM
      1 C          -1.7833   -2.0620    0.1789 C.ar    1  LIG1       -0.0237
      2 C          -0.5116   -1.9455   -0.2906 C.ar    1  LIG1       -0.0541
      3 C          -0.0794   -0.5820   -0.3613 C.ar    1  LIG1       -0.0464
      4 C          -1.0340    0.2959    0.0660 C.ar    1  LIG1        0.0259
      5 S          -2.4706   -0.5319    0.5578 S.2     1  LIG1       -0.0961
      6 H          -2.3584   -2.9620    0.3236 H       1  LIG1        0.0693
      7 H           0.0948   -2.7874   -0.5882 H       1  LIG1        0.0623
      8 H           0.8818   -0.2613   -0.7352 H       1  LIG1        0.0629
      9 C          -0.9080    1.7552    0.1543 C.ar    1  LIG1        0.0265
     10 C           0.1843    2.4569    0.5791 C.ar    1  LIG1       -0.0458
     11 C          -0.0158    3.8707    0.5356 C.ar    1  LIG1       -0.0458
     12 C          -1.2556    4.2154    0.0768 C.ar    1  LIG1        0.0265
     13 S          -2.1905    2.8130   -0.3228 S.2     1  LIG1       -0.0872
     14 H           1.0791    1.9754    0.9451 H       1  LIG1        0.0629
     15 H           0.7078    4.6017    0.8651 H       1  LIG1        0.0629
     16 C          -1.7750    5.5741   -0.1062 C.ar    1  LIG1        0.0265
     17 C          -1.0784    6.6605   -0.5544 C.ar    1  LIG1       -0.0458
     18 C          -1.8736    7.8463   -0.6012 C.ar    1  LIG1       -0.0458
     19 C          -3.1592    7.6373   -0.1894 C.ar    1  LIG1        0.0265
     20 S          -3.4113    5.9916    0.2794 S.2     1  LIG1       -0.0872
     21 H          -0.0485    6.6011   -0.8743 H       1  LIG1        0.0629
     22 H          -1.5260    8.8037   -0.9604 H       1  LIG1        0.0629
     23 C          -4.2286    8.6387   -0.1076 C.ar    1  LIG1        0.0259
     24 C          -4.1089    9.9281    0.3256 C.ar    1  LIG1       -0.0464
     25 C          -5.3406   10.6542    0.2458 C.ar    1  LIG1       -0.0541
     26 C          -6.3602    9.8931   -0.2363 C.ar    1  LIG1       -0.0237
     27 S          -5.8458    8.2967   -0.6162 S.2     1  LIG1       -0.0961
     28 H          -7.3880   10.1792   -0.3899 H       1  LIG1        0.0693
     29 H          -3.1831   10.3302    0.7098 H       1  LIG1        0.0629
     30 H          -5.4547   11.6847    0.5460 H       1  LIG1        0.0623
@<TRIPOS>BOND
     1    22    18    1
     2    21    17    1
     3     8     3    1
     4    27    26   ar
     5    27    23   ar
     6    18    17   ar
     7    18    19   ar
     8     7     2    1
     9    17    16   ar
    10    28    26    1
    11     3     2   ar
    12     3     4   ar
    13    13    12   ar
    14    13     9   ar
    15     2     1   ar
    16    26    25   ar
    17    19    23    1
    18    19    20   ar
    19    23    24   ar
    20    16    12    1
    21    16    20   ar
    22     4     9    1
    23     4     5   ar
    24    12    11   ar
    25     9    10   ar
    26     1     6    1
    27     1     5   ar
    28    25    24   ar
    29    25    30    1
    30    24    29    1
    31    11    10   ar
    32    11    15    1
    33    10    14    1
