@<TRIPOS>MOLECULE
mol_data/opt/m06hf/geoms/mol2/5aa5aa-5aa5aa.out
 30 33 0 0 0
SMALL
GASTEIGER

@<TRIPOS>ATOM
      1 C          -1.8184   -2.0616    0.2669 C.ar    1  LIG1       -0.0237
      2 C          -0.5634   -1.9588   -0.2483 C.ar    1  LIG1       -0.0541
      3 C          -0.1254   -0.5991   -0.3500 C.ar    1  LIG1       -0.0464
      4 C          -1.0589    0.2899    0.1003 C.ar    1  LIG1        0.0259
      5 S          -2.4825   -0.5227    0.6518 S.2     1  LIG1       -0.0961
      6 H          -2.3937   -2.9560    0.4421 H       1  LIG1        0.0693
      7 H           0.0270   -2.8081   -0.5571 H       1  LIG1        0.0623
      8 H           0.8240   -0.2892   -0.7610 H       1  LIG1        0.0629
      9 C          -0.9208    1.7492    0.1672 C.ar    1  LIG1        0.0265
     10 C           0.1901    2.4485    0.5451 C.ar    1  LIG1       -0.0458
     11 C          -0.0026    3.8630    0.4922 C.ar    1  LIG1       -0.0458
     12 C          -1.2557    4.2106    0.0733 C.ar    1  LIG1        0.0265
     13 S          -2.2128    2.8100   -0.2769 S.2     1  LIG1       -0.0872
     14 H           1.0942    1.9653    0.8850 H       1  LIG1        0.0629
     15 H           0.7366    4.5930    0.7875 H       1  LIG1        0.0629
     16 C          -1.7728    5.5705   -0.1071 C.ar    1  LIG1        0.0265
     17 C          -1.0857    6.6472   -0.5922 C.ar    1  LIG1       -0.0458
     18 C          -1.8747    7.8376   -0.6248 C.ar    1  LIG1       -0.0458
     19 C          -3.1462    7.6418   -0.1656 C.ar    1  LIG1        0.0265
     20 S          -3.3919    6.0032    0.3309 S.2     1  LIG1       -0.0872
     21 H          -0.0681    6.5773   -0.9475 H       1  LIG1        0.0629
     22 H          -1.5341    8.7885   -1.0071 H       1  LIG1        0.0629
     23 C          -4.2059    8.6511   -0.0579 C.ar    1  LIG1        0.0259
     24 C          -4.0629    9.9445    0.3557 C.ar    1  LIG1       -0.0464
     25 C          -5.2923   10.6777    0.3109 C.ar    1  LIG1       -0.0541
     26 C          -6.3329    9.9179   -0.1259 C.ar    1  LIG1       -0.0237
     27 S          -5.8422    8.3139   -0.5049 S.2     1  LIG1       -0.0961
     28 H          -7.3637   10.2089   -0.2464 H       1  LIG1        0.0693
     29 H          -3.1217   10.3449    0.7022 H       1  LIG1        0.0629
     30 H          -5.3893   11.7123    0.6029 H       1  LIG1        0.0623
@<TRIPOS>BOND
     1    22    18    1
     2    21    17    1
     3     8     3    1
     4    18    17   ar
     5    18    19   ar
     6    17    16   ar
     7     7     2    1
     8    27    26   ar
     9    27    23   ar
    10     3     2   ar
    11     3     4   ar
    12    13    12   ar
    13    13     9   ar
    14     2     1   ar
    15    28    26    1
    16    19    23    1
    17    19    20   ar
    18    26    25   ar
    19    16    12    1
    20    16    20   ar
    21    23    24   ar
    22    12    11   ar
    23     4     9    1
    24     4     5   ar
    25     9    10   ar
    26     1     6    1
    27     1     5   ar
    28    25    24   ar
    29    25    30    1
    30    24    29    1
    31    11    10   ar
    32    11    15    1
    33    10    14    1
