@<TRIPOS>MOLECULE
mol_data/opt/m06hf/geoms/mol2/5aa5aa-5aa5aa-.out
 30 33 0 0 0
SMALL
GASTEIGER

@<TRIPOS>ATOM
      1 C          -1.9850   -1.9936    0.0001 C.ar    1  LIG1       -0.0237
      2 C          -0.6251   -1.9794   -0.0007 C.ar    1  LIG1       -0.0541
      3 C          -0.0921   -0.6519   -0.0004 C.ar    1  LIG1       -0.0464
      4 C          -1.0635    0.3109    0.0007 C.ar    1  LIG1        0.0259
      5 S          -2.6395   -0.4042    0.0014 S.2     1  LIG1       -0.0961
      6 H          -2.6442   -2.8458    0.0000 H       1  LIG1        0.0693
      7 H          -0.0179   -2.8722   -0.0015 H       1  LIG1        0.0623
      8 H           0.9646   -0.4305   -0.0009 H       1  LIG1        0.0629
      9 C          -0.8711    1.7656    0.0013 C.ar    1  LIG1        0.0265
     10 C           0.3151    2.4459    0.0011 C.ar    1  LIG1       -0.0458
     11 C           0.1462    3.8612    0.0018 C.ar    1  LIG1       -0.0458
     12 C          -1.1666    4.2439    0.0025 C.ar    1  LIG1        0.0265
     13 S          -2.2098    2.8616    0.0023 S.2     1  LIG1       -0.0872
     14 H           1.2788    1.9594    0.0005 H       1  LIG1        0.0629
     15 H           0.9681    4.5612    0.0018 H       1  LIG1        0.0629
     16 C          -1.6906    5.6121    0.0033 C.ar    1  LIG1        0.0265
     17 C          -0.9695    6.7739    0.0036 C.ar    1  LIG1       -0.0458
     18 C          -1.7893    7.9399    0.0045 C.ar    1  LIG1       -0.0458
     19 C          -3.1265    7.6536    0.0050 C.ar    1  LIG1        0.0265
     20 S          -3.3903    5.9438    0.0042 S.2     1  LIG1       -0.0872
     21 H           0.1098    6.8021    0.0031 H       1  LIG1        0.0629
     22 H          -1.3972    8.9457    0.0049 H       1  LIG1        0.0629
     23 C          -4.2415    8.6076    0.0060 C.ar    1  LIG1        0.0259
     24 C          -4.1618    9.9729    0.0066 C.ar    1  LIG1       -0.0464
     25 C          -5.4452   10.6047    0.0076 C.ar    1  LIG1       -0.0541
     26 C          -6.4666    9.7067    0.0078 C.ar    1  LIG1       -0.0237
     27 S          -5.8919    8.0869    0.0065 S.2     1  LIG1       -0.0961
     28 H          -7.5265    9.9005    0.0085 H       1  LIG1        0.0693
     29 H          -3.2276   10.5141    0.0063 H       1  LIG1        0.0629
     30 H          -5.5899   11.6747    0.0082 H       1  LIG1        0.0623
@<TRIPOS>BOND
     1     7     2    1
     2     8     3    1
     3     2     3   ar
     4     2     1   ar
     5     3     4   ar
     6     6     1    1
     7     1     5   ar
     8    14    10    1
     9     4     9    1
    10     4     5   ar
    11    10     9   ar
    12    10    11   ar
    13     9    13   ar
    14    15    11    1
    15    11    12   ar
    16    13    12   ar
    17    12    16    1
    18    21    17    1
    19    16    17   ar
    20    16    20   ar
    21    17    18   ar
    22    20    19   ar
    23    18    22    1
    24    18    19   ar
    25    19    23    1
    26    23    27   ar
    27    23    24   ar
    28    29    24    1
    29    27    26   ar
    30    24    25   ar
    31    25    26   ar
    32    25    30    1
    33    26    28    1
