@<TRIPOS>MOLECULE
mol_data/opt/m06hf/geoms/mol2/5aa5aa5aa-5aa-.out
 30 33 0 0 0
SMALL
GASTEIGER

@<TRIPOS>ATOM
      1 C          -1.8414   -2.0234    0.2241 C.ar    1  LIG1       -0.0237
      2 C          -0.5170   -1.9089    0.5143 C.ar    1  LIG1       -0.0541
      3 C          -0.0528   -0.5574    0.4216 C.ar    1  LIG1       -0.0464
      4 C          -1.0377    0.3137    0.0523 C.ar    1  LIG1        0.0259
      5 S          -2.5425   -0.5066   -0.1826 S.2     1  LIG1       -0.0961
      6 H          -2.4483   -2.9144    0.2265 H       1  LIG1        0.0693
      7 H           0.1073   -2.7432    0.7963 H       1  LIG1        0.0623
      8 H           0.9550   -0.2384    0.6441 H       1  LIG1        0.0629
      9 C          -0.9038    1.7587   -0.1602 C.ar    1  LIG1        0.0265
     10 C           0.1447    2.4108   -0.7449 C.ar    1  LIG1       -0.0458
     11 C          -0.0387    3.8270   -0.7868 C.ar    1  LIG1       -0.0458
     12 C          -1.2229    4.2234   -0.2317 C.ar    1  LIG1        0.0265
     13 S          -2.1203    2.8710    0.3667 S.2     1  LIG1       -0.0872
     14 H           0.9934    1.8905   -1.1638 H       1  LIG1        0.0629
     15 H           0.6527    4.5199   -1.2430 H       1  LIG1        0.0629
     16 C          -1.7230    5.5966   -0.1121 C.ar    1  LIG1        0.0265
     17 C          -0.9899    6.7185    0.1536 C.ar    1  LIG1       -0.0458
     18 C          -1.7810    7.9083    0.1543 C.ar    1  LIG1       -0.0458
     19 C          -3.1035    7.6645   -0.0865 C.ar    1  LIG1        0.0265
     20 S          -3.3966    5.9787   -0.3381 S.2     1  LIG1       -0.0872
     21 H           0.0714    6.6888    0.3518 H       1  LIG1        0.0629
     22 H          -1.3908    8.9032    0.3108 H       1  LIG1        0.0629
     23 C          -4.1893    8.6510   -0.1302 C.ar    1  LIG1        0.0259
     24 C          -4.3498    9.7353    0.6841 C.ar    1  LIG1       -0.0464
     25 C          -5.5026   10.5145    0.3440 C.ar    1  LIG1       -0.0541
     26 C          -6.1881    9.9945   -0.7094 C.ar    1  LIG1       -0.0237
     27 S          -5.4442    8.5678   -1.3178 S.2     1  LIG1       -0.0961
     28 H          -7.0915   10.3675   -1.1638 H       1  LIG1        0.0693
     29 H          -3.6839    9.9510    1.5068 H       1  LIG1        0.0629
     30 H          -5.8039   11.4082    0.8693 H       1  LIG1        0.0623
@<TRIPOS>BOND
     1    27    26   ar
     2    27    23   ar
     3    15    11    1
     4    14    10    1
     5    28    26    1
     6    11    10   ar
     7    11    12   ar
     8    10     9   ar
     9    26    25   ar
    10    20    16   ar
    11    20    19   ar
    12    12    16    1
    13    12    13   ar
    14     5     4   ar
    15     5     1   ar
    16     9     4    1
    17     9    13   ar
    18    23    19    1
    19    23    24   ar
    20    16    17   ar
    21    19    18   ar
    22     4     3   ar
    23    17    18   ar
    24    17    21    1
    25    18    22    1
    26     1     6    1
    27     1     2   ar
    28    25    24   ar
    29    25    30    1
    30     3     2   ar
    31     3     8    1
    32     2     7    1
    33    24    29    1
