@<TRIPOS>MOLECULE
mol_data/opt/m06hf/geoms/mol2/5aa5aa5aa.out
 23 25 0 0 0
SMALL
GASTEIGER

@<TRIPOS>ATOM
      1 C          -1.9135   -1.9535    0.0440 C.ar    1  LIG1       -0.0237
      2 C          -0.6352   -1.8490   -0.4084 C.ar    1  LIG1       -0.0541
      3 C          -0.1689   -0.4949   -0.4178 C.ar    1  LIG1       -0.0464
      4 C          -1.1063    0.3878    0.0368 C.ar    1  LIG1        0.0259
      5 S          -2.5675   -0.4243    0.4821 S.2     1  LIG1       -0.0961
      6 H          -2.5110   -2.8447    0.1462 H       1  LIG1        0.0693
      7 H          -0.0471   -2.6932   -0.7352 H       1  LIG1        0.0623
      8 H           0.8030   -0.1819   -0.7700 H       1  LIG1        0.0629
      9 C          -0.9503    1.8403    0.1783 C.ar    1  LIG1        0.0265
     10 C           0.1504    2.5054    0.6376 C.ar    1  LIG1       -0.0458
     11 C          -0.0186    3.9241    0.6327 C.ar    1  LIG1       -0.0458
     12 C          -1.2445    4.3087    0.1698 C.ar    1  LIG1        0.0265
     13 S          -2.2029    2.9412   -0.2854 S.2     1  LIG1       -0.0872
     14 H           1.0308    1.9944    0.9986 H       1  LIG1        0.0629
     15 H           0.7167    4.6301    0.9894 H       1  LIG1        0.0629
     16 C          -1.7373    5.6829    0.0185 C.ar    1  LIG1        0.0259
     17 C          -1.0335    6.7579   -0.4435 C.ar    1  LIG1       -0.0464
     18 C          -1.8048    7.9646   -0.4426 C.ar    1  LIG1       -0.0541
     19 C          -3.0720    7.7690    0.0110 C.ar    1  LIG1       -0.0237
     20 S          -3.3485    6.1321    0.4605 S.2     1  LIG1       -0.0961
     21 H          -3.8622    8.4956    0.1080 H       1  LIG1        0.0693
     22 H          -0.0152    6.6796   -0.7949 H       1  LIG1        0.0629
     23 H          -1.4316    8.9210   -0.7760 H       1  LIG1        0.0623
@<TRIPOS>BOND
     1    22    17    1
     2    23    18    1
     3     8     3    1
     4     7     2    1
     5    17    18   ar
     6    17    16   ar
     7    18    19   ar
     8     3     2   ar
     9     3     4   ar
    10     2     1   ar
    11    13    12   ar
    12    13     9   ar
    13    19    21    1
    14    19    20   ar
    15    16    12    1
    16    16    20   ar
    17     4     9    1
    18     4     5   ar
    19     1     6    1
    20     1     5   ar
    21    12    11   ar
    22     9    10   ar
    23    11    10   ar
    24    11    15    1
    25    10    14    1
