@<TRIPOS>MOLECULE
mol_data/opt/m06hf/geoms/mol2/5aa5aa-5aa-.out
 23 25 0 0 0
SMALL
GASTEIGER

@<TRIPOS>ATOM
      1 C          -1.9113   -1.9536   -0.0655 C.ar    1  LIG1       -0.0237
      2 C          -0.6405   -1.8493    0.4079 C.ar    1  LIG1       -0.0541
      3 C          -0.1749   -0.4951    0.4266 C.ar    1  LIG1       -0.0464
      4 C          -1.1050    0.3879   -0.0421 C.ar    1  LIG1        0.0259
      5 S          -2.5584   -0.4241   -0.5124 S.2     1  LIG1       -0.0961
      6 H          -2.5068   -2.8449   -0.1785 H       1  LIG1        0.0693
      7 H          -0.0577   -2.6937    0.7432 H       1  LIG1        0.0623
      8 H           0.7910   -0.1823    0.7950 H       1  LIG1        0.0629
      9 C          -0.9472    1.8406   -0.1794 C.ar    1  LIG1        0.0265
     10 C           0.1607    2.5065   -0.6200 C.ar    1  LIG1       -0.0458
     11 C          -0.0088    3.9252   -0.6161 C.ar    1  LIG1       -0.0458
     12 C          -1.2421    4.3089   -0.1725 C.ar    1  LIG1        0.0265
     13 S          -2.2073    2.9406    0.2656 S.2     1  LIG1       -0.0872
     14 H           1.0469    1.9962   -0.9674 H       1  LIG1        0.0629
     15 H           0.7320    4.6318   -0.9601 H       1  LIG1        0.0629
     16 C          -1.7376    5.6828   -0.0273 C.ar    1  LIG1        0.0259
     17 C          -1.0415    6.7575    0.4470 C.ar    1  LIG1       -0.0464
     18 C          -1.8131    7.9639    0.4354 C.ar    1  LIG1       -0.0541
     19 C          -3.0729    7.7685   -0.0384 C.ar    1  LIG1       -0.0237
     20 S          -3.3418    6.1320   -0.4941 S.2     1  LIG1       -0.0961
     21 H          -3.8617    8.4950   -0.1469 H       1  LIG1        0.0693
     22 H          -0.0288    6.6790    0.8143 H       1  LIG1        0.0629
     23 H          -1.4453    8.9200    0.7757 H       1  LIG1        0.0623
@<TRIPOS>BOND
     1    14    10    1
     2    15    11    1
     3    10    11   ar
     4    10     9   ar
     5    11    12   ar
     6     5     1   ar
     7     5     4   ar
     8    20    19   ar
     9    20    16   ar
    10     9     4    1
    11     9    13   ar
    12     6     1    1
    13    12    16    1
    14    12    13   ar
    15    21    19    1
    16     1     2   ar
    17     4     3   ar
    18    19    18   ar
    19    16    17   ar
    20     2     3   ar
    21     2     7    1
    22     3     8    1
    23    18    17   ar
    24    18    23    1
    25    17    22    1
