@<TRIPOS>MOLECULE
mol_data/opt/m06hf/geoms/mol2/5aa5aa-.out
 16 17 0 0 0
SMALL
GASTEIGER

@<TRIPOS>ATOM
      1 C          -2.0446   -1.8363   -0.0002 C.ar    1  LIG1       -0.0237
      2 C          -0.6853   -1.8179   -0.0005 C.ar    1  LIG1       -0.0541
      3 C          -0.1567   -0.4875   -0.0000 C.ar    1  LIG1       -0.0464
      4 C          -1.1294    0.4719    0.0007 C.ar    1  LIG1        0.0259
      5 S          -2.7044   -0.2482    0.0011 S.2     1  LIG1       -0.0961
      6 H          -2.6997   -2.6919   -0.0004 H       1  LIG1        0.0693
      7 H          -0.0751   -2.7083   -0.0012 H       1  LIG1        0.0623
      8 H           0.8989   -0.2605   -0.0003 H       1  LIG1        0.0629
      9 C          -0.9411    1.9293    0.0012 C.ar    1  LIG1        0.0259
     10 C           0.2435    2.6100    0.0013 C.ar    1  LIG1       -0.0464
     11 C           0.0703    4.0310    0.0020 C.ar    1  LIG1       -0.0541
     12 C          -1.2397    4.3943    0.0025 C.ar    1  LIG1       -0.0237
     13 S          -2.2814    3.0261    0.0018 S.2     1  LIG1       -0.0961
     14 H          -1.6558    5.3883    0.0031 H       1  LIG1        0.0693
     15 H           1.2067    2.1222    0.0009 H       1  LIG1        0.0629
     16 H           0.8868    4.7372    0.0022 H       1  LIG1        0.0623
@<TRIPOS>BOND
     1     7     2    1
     2     2     1   ar
     3     2     3   ar
     4     6     1    1
     5     8     3    1
     6     1     5   ar
     7     3     4   ar
     8     4     5   ar
     9     4     9    1
    10    15    10    1
    11     9    10   ar
    12     9    13   ar
    13    10    11   ar
    14    13    12   ar
    15    11    16    1
    16    11    12   ar
    17    12    14    1
