@<TRIPOS>MOLECULE
mol_data/opt/m06hf/geoms/mol2/5aa5aa5aa5aa.out
 30 33 0 0 0
SMALL
GASTEIGER

@<TRIPOS>ATOM
      1 C          -1.7839   -2.0622    0.1731 C.ar    1  LIG1       -0.0237
      2 C          -0.5111   -1.9452   -0.2931 C.ar    1  LIG1       -0.0541
      3 C          -0.0786   -0.5816   -0.3612 C.ar    1  LIG1       -0.0464
      4 C          -1.0342    0.2958    0.0647 C.ar    1  LIG1        0.0259
      5 S          -2.4721   -0.5324    0.5520 S.2     1  LIG1       -0.0961
      6 H          -2.3594   -2.9623    0.3154 H       1  LIG1        0.0693
      7 H           0.0960   -2.7868   -0.5902 H       1  LIG1        0.0623
      8 H           0.8835   -0.2606   -0.7324 H       1  LIG1        0.0629
      9 C          -0.9084    1.7550    0.1550 C.ar    1  LIG1        0.0265
     10 C           0.1829    2.4562    0.5831 C.ar    1  LIG1       -0.0458
     11 C          -0.0170    3.8700    0.5408 C.ar    1  LIG1       -0.0458
     12 C          -1.2558    4.2153    0.0797 C.ar    1  LIG1        0.0265
     13 S          -2.1898    2.8134   -0.3238 S.2     1  LIG1       -0.0872
     14 H           1.0769    1.9743    0.9506 H       1  LIG1        0.0629
     15 H           0.7058    4.6007    0.8728 H       1  LIG1        0.0629
     16 C          -1.7748    5.5742   -0.1029 C.ar    1  LIG1        0.0265
     17 C          -1.0772    6.6612   -0.5483 C.ar    1  LIG1       -0.0458
     18 C          -1.8723    7.8471   -0.5954 C.ar    1  LIG1       -0.0458
     19 C          -3.1587    7.6375   -0.1866 C.ar    1  LIG1        0.0265
     20 S          -3.4119    5.9912    0.2797 S.2     1  LIG1       -0.0872
     21 H          -0.0466    6.6021   -0.8660 H       1  LIG1        0.0629
     22 H          -1.5239    8.8048   -0.9527 H       1  LIG1        0.0629
     23 C          -4.2284    8.6388   -0.1060 C.ar    1  LIG1        0.0259
     24 C          -4.1096    9.9277    0.3289 C.ar    1  LIG1       -0.0464
     25 C          -5.3412   10.6538    0.2474 C.ar    1  LIG1       -0.0541
     26 C          -6.3598    9.8933   -0.2376 C.ar    1  LIG1       -0.0237
     27 S          -5.8445    8.2974   -0.6183 S.2     1  LIG1       -0.0961
     28 H          -7.3872   10.1794   -0.3929 H       1  LIG1        0.0693
     29 H          -3.1846   10.3294    0.7155 H       1  LIG1        0.0629
     30 H          -5.4559   11.6840    0.5486 H       1  LIG1        0.0623
@<TRIPOS>BOND
     1    22    18    1
     2    21    17    1
     3     8     3    1
     4    27    26   ar
     5    27    23   ar
     6    18    17   ar
     7    18    19   ar
     8     7     2    1
     9    17    16   ar
    10    28    26    1
    11     3     2   ar
    12     3     4   ar
    13    13    12   ar
    14    13     9   ar
    15     2     1   ar
    16    26    25   ar
    17    19    23    1
    18    19    20   ar
    19    23    24   ar
    20    16    12    1
    21    16    20   ar
    22     4     9    1
    23     4     5   ar
    24    12    11   ar
    25     9    10   ar
    26     1     6    1
    27     1     5   ar
    28    25    24   ar
    29    25    30    1
    30    24    29    1
    31    11    10   ar
    32    11    15    1
    33    10    14    1
