@<TRIPOS>MOLECULE
mol_data/opt/m06hf/geoms/mol2/5ad.out
 10 10 0 0 0
SMALL
GASTEIGER

@<TRIPOS>ATOM
      1 C          -2.0825   -1.7551   -0.0001 C.ar    1  LIG1       -0.0231
      2 C          -0.7250   -1.7446   -0.0005 C.ar    1  LIG1       -0.0373
      3 C          -0.2085   -0.4039   -0.0002 C.ar    1  LIG1        0.0588
      4 C          -1.1863    0.5488    0.0005 C.ar    1  LIG1       -0.0070
      5 S          -2.7403   -0.1632    0.0009 S.2     1  LIG1       -0.1038
      6 H          -2.7384   -2.6102   -0.0002 H       1  LIG1        0.0694
      7 H          -1.0563    1.6189    0.0008 H       1  LIG1        0.0706
      8 H          -0.1005   -2.6241   -0.0011 H       1  LIG1        0.0636
      9 N           2.3185    0.1615   -0.0010 N.1     1  LIG1       -0.1909
     10 C           1.1978   -0.0851   -0.0007 C.1     1  LIG1        0.0997
@<TRIPOS>BOND
     1     8     2    1
     2     9    10    3
     3    10     3    1
     4     2     3   ar
     5     2     1   ar
     6     3     4   ar
     7     6     1    1
     8     1     5   ar
     9     4     7    1
    10     4     5   ar
