@<TRIPOS>MOLECULE
mol_data/opt/m06hf/geoms/mol2/5ad5ad5ad.out
 26 28 0 0 0
SMALL
GASTEIGER

@<TRIPOS>ATOM
      1 C          -2.0503   -1.9323    0.0289 C.ar    1  LIG1       -0.0225
      2 C          -0.7372   -1.9127   -0.3142 C.ar    1  LIG1       -0.0367
      3 C          -0.2035   -0.5822   -0.2942 C.ar    1  LIG1        0.0670
      4 C          -1.1235    0.3703    0.0711 C.ar    1  LIG1        0.0433
      5 S          -2.6472   -0.3616    0.3966 S.2     1  LIG1       -0.0948
      6 H          -2.7061   -2.7853    0.0931 H       1  LIG1        0.0694
      7 H          -0.1555   -2.7811   -0.5806 H       1  LIG1        0.0636
      8 N           2.2496   -0.0235   -0.8970 N.1     1  LIG1       -0.1908
      9 C           1.1589   -0.2698   -0.6380 C.1     1  LIG1        0.1003
     10 C          -0.9185    1.8166    0.1853 C.ar    1  LIG1        0.0290
     11 C           0.2255    2.4702    0.5400 C.ar    1  LIG1       -0.0284
     12 C           0.0500    3.8891    0.5379 C.ar    1  LIG1        0.0676
     13 C          -1.2158    4.2879    0.1842 C.ar    1  LIG1        0.0439
     14 S          -2.1993    2.9244   -0.1779 S.2     1  LIG1       -0.0859
     15 H           1.1526    1.9848    0.8064 H       1  LIG1        0.0642
     16 N           1.9260    5.5557    1.1708 N.1     1  LIG1       -0.1908
     17 C           1.0911    4.8171    0.8978 C.1     1  LIG1        0.1003
     18 C          -1.7286    5.6562    0.0792 C.ar    1  LIG1        0.0284
     19 C          -1.0548    6.7592   -0.3586 C.ar    1  LIG1       -0.0290
     20 C          -1.8805    7.9288   -0.3196 C.ar    1  LIG1        0.0594
     21 C          -3.1444    7.6830    0.1369 C.ar    1  LIG1       -0.0063
     22 S          -3.3526    6.0379    0.5439 S.2     1  LIG1       -0.0948
     23 H          -3.9466    8.3937    0.2540 H       1  LIG1        0.0706
     24 H          -0.0313    6.7546   -0.7025 H       1  LIG1        0.0642
     25 N          -1.0935   10.2767   -1.0755 N.1     1  LIG1       -0.1909
     26 C          -1.4417    9.2375   -0.7373 C.1     1  LIG1        0.0997
@<TRIPOS>BOND
     1    25    26    3
     2     8     9    3
     3    26    20    1
     4    24    19    1
     5     9     3    1
     6     7     2    1
     7    19    20   ar
     8    19    18   ar
     9    20    21   ar
    10     2     3   ar
    11     2     1   ar
    12     3     4   ar
    13    14    13   ar
    14    14    10   ar
    15     1     6    1
    16     1     5   ar
    17     4    10    1
    18     4     5   ar
    19    18    13    1
    20    18    22   ar
    21    21    23    1
    22    21    22   ar
    23    13    12   ar
    24    10    11   ar
    25    12    11   ar
    26    12    17    1
    27    11    15    1
    28    17    16    3
