@<TRIPOS>MOLECULE
mol_data/opt/m06hf/geoms/mol2/5ad5ad-.out
 18 19 0 0 0
SMALL
GASTEIGER

@<TRIPOS>ATOM
      1 C          -2.1128   -1.8375    0.0002 C.ar    1  LIG1       -0.0225
      2 C          -0.7578   -1.8661   -0.0006 C.ar    1  LIG1       -0.0367
      3 C          -0.1966   -0.5457   -0.0003 C.ar    1  LIG1        0.0670
      4 C          -1.1400    0.4548    0.0007 C.ar    1  LIG1        0.0432
      5 S          -2.7219   -0.2286    0.0013 S.2     1  LIG1       -0.0948
      6 H          -2.7967   -2.6700    0.0002 H       1  LIG1        0.0694
      7 H          -0.1574   -2.7625   -0.0013 H       1  LIG1        0.0636
      8 N           2.3574   -0.1360   -0.0016 N.1     1  LIG1       -0.1908
      9 C           1.2230   -0.3135   -0.0010 C.1     1  LIG1        0.1003
     10 C          -0.9427    1.9096    0.0012 C.ar    1  LIG1        0.0284
     11 C           0.2319    2.6086    0.0012 C.ar    1  LIG1       -0.0290
     12 C           0.0067    4.0231    0.0018 C.ar    1  LIG1        0.0594
     13 C          -1.3154    4.3620    0.0023 C.ar    1  LIG1       -0.0063
     14 S          -2.3110    2.9753    0.0020 S.2     1  LIG1       -0.0948
     15 H          -1.7393    5.3530    0.0028 H       1  LIG1        0.0706
     16 H           1.2156    2.1651    0.0007 H       1  LIG1        0.0642
     17 N           1.9078    5.7807    0.0020 N.1     1  LIG1       -0.1909
     18 C           1.0650    5.0027    0.0019 C.1     1  LIG1        0.0997
@<TRIPOS>BOND
     1     8     9    3
     2     7     2    1
     3     9     3    1
     4     2     3   ar
     5     2     1   ar
     6     3     4   ar
     7     1     6    1
     8     1     5   ar
     9     4    10    1
    10     4     5   ar
    11    16    11    1
    12    11    10   ar
    13    11    12   ar
    14    10    14   ar
    15    12    18    1
    16    12    13   ar
    17    18    17    3
    18    14    13   ar
    19    13    15    1
