@<TRIPOS>MOLECULE
mol_data/opt/m06hf/geoms/mol2/5ad5ad5ad5ad-.out
 34 37 0 0 0
SMALL
GASTEIGER

@<TRIPOS>ATOM
      1 C          -2.0158   -1.9926    0.1120 C.ar    1  LIG1       -0.0225
      2 C          -0.6935   -1.9907   -0.1962 C.ar    1  LIG1       -0.0367
      3 C          -0.1552   -0.6621   -0.2117 C.ar    1  LIG1        0.0670
      4 C          -1.0811    0.3057    0.0929 C.ar    1  LIG1        0.0433
      5 S          -2.6157   -0.4080    0.4046 S.2     1  LIG1       -0.0948
      6 H          -2.6771   -2.8399    0.1902 H       1  LIG1        0.0694
      7 H          -0.1076   -2.8701   -0.4143 H       1  LIG1        0.0636
      8 N           2.3180   -0.1357   -0.7608 N.1     1  LIG1       -0.1908
      9 C           1.2182   -0.3665   -0.5263 C.1     1  LIG1        0.1003
     10 C          -0.8728    1.7540    0.1691 C.ar    1  LIG1        0.0290
     11 C           0.2564    2.4142    0.5586 C.ar    1  LIG1       -0.0284
     12 C           0.0845    3.8332    0.5138 C.ar    1  LIG1        0.0676
     13 C          -1.1630    4.2239    0.0915 C.ar    1  LIG1        0.0439
     14 S          -2.1339    2.8520   -0.2790 S.2     1  LIG1       -0.0859
     15 H           1.1680    1.9332    0.8807 H       1  LIG1        0.0642
     16 N           1.9191    5.5193    1.2111 N.1     1  LIG1       -0.1908
     17 C           1.1052    4.7697    0.9072 C.1     1  LIG1        0.1003
     18 C          -1.6685    5.5880   -0.0694 C.ar    1  LIG1        0.0290
     19 C          -0.9706    6.6890   -0.4706 C.ar    1  LIG1       -0.0284
     20 C          -1.8001    7.8526   -0.5258 C.ar    1  LIG1        0.0676
     21 C          -3.1047    7.6174   -0.1650 C.ar    1  LIG1        0.0439
     22 S          -3.3241    5.9682    0.2737 S.2     1  LIG1       -0.0859
     23 H           0.0765    6.6874   -0.7352 H       1  LIG1        0.0642
     24 N          -0.9564   10.1753   -1.2920 N.1     1  LIG1       -0.1908
     25 C          -1.3291    9.1431   -0.9572 C.1     1  LIG1        0.1003
     26 C          -4.2117    8.5758   -0.1237 C.ar    1  LIG1        0.0284
     27 C          -4.1492    9.9005    0.2004 C.ar    1  LIG1       -0.0290
     28 C          -5.4363   10.5229    0.1183 C.ar    1  LIG1        0.0594
     29 C          -6.4298    9.6631   -0.2557 C.ar    1  LIG1       -0.0063
     30 S          -5.8241    8.0906   -0.5310 S.2     1  LIG1       -0.0948
     31 H          -7.4762    9.8883   -0.3853 H       1  LIG1        0.0706
     32 H          -3.2483   10.4198    0.4911 H       1  LIG1        0.0642
     33 N          -5.8718   13.0200    0.6478 N.1     1  LIG1       -0.1909
     34 C          -5.6779   11.9141    0.4120 C.1     1  LIG1        0.0997
@<TRIPOS>BOND
     1    24    25    3
     2    25    20    1
     3     8     9    3
     4    23    19    1
     5    30    29   ar
     6    30    26   ar
     7     9     3    1
     8    20    19   ar
     9    20    21   ar
    10    19    18   ar
    11     7     2    1
    12    31    29    1
    13    14    13   ar
    14    14    10   ar
    15    29    28   ar
    16     3     2   ar
    17     3     4   ar
    18     2     1   ar
    19    21    26    1
    20    21    22   ar
    21    26    27   ar
    22    18    13    1
    23    18    22   ar
    24    13    12   ar
    25     4    10    1
    26     4     5   ar
    27     1     6    1
    28     1     5   ar
    29    28    27   ar
    30    28    34    1
    31    10    11   ar
    32    27    32    1
    33    34    33    3
    34    12    11   ar
    35    12    17    1
    36    11    15    1
    37    17    16    3
