@<TRIPOS>MOLECULE
mol_data/opt/m06hf/geoms/mol2/5ad5ad.out
 18 19 0 0 0
SMALL
GASTEIGER

@<TRIPOS>ATOM
      1 C          -2.0677   -1.8337   -0.3215 C.ar    1  LIG1       -0.0225
      2 C          -0.7543   -1.8604    0.0185 C.ar    1  LIG1       -0.0367
      3 C          -0.2230   -0.5384    0.1862 C.ar    1  LIG1        0.0670
      4 C          -1.1456    0.4534   -0.0381 C.ar    1  LIG1        0.0432
      5 S          -2.6679   -0.2271   -0.4629 S.2     1  LIG1       -0.0948
      6 H          -2.7224   -2.6703   -0.5028 H       1  LIG1        0.0694
      7 H          -0.1697   -2.7563    0.1587 H       1  LIG1        0.0636
      8 N           2.2329   -0.0622    0.8467 N.1     1  LIG1       -0.1908
      9 C           1.1406   -0.2711    0.5630 C.1     1  LIG1        0.1003
     10 C          -0.9409    1.9031    0.0385 C.ar    1  LIG1        0.0284
     11 C           0.1782    2.6021   -0.3086 C.ar    1  LIG1       -0.0290
     12 C           0.0110    4.0082   -0.0887 C.ar    1  LIG1        0.0594
     13 C          -1.2175    4.3347    0.4114 C.ar    1  LIG1       -0.0063
     14 S          -2.1879    2.9479    0.6372 S.2     1  LIG1       -0.0948
     15 H          -1.5824    5.3190    0.6561 H       1  LIG1        0.0706
     16 H           1.0779    2.1577   -0.7075 H       1  LIG1        0.0642
     17 N           1.8296    5.7755   -0.6101 N.1     1  LIG1       -0.1909
     18 C           1.0243    4.9929   -0.3765 C.1     1  LIG1        0.0997
@<TRIPOS>BOND
     1    16    11    1
     2    17    18    3
     3     6     1    1
     4     5     1   ar
     5     5     4   ar
     6    18    12    1
     7     1     2   ar
     8    11    12   ar
     9    11    10   ar
    10    12    13   ar
    11     4    10    1
    12     4     3   ar
    13     2     7    1
    14     2     3   ar
    15    10    14   ar
    16     3     9    1
    17    13    14   ar
    18    13    15    1
    19     9     8    3
