@<TRIPOS>MOLECULE
mol_data/opt/m06hf/geoms/mol2/5ad5ad5ad-.out
 26 28 0 0 0
SMALL
GASTEIGER

@<TRIPOS>ATOM
      1 C          -2.0249   -1.9362    0.1308 C.ar    1  LIG1       -0.0225
      2 C          -0.7239   -1.9152   -0.2556 C.ar    1  LIG1       -0.0367
      3 C          -0.1958   -0.5823   -0.2687 C.ar    1  LIG1        0.0670
      4 C          -1.1076    0.3706    0.1156 C.ar    1  LIG1        0.0433
      5 S          -2.6165   -0.3637    0.4997 S.2     1  LIG1       -0.0948
      6 H          -2.6744   -2.7911    0.2266 H       1  LIG1        0.0694
      7 H          -0.1474   -2.7842   -0.5309 H       1  LIG1        0.0636
      8 N           2.2336   -0.0207   -0.9586 N.1     1  LIG1       -0.1908
      9 C           1.1531   -0.2684   -0.6609 C.1     1  LIG1        0.1003
     10 C          -0.9055    1.8190    0.2061 C.ar    1  LIG1        0.0290
     11 C           0.2466    2.4815    0.5153 C.ar    1  LIG1       -0.0284
     12 C           0.0648    3.8995    0.5024 C.ar    1  LIG1        0.0676
     13 C          -1.2138    4.2888    0.1860 C.ar    1  LIG1        0.0439
     14 S          -2.2025    2.9171   -0.1275 S.2     1  LIG1       -0.0859
     15 H           1.1842    2.0030    0.7566 H       1  LIG1        0.0642
     16 N           1.9531    5.5811    1.0536 N.1     1  LIG1       -0.1908
     17 C           1.1130    4.8359    0.8169 C.1     1  LIG1        0.1003
     18 C          -1.7359    5.6537    0.0820 C.ar    1  LIG1        0.0284
     19 C          -1.0819    6.7542   -0.3906 C.ar    1  LIG1       -0.0290
     20 C          -1.9111    7.9208   -0.3380 C.ar    1  LIG1        0.0594
     21 C          -3.1581    7.6751    0.1627 C.ar    1  LIG1       -0.0063
     22 S          -3.3454    6.0342    0.5956 S.2     1  LIG1       -0.0948
     23 H          -3.9592    8.3840    0.2979 H       1  LIG1        0.0706
     24 H          -0.0702    6.7497   -0.7680 H       1  LIG1        0.0642
     25 N          -1.1600   10.2628   -1.1468 N.1     1  LIG1       -0.1909
     26 C          -1.4922    9.2262   -0.7852 C.1     1  LIG1        0.0997
@<TRIPOS>BOND
     1    25    26    3
     2     8     9    3
     3    26    20    1
     4    24    19    1
     5     9     3    1
     6     7     2    1
     7    19    20   ar
     8    19    18   ar
     9    20    21   ar
    10     3     2   ar
    11     3     4   ar
    12     2     1   ar
    13    14    13   ar
    14    14    10   ar
    15    18    13    1
    16    18    22   ar
    17     4    10    1
    18     4     5   ar
    19     1     6    1
    20     1     5   ar
    21    21    23    1
    22    21    22   ar
    23    13    12   ar
    24    10    11   ar
    25    12    11   ar
    26    12    17    1
    27    11    15    1
    28    17    16    3
