@<TRIPOS>MOLECULE
mol_data/opt/m06hf/geoms/mol2/5ad5ad-5ad5ad-.out
 34 37 0 0 0
SMALL
GASTEIGER

@<TRIPOS>ATOM
      1 C          -2.2096   -1.8893    0.0005 C.ar    1  LIG1       -0.0225
      2 C          -0.8571   -1.9940   -0.0004 C.ar    1  LIG1       -0.0367
      3 C          -0.2232   -0.7081   -0.0003 C.ar    1  LIG1        0.0670
      4 C          -1.1091    0.3438    0.0008 C.ar    1  LIG1        0.0433
      5 S          -2.7271   -0.2497    0.0015 S.2     1  LIG1       -0.0948
      6 H          -2.9389   -2.6826    0.0006 H       1  LIG1        0.0694
      7 H          -0.3072   -2.9222   -0.0012 H       1  LIG1        0.0636
      8 N           2.3494   -0.4348   -0.0018 N.1     1  LIG1       -0.1908
      9 C           1.2071   -0.5540   -0.0011 C.1     1  LIG1        0.1003
     10 C          -0.8258    1.7818    0.0012 C.ar    1  LIG1        0.0290
     11 C           0.3844    2.4150    0.0009 C.ar    1  LIG1       -0.0284
     12 C           0.2467    3.8376    0.0015 C.ar    1  LIG1        0.0676
     13 C          -1.0579    4.2743    0.0024 C.ar    1  LIG1        0.0439
     14 S          -2.1284    2.9247    0.0024 S.2     1  LIG1       -0.0859
     15 H           1.3438    1.9204    0.0002 H       1  LIG1        0.0642
     16 N           2.2927    5.4212    0.0011 N.1     1  LIG1       -0.1908
     17 C           1.3854    4.7175    0.0013 C.1     1  LIG1        0.1003
     18 C          -1.5693    5.6458    0.0032 C.ar    1  LIG1        0.0290
     19 C          -0.8676    6.8174    0.0033 C.ar    1  LIG1       -0.0284
     20 C          -1.7275    7.9592    0.0043 C.ar    1  LIG1        0.0676
     21 C          -3.0683    7.6512    0.0048 C.ar    1  LIG1        0.0439
     22 S          -3.2797    5.9418    0.0043 S.2     1  LIG1       -0.0859
     23 H           0.2091    6.8952    0.0028 H       1  LIG1        0.0642
     24 N          -0.8114   10.3779    0.0048 N.1     1  LIG1       -0.1908
     25 C          -1.2157    9.3037    0.0046 C.1     1  LIG1        0.1003
     26 C          -4.2244    8.5524    0.0058 C.ar    1  LIG1        0.0284
     27 C          -4.2333    9.9205    0.0062 C.ar    1  LIG1       -0.0290
     28 C          -5.5670   10.4404    0.0072 C.ar    1  LIG1        0.0594
     29 C          -6.5278    9.4703    0.0075 C.ar    1  LIG1       -0.0063
     30 S          -5.8358    7.9105    0.0066 S.2     1  LIG1       -0.0948
     31 H          -7.5972    9.6048    0.0082 H       1  LIG1        0.0706
     32 H          -3.3547   10.5473    0.0058 H       1  LIG1        0.0642
     33 N          -6.1300   12.9672    0.0083 N.1     1  LIG1       -0.1909
     34 C          -5.8793   11.8481    0.0078 C.1     1  LIG1        0.0997
@<TRIPOS>BOND
     1     8     9    3
     2     7     2    1
     3     9     3    1
     4     2     3   ar
     5     2     1   ar
     6     3     4   ar
     7    15    11    1
     8     1     6    1
     9     1     5   ar
    10     4    10    1
    11     4     5   ar
    12    11    10   ar
    13    11    12   ar
    14    16    17    3
    15    10    14   ar
    16    17    12    1
    17    12    13   ar
    18    13    14   ar
    19    13    18    1
    20    23    19    1
    21    18    19   ar
    22    18    22   ar
    23    19    20   ar
    24    20    25    1
    25    20    21   ar
    26    22    21   ar
    27    25    24    3
    28    21    26    1
    29    26    27   ar
    30    26    30   ar
    31    32    27    1
    32    27    28   ar
    33    30    29   ar
    34    28    29   ar
    35    28    34    1
    36    29    31    1
    37    34    33    3
