@<TRIPOS>MOLECULE
mol_data/opt/m06hf/geoms/mol2/5ad5ad5ad-5ad.out
 34 37 0 0 0
SMALL
GASTEIGER

@<TRIPOS>ATOM
      1 C          -2.0150   -1.9926    0.1046 C.ar    1  LIG1       -0.0225
      2 C          -0.6911   -1.9904   -0.1963 C.ar    1  LIG1       -0.0367
      3 C          -0.1530   -0.6617   -0.2082 C.ar    1  LIG1        0.0670
      4 C          -1.0807    0.3058    0.0918 C.ar    1  LIG1        0.0433
      5 S          -2.6170   -0.4084    0.3946 S.2     1  LIG1       -0.0948
      6 H          -2.6767   -2.8401    0.1787 H       1  LIG1        0.0694
      7 H          -0.1039   -2.8696   -0.4115 H       1  LIG1        0.0636
      8 N           2.3231   -0.1346   -0.7433 N.1     1  LIG1       -0.1908
      9 C           1.2221   -0.3656   -0.5150 C.1     1  LIG1        0.1003
     10 C          -0.8731    1.7541    0.1698 C.ar    1  LIG1        0.0290
     11 C           0.2538    2.4144    0.5658 C.ar    1  LIG1       -0.0284
     12 C           0.0818    3.8333    0.5208 C.ar    1  LIG1        0.0676
     13 C          -1.1634    4.2239    0.0918 C.ar    1  LIG1        0.0439
     14 S          -2.1320    2.8521   -0.2848 S.2     1  LIG1       -0.0859
     15 H           1.1636    1.9334    0.8927 H       1  LIG1        0.0642
     16 N           1.9122    5.5194    1.2290 N.1     1  LIG1       -0.1908
     17 C           1.1001    4.7699    0.9202 C.1     1  LIG1        0.1003
     18 C          -1.6683    5.5880   -0.0713 C.ar    1  LIG1        0.0290
     19 C          -0.9684    6.6894   -0.4681 C.ar    1  LIG1       -0.0284
     20 C          -1.7979    7.8528   -0.5274 C.ar    1  LIG1        0.0676
     21 C          -3.1043    7.6173   -0.1738 C.ar    1  LIG1        0.0439
     22 S          -3.3259    5.9678    0.2628 S.2     1  LIG1       -0.0859
     23 H           0.0801    6.6882   -0.7269 H       1  LIG1        0.0642
     24 N          -0.9504   10.1761   -1.2878 N.1     1  LIG1       -0.1908
     25 C          -1.3247    9.1436   -0.9556 C.1     1  LIG1        0.1003
     26 C          -4.2118    8.5754   -0.1382 C.ar    1  LIG1        0.0284
     27 C          -4.1513    9.8999    0.1869 C.ar    1  LIG1       -0.0290
     28 C          -5.4381   10.5222    0.0979 C.ar    1  LIG1        0.0594
     29 C          -6.4294    9.6623   -0.2820 C.ar    1  LIG1       -0.0063
     30 S          -5.8218    8.0900   -0.5547 S.2     1  LIG1       -0.0948
     31 H          -7.4750    9.8874   -0.4172 H       1  LIG1        0.0706
     32 H          -3.2522   10.4193    0.4828 H       1  LIG1        0.0642
     33 N          -5.8770   13.0189    0.6262 N.1     1  LIG1       -0.1909
     34 C          -5.6816   11.9132    0.3909 C.1     1  LIG1        0.0997
@<TRIPOS>BOND
     1    24    25    3
     2    25    20    1
     3     8     9    3
     4    23    19    1
     5    30    29   ar
     6    30    26   ar
     7    20    19   ar
     8    20    21   ar
     9     9     3    1
    10    19    18   ar
    11    31    29    1
    12     7     2    1
    13    14    13   ar
    14    14    10   ar
    15    29    28   ar
    16     3     2   ar
    17     3     4   ar
    18     2     1   ar
    19    21    26    1
    20    21    22   ar
    21    26    27   ar
    22    18    13    1
    23    18    22   ar
    24     4    10    1
    25     4     5   ar
    26    13    12   ar
    27    28    27   ar
    28    28    34    1
    29     1     6    1
    30     1     5   ar
    31    10    11   ar
    32    27    32    1
    33    34    33    3
    34    12    11   ar
    35    12    17    1
    36    11    15    1
    37    17    16    3
