@<TRIPOS>MOLECULE
mol_data/opt/m06hf/geoms/mol2/5ad5ad-5ad-5ad.out
 34 37 0 0 0
SMALL
GASTEIGER

@<TRIPOS>ATOM
      1 C          -2.0094   -1.9924   -0.1410 C.ar    1  LIG1       -0.0225
      2 C          -0.6945   -1.9903    0.1974 C.ar    1  LIG1       -0.0367
      3 C          -0.1574   -0.6615    0.2269 C.ar    1  LIG1        0.0670
      4 C          -1.0765    0.3063   -0.0976 C.ar    1  LIG1        0.0433
      5 S          -2.6033   -0.4078   -0.4451 S.2     1  LIG1       -0.0948
      6 H          -2.6684   -2.8399   -0.2353 H       1  LIG1        0.0694
      7 H          -0.1133   -2.8697    0.4277 H       1  LIG1        0.0636
      8 N           2.3023   -0.1346    0.8329 N.1     1  LIG1       -0.1908
      9 C           1.2084   -0.3656    0.5731 C.1     1  LIG1        0.1003
     10 C          -0.8673    1.7548   -0.1672 C.ar    1  LIG1        0.0290
     11 C           0.2702    2.4160   -0.5299 C.ar    1  LIG1       -0.0284
     12 C           0.0966    3.8349   -0.4873 C.ar    1  LIG1        0.0676
     13 C          -1.1604    4.2244   -0.0932 C.ar    1  LIG1        0.0439
     14 S          -2.1389    2.8516    0.2534 S.2     1  LIG1       -0.0859
     15 H           1.1891    1.9359   -0.8318 H       1  LIG1        0.0642
     16 N           1.9457    5.5227   -1.1404 N.1     1  LIG1       -0.1908
     17 C           1.1255    4.7724   -0.8561 C.1     1  LIG1        0.1003
     18 C          -1.6702    5.5880    0.0579 C.ar    1  LIG1        0.0290
     19 C          -0.9822    6.6889    0.4763 C.ar    1  LIG1       -0.0284
     20 C          -1.8134    7.8520    0.5140 C.ar    1  LIG1        0.0676
     21 C          -3.1092    7.6167    0.1232 C.ar    1  LIG1        0.0439
     22 S          -3.3177    5.9679   -0.3224 S.2     1  LIG1       -0.0859
     23 H           0.0585    6.6875    0.7648 H       1  LIG1        0.0642
     24 N          -0.9886   10.1742    1.3022 N.1     1  LIG1       -0.1908
     25 C          -1.3530    9.1422    0.9577 C.1     1  LIG1        0.1003
     26 C          -4.2155    8.5746    0.0578 C.ar    1  LIG1        0.0284
     27 C          -4.1463    9.8997   -0.2631 C.ar    1  LIG1       -0.0290
     28 C          -5.4352   10.5215   -0.2096 C.ar    1  LIG1        0.0594
     29 C          -6.4366    9.6607    0.1405 C.ar    1  LIG1       -0.0063
     30 S          -5.8365    8.0881    0.4276 S.2     1  LIG1       -0.0948
     31 H          -7.4858    9.8852    0.2464 H       1  LIG1        0.0706
     32 H          -3.2393   10.4198   -0.5325 H       1  LIG1        0.0642
     33 N          -5.8598   13.0189   -0.7458 N.1     1  LIG1       -0.1909
     34 C          -5.6708   11.9129   -0.5070 C.1     1  LIG1        0.0997
@<TRIPOS>BOND
     1    16    17    3
     2    17    12    1
     3    15    11    1
     4    33    34    3
     5    32    27    1
     6    11    12   ar
     7    11    10   ar
     8    34    28    1
     9    12    13   ar
    10     5     1   ar
    11     5     4   ar
    12    22    18   ar
    13    22    21   ar
    14    27    28   ar
    15    27    26   ar
    16     6     1    1
    17    28    29   ar
    18    10     4    1
    19    10    14   ar
    20     1     2   ar
    21     4     3   ar
    22    13    18    1
    23    13    14   ar
    24    26    21    1
    25    26    30   ar
    26    18    19   ar
    27    21    20   ar
    28    29    31    1
    29    29    30   ar
    30     2     3   ar
    31     2     7    1
    32     3     9    1
    33    19    20   ar
    34    19    23    1
    35    20    25    1
    36     9     8    3
    37    25    24    3
