@<TRIPOS>MOLECULE
mol_data/opt/m06hf/geoms/mol2/5ad5ad-5ad-.out
 26 28 0 0 0
SMALL
GASTEIGER

@<TRIPOS>ATOM
      1 C          -2.0486   -1.9328   -0.0020 C.ar    1  LIG1       -0.0225
      2 C          -0.7274   -1.9126    0.3084 C.ar    1  LIG1       -0.0367
      3 C          -0.1949   -0.5819    0.2751 C.ar    1  LIG1        0.0670
      4 C          -1.1242    0.3702   -0.0672 C.ar    1  LIG1        0.0433
      5 S          -2.6552   -0.3624   -0.3548 S.2     1  LIG1       -0.0948
      6 H          -2.7054   -2.7861   -0.0499 H       1  LIG1        0.0694
      7 H          -0.1389   -2.7807    0.5603 H       1  LIG1        0.0636
      8 N           2.2722   -0.0221    0.8168 N.1     1  LIG1       -0.1908
      9 C           1.1755   -0.2689    0.5849 C.1     1  LIG1        0.1003
     10 C          -0.9227    1.8166   -0.1865 C.ar    1  LIG1        0.0290
     11 C           0.2118    2.4708   -0.5695 C.ar    1  LIG1       -0.0284
     12 C           0.0358    3.8896   -0.5631 C.ar    1  LIG1        0.0676
     13 C          -1.2210    4.2878   -0.1781 C.ar    1  LIG1        0.0439
     14 S          -2.1946    2.9238    0.2084 S.2     1  LIG1       -0.0859
     15 H           1.1323    1.9857   -0.8589 H       1  LIG1        0.0642
     16 N           1.8948    5.5570   -1.2424 N.1     1  LIG1       -0.1908
     17 C           1.0672    4.8180   -0.9488 C.1     1  LIG1        0.1003
     18 C          -1.7317    5.6559   -0.0603 C.ar    1  LIG1        0.0284
     19 C          -1.0477    6.7591    0.3606 C.ar    1  LIG1       -0.0290
     20 C          -1.8745    7.9284    0.3421 C.ar    1  LIG1        0.0594
     21 C          -3.1493    7.6820   -0.0829 C.ar    1  LIG1       -0.0063
     22 S          -3.3668    6.0368   -0.4846 S.2     1  LIG1       -0.0948
     23 H          -3.9545    8.3924   -0.1800 H       1  LIG1        0.0706
     24 H          -0.0159    6.7550    0.6790 H       1  LIG1        0.0642
     25 N          -1.0701   10.2766    1.0782 N.1     1  LIG1       -0.1909
     26 C          -1.4262    9.2373    0.7487 C.1     1  LIG1        0.0997
@<TRIPOS>BOND
     1    16    17    3
     2    17    12    1
     3    15    11    1
     4    11    12   ar
     5    11    10   ar
     6    12    13   ar
     7    22    21   ar
     8    22    18   ar
     9     5     4   ar
    10     5     1   ar
    11    10     4    1
    12    10    14   ar
    13    23    21    1
    14    13    18    1
    15    13    14   ar
    16    21    20   ar
    17     4     3   ar
    18    18    19   ar
    19     6     1    1
    20     1     2   ar
    21     3     2   ar
    22     3     9    1
    23     2     7    1
    24    20    19   ar
    25    20    26    1
    26    19    24    1
    27     9     8    3
    28    26    25    3
