@<TRIPOS>MOLECULE
mol_data/opt/m06hf/geoms/mol2/5ad5ad-5ad5ad.out
 34 37 0 0 0
SMALL
GASTEIGER

@<TRIPOS>ATOM
      1 C          -2.0076   -1.9913    0.1958 C.ar    1  LIG1       -0.0225
      2 C          -0.6992   -1.9918   -0.1669 C.ar    1  LIG1       -0.0367
      3 C          -0.1626   -0.6634   -0.2158 C.ar    1  LIG1        0.0670
      4 C          -1.0754    0.3068    0.1189 C.ar    1  LIG1        0.0433
      5 S          -2.5956   -0.4044    0.4997 S.2     1  LIG1       -0.0948
      6 H          -2.6648   -2.8379    0.3083 H       1  LIG1        0.0694
      7 H          -0.1225   -2.8730   -0.4017 H       1  LIG1        0.0636
      8 N           2.2855   -0.1415   -0.8710 N.1     1  LIG1       -0.1908
      9 C           1.1965   -0.3703   -0.5893 C.1     1  LIG1        0.1003
     10 C          -0.8648    1.7557    0.1743 C.ar    1  LIG1        0.0290
     11 C           0.2793    2.4193    0.5111 C.ar    1  LIG1       -0.0284
     12 C           0.1051    3.8378    0.4617 C.ar    1  LIG1        0.0676
     13 C          -1.1590    4.2248    0.0882 C.ar    1  LIG1        0.0439
     14 S          -2.1439    2.8498   -0.2304 S.2     1  LIG1       -0.0859
     15 H           1.2036    1.9410    0.7992 H       1  LIG1        0.0642
     16 N           1.9662    5.5298    1.0684 N.1     1  LIG1       -0.1908
     17 C           1.1408    4.7777    0.8047 C.1     1  LIG1        0.1003
     18 C          -1.6714    5.5875   -0.0631 C.ar    1  LIG1        0.0290
     19 C          -0.9910    6.6852   -0.5020 C.ar    1  LIG1       -0.0284
     20 C          -1.8227    7.8482   -0.5325 C.ar    1  LIG1        0.0676
     21 C          -3.1111    7.6160   -0.1161 C.ar    1  LIG1        0.0439
     22 S          -3.3115    5.9705    0.3450 S.2     1  LIG1       -0.0859
     23 H           0.0442    6.6815   -0.8097 H       1  LIG1        0.0642
     24 N          -1.0124   10.1646   -1.3524 N.1     1  LIG1       -0.1908
     25 C          -1.3705    9.1351   -0.9938 C.1     1  LIG1        0.1003
     26 C          -4.2159    8.5746   -0.0370 C.ar    1  LIG1        0.0284
     27 C          -4.1405    9.9020    0.2732 C.ar    1  LIG1       -0.0290
     28 C          -5.4302   10.5236    0.2392 C.ar    1  LIG1        0.0594
     29 C          -6.4380    9.6606   -0.0862 C.ar    1  LIG1       -0.0063
     30 S          -5.8435    8.0859   -0.3732 S.2     1  LIG1       -0.0948
     31 H          -7.4889    9.8847   -0.1742 H       1  LIG1        0.0706
     32 H          -3.2286   10.4237    0.5220 H       1  LIG1        0.0642
     33 N          -5.8445   13.0249    0.7655 N.1     1  LIG1       -0.1909
     34 C          -5.6600   11.9172    0.5310 C.1     1  LIG1        0.0997
@<TRIPOS>BOND
     1    24    25    3
     2    25    20    1
     3     8     9    3
     4    23    19    1
     5     9     3    1
     6    20    19   ar
     7    20    21   ar
     8    19    18   ar
     9     7     2    1
    10    30    29   ar
    11    30    26   ar
    12    14    13   ar
    13    14    10   ar
    14     3     2   ar
    15     3     4   ar
    16    31    29    1
    17     2     1   ar
    18    21    26    1
    19    21    22   ar
    20    29    28   ar
    21    18    13    1
    22    18    22   ar
    23    26    27   ar
    24    13    12   ar
    25     4    10    1
    26     4     5   ar
    27    10    11   ar
    28     1     6    1
    29     1     5   ar
    30    28    27   ar
    31    28    34    1
    32    27    32    1
    33    12    11   ar
    34    12    17    1
    35    11    15    1
    36    34    33    3
    37    17    16    3
