@<TRIPOS>MOLECULE
mol_data/opt/m06hf/geoms/mol2/5ad5ad-5ad.out
 26 28 0 0 0
SMALL
GASTEIGER

@<TRIPOS>ATOM
      1 C          -2.1487   -1.8880    0.0005 C.ar    1  LIG1       -0.0225
      2 C          -0.7943   -1.9530   -0.0007 C.ar    1  LIG1       -0.0367
      3 C          -0.1975   -0.6489   -0.0005 C.ar    1  LIG1        0.0670
      4 C          -1.1126    0.3776    0.0009 C.ar    1  LIG1        0.0433
      5 S          -2.7145   -0.2634    0.0019 S.2     1  LIG1       -0.0948
      6 H          -2.8547   -2.7023    0.0006 H       1  LIG1        0.0694
      7 H          -0.2183   -2.8651   -0.0017 H       1  LIG1        0.0636
      8 N           2.3662   -0.3065   -0.0025 N.1     1  LIG1       -0.1908
      9 C           1.2279   -0.4560   -0.0016 C.1     1  LIG1        0.1003
     10 C          -0.8711    1.8231    0.0014 C.ar    1  LIG1        0.0290
     11 C           0.3208    2.4901    0.0012 C.ar    1  LIG1       -0.0284
     12 C           0.1435    3.9083    0.0019 C.ar    1  LIG1        0.0676
     13 C          -1.1722    4.3092    0.0025 C.ar    1  LIG1        0.0439
     14 S          -2.2045    2.9313    0.0023 S.2     1  LIG1       -0.0859
     15 H           1.2940    2.0239    0.0007 H       1  LIG1        0.0642
     16 N           2.1440    5.5485    0.0018 N.1     1  LIG1       -0.1908
     17 C           1.2575    4.8190    0.0019 C.1     1  LIG1        0.1003
     18 C          -1.7240    5.6668    0.0032 C.ar    1  LIG1        0.0284
     19 C          -1.0515    6.8573    0.0035 C.ar    1  LIG1       -0.0290
     20 C          -1.9492    7.9730    0.0042 C.ar    1  LIG1        0.0594
     21 C          -3.2658    7.6121    0.0045 C.ar    1  LIG1       -0.0063
     22 S          -3.4441    5.9145    0.0039 S.2     1  LIG1       -0.0948
     23 H          -4.1249    8.2634    0.0050 H       1  LIG1        0.0706
     24 H           0.0225    6.9635    0.0031 H       1  LIG1        0.0642
     25 N          -1.1868   10.4472    0.0049 N.1     1  LIG1       -0.1909
     26 C          -1.5209    9.3500    0.0046 C.1     1  LIG1        0.0997
@<TRIPOS>BOND
     1     8     9    3
     2     7     2    1
     3     9     3    1
     4     2     3   ar
     5     2     1   ar
     6     3     4   ar
     7     1     6    1
     8     1     5   ar
     9    15    11    1
    10     4    10    1
    11     4     5   ar
    12    11    10   ar
    13    11    12   ar
    14    10    14   ar
    15    16    17    3
    16    17    12    1
    17    12    13   ar
    18    14    13   ar
    19    13    18    1
    20    24    19    1
    21    18    19   ar
    22    18    22   ar
    23    19    20   ar
    24    22    21   ar
    25    20    21   ar
    26    20    26    1
    27    21    23    1
    28    26    25    3
