@<TRIPOS>MOLECULE
mol_data/opt/m06hf/geoms/mol2/5ae.out
 11 11 0 0 0
SMALL
GASTEIGER

@<TRIPOS>ATOM
      1 C          -2.0944   -1.7584    0.0000 C.ar    1  LIG1       -0.0231
      2 C          -0.7377   -1.7417   -0.0006 C.ar    1  LIG1       -0.0393
      3 C          -0.2101   -0.4008   -0.0003 C.ar    1  LIG1        0.0317
      4 C          -1.1959    0.5445    0.0005 C.ar    1  LIG1       -0.0089
      5 S          -2.7555   -0.1666    0.0009 S.2     1  LIG1       -0.1038
      6 H          -2.7483   -2.6150    0.0000 H       1  LIG1        0.0694
      7 H          -1.0700    1.6147    0.0008 H       1  LIG1        0.0706
      8 H          -0.1127   -2.6211   -0.0012 H       1  LIG1        0.0635
      9 C           1.1948   -0.0912   -0.0009 C.1     1  LIG1       -0.0691
     10 C           2.3709    0.1545   -0.0013 C.1     1  LIG1       -0.1139
     11 H           3.4127    0.3776   -0.0018 H       1  LIG1        0.1232
@<TRIPOS>BOND
     1    11    10    1
     2    10     9    3
     3     8     2    1
     4     9     3    1
     5     2     3   ar
     6     2     1   ar
     7     3     4   ar
     8     6     1    1
     9     1     5   ar
    10     4     7    1
    11     4     5   ar
