@<TRIPOS>MOLECULE
mol_data/opt/m06hf/geoms/mol2/5ae5ae5ae-5ae.out
 38 41 0 0 0
SMALL
GASTEIGER

@<TRIPOS>ATOM
      1 C          -2.0264   -1.9695    0.1326 C.ar    1  LIG1       -0.0225
      2 C          -0.7027   -1.9723   -0.1646 C.ar    1  LIG1       -0.0387
      3 C          -0.1427   -0.6475   -0.1840 C.ar    1  LIG1        0.0399
      4 C          -1.0726    0.3216    0.1094 C.ar    1  LIG1        0.0413
      5 S          -2.6198   -0.3793    0.4132 S.2     1  LIG1       -0.0949
      6 H          -2.6919   -2.8137    0.2083 H       1  LIG1        0.0694
      7 H          -0.1206   -2.8562   -0.3751 H       1  LIG1        0.0635
      8 C           1.2337   -0.3845   -0.5004 C.1     1  LIG1       -0.0685
      9 C           2.3903   -0.1940   -0.7686 C.1     1  LIG1       -0.1139
     10 H           3.4126   -0.0195   -1.0141 H       1  LIG1        0.1232
     11 C          -0.8670    1.7693    0.1857 C.ar    1  LIG1        0.0289
     12 C           0.2556    2.4300    0.5881 C.ar    1  LIG1       -0.0304
     13 C           0.1008    3.8554    0.5487 C.ar    1  LIG1        0.0405
     14 C          -1.1451    4.2429    0.1138 C.ar    1  LIG1        0.0419
     15 S          -2.1207    2.8729   -0.2726 S.2     1  LIG1       -0.0859
     16 H           1.1564    1.9374    0.9199 H       1  LIG1        0.0641
     17 C           1.1330    4.7656    0.9608 C.1     1  LIG1       -0.0685
     18 C           2.0127    5.5058    1.3113 C.1     1  LIG1       -0.1139
     19 H           2.7861    6.1659    1.6296 H       1  LIG1        0.1232
     20 C          -1.6547    5.6039   -0.0532 C.ar    1  LIG1        0.0289
     21 C          -0.9566    6.7117   -0.4305 C.ar    1  LIG1       -0.0304
     22 C          -1.7801    7.8835   -0.5079 C.ar    1  LIG1        0.0405
     23 C          -3.0932    7.6329   -0.1854 C.ar    1  LIG1        0.0419
     24 S          -3.3214    5.9776    0.2429 S.2     1  LIG1       -0.0859
     25 H           0.0963    6.7070   -0.6662 H       1  LIG1        0.0641
     26 C          -1.2772    9.1648   -0.9192 C.1     1  LIG1       -0.0685
     27 C          -0.8307   10.2259   -1.2638 C.1     1  LIG1       -0.1139
     28 H          -0.4418   11.1676   -1.5758 H       1  LIG1        0.1232
     29 C          -4.2116    8.5779   -0.1690 C.ar    1  LIG1        0.0283
     30 C          -4.1754    9.9040    0.1481 C.ar    1  LIG1       -0.0310
     31 C          -5.4670   10.5242    0.0479 C.ar    1  LIG1        0.0323
     32 C          -6.4403    9.6443   -0.3355 C.ar    1  LIG1       -0.0083
     33 S          -5.8144    8.0724   -0.5963 S.2     1  LIG1       -0.0949
     34 H          -7.4873    9.8543   -0.4797 H       1  LIG1        0.0706
     35 H          -3.2806   10.4262    0.4488 H       1  LIG1        0.0641
     36 C          -5.7156   11.9133    0.3291 C.1     1  LIG1       -0.0691
     37 C          -5.9167   13.0744    0.5641 C.1     1  LIG1       -0.1139
     38 H          -6.0969   14.1035    0.7736 H       1  LIG1        0.1232
@<TRIPOS>BOND
     1    28    27    1
     2    27    26    3
     3    10     9    1
     4    26    22    1
     5     9     8    3
     6    25    21    1
     7    33    32   ar
     8    33    29   ar
     9    22    21   ar
    10    22    23   ar
    11     8     3    1
    12    34    32    1
    13    21    20   ar
    14     7     2    1
    15    32    31   ar
    16    15    14   ar
    17    15    11   ar
    18    23    29    1
    19    23    24   ar
    20     3     2   ar
    21     3     4   ar
    22    29    30   ar
    23     2     1   ar
    24    20    14    1
    25    20    24   ar
    26    31    30   ar
    27    31    36    1
    28     4    11    1
    29     4     5   ar
    30    14    13   ar
    31     1     6    1
    32     1     5   ar
    33    30    35    1
    34    11    12   ar
    35    36    37    3
    36    13    12   ar
    37    13    17    1
    38    37    38    1
    39    12    16    1
    40    17    18    3
    41    18    19    1
