@<TRIPOS>MOLECULE
mol_data/opt/m06hf/geoms/mol2/5ae5ae5ae5ae.out
 38 41 0 0 0
SMALL
GASTEIGER

@<TRIPOS>ATOM
      1 C          -2.0239   -1.9691    0.1586 C.ar    1  LIG1       -0.0225
      2 C          -0.7048   -1.9725   -0.1585 C.ar    1  LIG1       -0.0387
      3 C          -0.1452   -0.6478   -0.1892 C.ar    1  LIG1        0.0399
      4 C          -1.0706    0.3219    0.1161 C.ar    1  LIG1        0.0413
      5 S          -2.6130   -0.3782    0.4449 S.2     1  LIG1       -0.0949
      6 H          -2.6881   -2.8131    0.2462 H       1  LIG1        0.0694
      7 H          -0.1260   -2.8569   -0.3759 H       1  LIG1        0.0635
      8 C           1.2262   -0.3855   -0.5270 C.1     1  LIG1       -0.0685
      9 C           2.3786   -0.1955   -0.8131 C.1     1  LIG1       -0.1139
     10 H           3.3971   -0.0215   -1.0744 H       1  LIG1        0.1232
     11 C          -0.8639    1.7698    0.1862 C.ar    1  LIG1        0.0289
     12 C           0.2645    2.4313    0.5704 C.ar    1  LIG1       -0.0304
     13 C           0.1091    3.8567    0.5303 C.ar    1  LIG1        0.0405
     14 C          -1.1431    4.2432    0.1130 C.ar    1  LIG1        0.0419
     15 S          -2.1243    2.8724   -0.2558 S.2     1  LIG1       -0.0859
     16 H           1.1702    1.9395    0.8899 H       1  LIG1        0.0641
     17 C           1.1474    4.7678    0.9249 C.1     1  LIG1       -0.0685
     18 C           2.0321    5.5088    1.2608 C.1     1  LIG1       -0.1139
     19 H           2.8101    6.1696    1.5661 H       1  LIG1        0.1232
     20 C          -1.6551    5.6039   -0.0495 C.ar    1  LIG1        0.0289
     21 C          -0.9627    6.7109   -0.4397 C.ar    1  LIG1       -0.0304
     22 C          -1.7874    7.8824   -0.5075 C.ar    1  LIG1        0.0405
     23 C          -3.0955    7.6325   -0.1649 C.ar    1  LIG1        0.0419
     24 S          -3.3172    5.9782    0.2704 S.2     1  LIG1       -0.0859
     25 H           0.0866    6.7056   -0.6910 H       1  LIG1        0.0641
     26 C          -1.2907    9.1628   -0.9291 C.1     1  LIG1       -0.0685
     27 C          -0.8495   10.2232   -1.2828 C.1     1  LIG1       -0.1139
     28 H          -0.4655   11.1642   -1.6026 H       1  LIG1        0.1232
     29 C          -4.2136    8.5775   -0.1341 C.ar    1  LIG1        0.0283
     30 C          -4.1728    9.9044    0.1792 C.ar    1  LIG1       -0.0310
     31 C          -5.4659   10.5242    0.0970 C.ar    1  LIG1        0.0323
     32 C          -6.4447    9.6433   -0.2694 C.ar    1  LIG1       -0.0083
     33 S          -5.8226    8.0709   -0.5359 S.2     1  LIG1       -0.0949
     34 H          -7.4938    9.8529   -0.3983 H       1  LIG1        0.0706
     35 H          -3.2736   10.4274    0.4650 H       1  LIG1        0.0641
     36 C          -5.7104   11.9140    0.3785 C.1     1  LIG1       -0.0691
     37 C          -5.9081   13.0757    0.6137 C.1     1  LIG1       -0.1139
     38 H          -6.0852   14.1053    0.8234 H       1  LIG1        0.1232
@<TRIPOS>BOND
     1    28    27    1
     2    27    26    3
     3    10     9    1
     4    26    22    1
     5     9     8    3
     6    25    21    1
     7    33    32   ar
     8    33    29   ar
     9     8     3    1
    10    22    21   ar
    11    22    23   ar
    12    21    20   ar
    13    34    32    1
    14     7     2    1
    15    32    31   ar
    16    15    14   ar
    17    15    11   ar
    18     3     2   ar
    19     3     4   ar
    20    23    29    1
    21    23    24   ar
    22     2     1   ar
    23    29    30   ar
    24    20    14    1
    25    20    24   ar
    26    31    30   ar
    27    31    36    1
    28    14    13   ar
    29     4    11    1
    30     4     5   ar
    31     1     6    1
    32     1     5   ar
    33    30    35    1
    34    11    12   ar
    35    36    37    3
    36    13    12   ar
    37    13    17    1
    38    12    16    1
    39    37    38    1
    40    17    18    3
    41    18    19    1
