@<TRIPOS>MOLECULE
mol_data/opt/m06hf/geoms/mol2/5ae5ae.out
 20 21 0 0 0
SMALL
GASTEIGER

@<TRIPOS>ATOM
      1 C          -2.0910   -1.8062    0.3943 C.ar    1  LIG1       -0.0225
      2 C          -0.7612   -1.8504    0.1325 C.ar    1  LIG1       -0.0387
      3 C          -0.1984   -0.5415   -0.0710 C.ar    1  LIG1        0.0399
      4 C          -1.1331    0.4583    0.0504 C.ar    1  LIG1        0.0413
      5 S          -2.6879   -0.1913    0.4201 S.2     1  LIG1       -0.0949
      6 H          -2.7594   -2.6311    0.5786 H       1  LIG1        0.0694
      7 H          -0.1759   -2.7547    0.0706 H       1  LIG1        0.0635
      8 C           1.1853   -0.3215   -0.3873 C.1     1  LIG1       -0.0685
      9 C           2.3473   -0.1628   -0.6498 C.1     1  LIG1       -0.1139
     10 H           3.3747   -0.0159   -0.8895 H       1  LIG1        0.1232
     11 C          -0.9263    1.9032   -0.0824 C.ar    1  LIG1        0.0282
     12 C           0.1643    2.6254    0.3008 C.ar    1  LIG1       -0.0310
     13 C           0.0197    4.0265    0.0152 C.ar    1  LIG1        0.0323
     14 C          -1.1787    4.3183   -0.5733 C.ar    1  LIG1       -0.0083
     15 S          -2.1363    2.9180   -0.8011 S.2     1  LIG1       -0.0949
     16 H          -1.5315    5.2887   -0.8812 H       1  LIG1        0.0706
     17 H           1.0332    2.1953    0.7745 H       1  LIG1        0.0641
     18 C           1.0157    5.0166    0.3267 C.1     1  LIG1       -0.0691
     19 C           1.8501    5.8386    0.5933 C.1     1  LIG1       -0.1139
     20 H           2.5861    6.5709    0.8307 H       1  LIG1        0.1232
@<TRIPOS>BOND
     1    10     9    1
     2    16    14    1
     3    15    14   ar
     4    15    11   ar
     5     9     8    3
     6    14    13   ar
     7     8     3    1
     8    11     4    1
     9    11    12   ar
    10     3     4   ar
    11     3     2   ar
    12    13    12   ar
    13    13    18    1
    14     4     5   ar
    15     7     2    1
    16     2     1   ar
    17    12    17    1
    18    18    19    3
    19     1     5   ar
    20     1     6    1
    21    19    20    1
