@<TRIPOS>MOLECULE
mol_data/opt/m06hf/geoms/mol2/5ae5ae-5ae-.out
 29 31 0 0 0
SMALL
GASTEIGER

@<TRIPOS>ATOM
      1 C          -2.0484   -1.9224   -0.0553 C.ar    1  LIG1       -0.0225
      2 C          -0.7358   -1.9035    0.2857 C.ar    1  LIG1       -0.0387
      3 C          -0.1854   -0.5746    0.2761 C.ar    1  LIG1        0.0399
      4 C          -1.1110    0.3768   -0.0824 C.ar    1  LIG1        0.0413
      5 S          -2.6426   -0.3473   -0.4122 S.2     1  LIG1       -0.0949
      6 H          -2.7050   -2.7745   -0.1232 H       1  LIG1        0.0694
      7 H          -0.1560   -2.7750    0.5467 H       1  LIG1        0.0635
      8 C           1.1773   -0.2907    0.6299 C.1     1  LIG1       -0.0685
      9 C           2.3222   -0.0810    0.9301 C.1     1  LIG1       -0.1139
     10 H           3.3334    0.1140    1.2032 H       1  LIG1        0.1232
     11 C          -0.9128    1.8232   -0.1966 C.ar    1  LIG1        0.0289
     12 C           0.2239    2.4803   -0.5628 C.ar    1  LIG1       -0.0304
     13 C           0.0598    3.9049   -0.5714 C.ar    1  LIG1        0.0405
     14 C          -1.2077    4.2966   -0.2102 C.ar    1  LIG1        0.0419
     15 S          -2.1925    2.9331    0.1684 S.2     1  LIG1       -0.0859
     16 H           1.1435    1.9859   -0.8353 H       1  LIG1        0.0641
     17 C           1.1074    4.8104   -0.9558 C.1     1  LIG1       -0.0685
     18 C           1.9999    5.5464   -1.2824 C.1     1  LIG1       -0.1139
     19 H           2.7858    6.2013   -1.5805 H       1  LIG1        0.1232
     20 C          -1.7295    5.6612   -0.1100 C.ar    1  LIG1        0.0283
     21 C          -1.0603    6.7743    0.3044 C.ar    1  LIG1       -0.0310
     22 C          -1.8839    7.9506    0.2694 C.ar    1  LIG1        0.0323
     23 C          -3.1527    7.6865   -0.1651 C.ar    1  LIG1       -0.0083
     24 S          -3.3639    6.0319   -0.5529 S.2     1  LIG1       -0.0949
     25 H          -3.9609    8.3905   -0.2773 H       1  LIG1        0.0706
     26 H          -0.0321    6.7692    0.6314 H       1  LIG1        0.0641
     27 C          -1.4295    9.2589    0.6587 C.1     1  LIG1       -0.0691
     28 C          -1.0390   10.3469    0.9847 C.1     1  LIG1       -0.1139
     29 H          -0.6955   11.3126    1.2740 H       1  LIG1        0.1232
@<TRIPOS>BOND
     1    19    18    1
     2    18    17    3
     3    17    13    1
     4    16    12    1
     5    13    12   ar
     6    13    14   ar
     7    12    11   ar
     8    24    23   ar
     9    24    20   ar
    10     5     4   ar
    11     5     1   ar
    12    25    23    1
    13    14    20    1
    14    14    15   ar
    15    11     4    1
    16    11    15   ar
    17    23    22   ar
    18     6     1    1
    19    20    21   ar
    20     4     3   ar
    21     1     2   ar
    22    22    21   ar
    23    22    27    1
    24     3     2   ar
    25     3     8    1
    26     2     7    1
    27    21    26    1
    28     8     9    3
    29    27    28    3
    30     9    10    1
    31    28    29    1
