@<TRIPOS>MOLECULE
mol_data/opt/m06hf/geoms/mol2/5ae5ae-.out
 20 21 0 0 0
SMALL
GASTEIGER

@<TRIPOS>ATOM
      1 C          -2.1136   -1.8281    0.0004 C.ar    1  LIG1       -0.0225
      2 C          -0.7594   -1.8498   -0.0005 C.ar    1  LIG1       -0.0387
      3 C          -0.1866   -0.5292   -0.0003 C.ar    1  LIG1        0.0399
      4 C          -1.1400    0.4634    0.0007 C.ar    1  LIG1        0.0413
      5 S          -2.7263   -0.2201    0.0014 S.2     1  LIG1       -0.0949
      6 H          -2.7943   -2.6632    0.0005 H       1  LIG1        0.0694
      7 H          -0.1571   -2.7451   -0.0012 H       1  LIG1        0.0635
      8 C           1.2345   -0.3245   -0.0012 C.1     1  LIG1       -0.0685
      9 C           2.4315   -0.2093   -0.0019 C.1     1  LIG1       -0.1139
     10 H           3.4914   -0.1015   -0.0026 H       1  LIG1        0.1232
     11 C          -0.9559    1.9187    0.0011 C.ar    1  LIG1        0.0282
     12 C           0.2117    2.6267    0.0010 C.ar    1  LIG1       -0.0310
     13 C          -0.0070    4.0465    0.0016 C.ar    1  LIG1        0.0323
     14 C          -1.3331    4.3720    0.0021 C.ar    1  LIG1       -0.0083
     15 S          -2.3298    2.9800    0.0019 S.2     1  LIG1       -0.0949
     16 H          -1.7625    5.3601    0.0026 H       1  LIG1        0.0706
     17 H           1.1901    2.1749    0.0006 H       1  LIG1        0.0641
     18 C           1.0508    5.0216    0.0016 C.1     1  LIG1       -0.0691
     19 C           1.9363    5.8333    0.0016 C.1     1  LIG1       -0.1139
     20 H           2.7174    6.5575    0.0016 H       1  LIG1        0.1232
@<TRIPOS>BOND
     1    10     9    1
     2     9     8    3
     3     7     2    1
     4     8     3    1
     5     2     3   ar
     6     2     1   ar
     7     3     4   ar
     8     1     6    1
     9     1     5   ar
    10    17    12    1
    11     4    11    1
    12     4     5   ar
    13    12    11   ar
    14    12    13   ar
    15    11    15   ar
    16    13    18    1
    17    13    14   ar
    18    18    19    3
    19    19    20    1
    20    15    14   ar
    21    14    16    1
