@<TRIPOS>MOLECULE
mol_data/opt/m06hf/geoms/mol2/5ae5ae5ae5ae-.out
 38 41 0 0 0
SMALL
GASTEIGER

@<TRIPOS>ATOM
      1 C          -2.0254   -1.9693    0.1402 C.ar    1  LIG1       -0.0225
      2 C          -0.7020   -1.9722   -0.1581 C.ar    1  LIG1       -0.0387
      3 C          -0.1421   -0.6474   -0.1789 C.ar    1  LIG1        0.0399
      4 C          -1.0719    0.3218    0.1146 C.ar    1  LIG1        0.0413
      5 S          -2.6187   -0.3790    0.4202 S.2     1  LIG1       -0.0949
      6 H          -2.6908   -2.8135    0.2171 H       1  LIG1        0.0694
      7 H          -0.1200   -2.8562   -0.3684 H       1  LIG1        0.0635
      8 C           1.2340   -0.3845   -0.4966 C.1     1  LIG1       -0.0685
      9 C           2.3903   -0.1941   -0.7660 C.1     1  LIG1       -0.1139
     10 H           3.4124   -0.0196   -1.0125 H       1  LIG1        0.1232
     11 C          -0.8663    1.7696    0.1897 C.ar    1  LIG1        0.0289
     12 C           0.2565    2.4307    0.5907 C.ar    1  LIG1       -0.0304
     13 C           0.1014    3.8561    0.5505 C.ar    1  LIG1        0.0405
     14 C          -1.1448    4.2431    0.1163 C.ar    1  LIG1        0.0419
     15 S          -2.1205    2.8727   -0.2684 S.2     1  LIG1       -0.0859
     16 H           1.1576    1.9385    0.9221 H       1  LIG1        0.0641
     17 C           1.1339    4.7667    0.9610 C.1     1  LIG1       -0.0685
     18 C           2.0138    5.5072    1.3104 C.1     1  LIG1       -0.1139
     19 H           2.7874    6.1676    1.6276 H       1  LIG1        0.1232
     20 C          -1.6547    5.6039   -0.0513 C.ar    1  LIG1        0.0289
     21 C          -0.9571    6.7116   -0.4299 C.ar    1  LIG1       -0.0304
     22 C          -1.7808    7.8832   -0.5076 C.ar    1  LIG1        0.0405
     23 C          -3.0936    7.6326   -0.1838 C.ar    1  LIG1        0.0419
     24 S          -3.3212    5.9777    0.2459 S.2     1  LIG1       -0.0859
     25 H           0.0957    6.7068   -0.6665 H       1  LIG1        0.0641
     26 C          -1.2784    9.1642   -0.9203 C.1     1  LIG1       -0.0685
     27 C          -0.8323   10.2252   -1.2660 C.1     1  LIG1       -0.1139
     28 H          -0.4438   11.1667   -1.5788 H       1  LIG1        0.1232
     29 C          -4.2121    8.5774   -0.1673 C.ar    1  LIG1        0.0283
     30 C          -4.1759    9.9038    0.1487 C.ar    1  LIG1       -0.0310
     31 C          -5.4678   10.5237    0.0490 C.ar    1  LIG1        0.0323
     32 C          -6.4411    9.6434   -0.3330 C.ar    1  LIG1       -0.0083
     33 S          -5.8151    8.0714   -0.5930 S.2     1  LIG1       -0.0949
     34 H          -7.4882    9.8531   -0.4767 H       1  LIG1        0.0706
     35 H          -3.2810   10.4264    0.4484 H       1  LIG1        0.0641
     36 C          -5.7163   11.9130    0.3294 C.1     1  LIG1       -0.0691
     37 C          -5.9174   13.0743    0.5636 C.1     1  LIG1       -0.1139
     38 H          -6.0975   14.1036    0.7725 H       1  LIG1        0.1232
@<TRIPOS>BOND
     1    28    27    1
     2    27    26    3
     3    10     9    1
     4    26    22    1
     5     9     8    3
     6    25    21    1
     7    33    32   ar
     8    33    29   ar
     9    22    21   ar
    10    22    23   ar
    11     8     3    1
    12    34    32    1
    13    21    20   ar
    14     7     2    1
    15    32    31   ar
    16    15    14   ar
    17    15    11   ar
    18    23    29    1
    19    23    24   ar
    20     3     2   ar
    21     3     4   ar
    22    29    30   ar
    23     2     1   ar
    24    20    14    1
    25    20    24   ar
    26    31    30   ar
    27    31    36    1
    28     4    11    1
    29     4     5   ar
    30    14    13   ar
    31     1     6    1
    32     1     5   ar
    33    30    35    1
    34    11    12   ar
    35    36    37    3
    36    13    12   ar
    37    13    17    1
    38    37    38    1
    39    12    16    1
    40    17    18    3
    41    18    19    1
