@<TRIPOS>MOLECULE
mol_data/opt/m06hf/geoms/mol2/5ae5ae-5ae5ae-.out
 38 41 0 0 0
SMALL
GASTEIGER

@<TRIPOS>ATOM
      1 C          -2.1965   -1.8670    0.0006 C.ar    1  LIG1       -0.0225
      2 C          -0.8443   -1.9610   -0.0003 C.ar    1  LIG1       -0.0387
      3 C          -0.2018   -0.6738   -0.0002 C.ar    1  LIG1        0.0399
      4 C          -1.1007    0.3688    0.0008 C.ar    1  LIG1        0.0413
      5 S          -2.7219   -0.2288    0.0017 S.2     1  LIG1       -0.0949
      6 H          -2.9206   -2.6647    0.0008 H       1  LIG1        0.0694
      7 H          -0.2901   -2.8869   -0.0011 H       1  LIG1        0.0635
      8 C           1.2283   -0.5457   -0.0012 C.1     1  LIG1       -0.0685
      9 C           2.4300   -0.4961   -0.0020 C.1     1  LIG1       -0.1139
     10 H           3.4947   -0.4524   -0.0026 H       1  LIG1        0.1232
     11 C          -0.8344    1.8087    0.0012 C.ar    1  LIG1        0.0289
     12 C           0.3686    2.4518    0.0009 C.ar    1  LIG1       -0.0304
     13 C           0.2385    3.8795    0.0015 C.ar    1  LIG1        0.0405
     14 C          -1.0724    4.3017    0.0023 C.ar    1  LIG1        0.0419
     15 S          -2.1428    2.9462    0.0023 S.2     1  LIG1       -0.0859
     16 H           1.3224    1.9499    0.0003 H       1  LIG1        0.0641
     17 C           1.3913    4.7365    0.0013 C.1     1  LIG1       -0.0685
     18 C           2.3885    5.4087    0.0011 C.1     1  LIG1       -0.1139
     19 H           3.2710    6.0063    0.0013 H       1  LIG1        0.1232
     20 C          -1.5969    5.6667    0.0030 C.ar    1  LIG1        0.0289
     21 C          -0.9039    6.8415    0.0030 C.ar    1  LIG1       -0.0304
     22 C          -1.7565    7.9940    0.0039 C.ar    1  LIG1        0.0405
     23 C          -3.0956    7.6740    0.0046 C.ar    1  LIG1        0.0419
     24 S          -3.3087    5.9600    0.0042 S.2     1  LIG1       -0.0859
     25 H           0.1718    6.9068    0.0023 H       1  LIG1        0.0641
     26 C          -1.2153    9.3242    0.0040 C.1     1  LIG1       -0.0685
     27 C          -0.7107   10.4155    0.0041 C.1     1  LIG1       -0.1139
     28 H          -0.2665   11.3841    0.0038 H       1  LIG1        0.1232
     29 C          -4.2571    8.5666    0.0057 C.ar    1  LIG1        0.0283
     30 C          -4.2741    9.9331    0.0059 C.ar    1  LIG1       -0.0310
     31 C          -5.6076   10.4653    0.0070 C.ar    1  LIG1        0.0323
     32 C          -6.5615    9.4875    0.0075 C.ar    1  LIG1       -0.0083
     33 S          -5.8692    7.9225    0.0068 S.2     1  LIG1       -0.0949
     34 H          -7.6308    9.6184    0.0084 H       1  LIG1        0.0706
     35 H          -3.3889   10.5478    0.0054 H       1  LIG1        0.0641
     36 C          -5.9088   11.8720    0.0075 C.1     1  LIG1       -0.0691
     37 C          -6.1545   13.0479    0.0079 C.1     1  LIG1       -0.1139
     38 H          -6.3740   14.0905    0.0084 H       1  LIG1        0.1232
@<TRIPOS>BOND
     1    10     9    1
     2     9     8    3
     3     8     3    1
     4     7     2    1
     5     2     3   ar
     6     2     1   ar
     7     3     4   ar
     8    16    12    1
     9     1     6    1
    10     1     5   ar
    11     4    11    1
    12     4     5   ar
    13    12    11   ar
    14    12    13   ar
    15    18    19    1
    16    18    17    3
    17    11    15   ar
    18    17    13    1
    19    13    14   ar
    20    14    15   ar
    21    14    20    1
    22    25    21    1
    23    21    20   ar
    24    21    22   ar
    25    20    24   ar
    26    28    27    1
    27    22    26    1
    28    22    23   ar
    29    26    27    3
    30    24    23   ar
    31    23    29    1
    32    35    30    1
    33    29    30   ar
    34    29    33   ar
    35    30    31   ar
    36    33    32   ar
    37    31    36    1
    38    31    32   ar
    39    36    37    3
    40    32    34    1
    41    37    38    1
