@<TRIPOS>MOLECULE
mol_data/opt/m06hf/geoms/mol2/5ae5ae5ae-5ae-.out
 38 41 0 0 0
SMALL
GASTEIGER

@<TRIPOS>ATOM
      1 C          -1.7456   -1.9594    0.9065 C.ar    1  LIG1       -0.0225
      2 C          -0.7173   -1.9630    0.0215 C.ar    1  LIG1       -0.0387
      3 C          -0.2526   -0.6365   -0.2837 C.ar    1  LIG1        0.0399
      4 C          -0.9511    0.3348    0.3928 C.ar    1  LIG1        0.0413
      5 S          -2.1612   -0.3655    1.4026 S.2     1  LIG1       -0.0949
      6 H          -2.2836   -2.8049    1.3025 H       1  LIG1        0.0694
      7 H          -0.2885   -2.8490   -0.4206 H       1  LIG1        0.0635
      8 C           0.8101   -0.3737   -1.2136 C.1     1  LIG1       -0.0685
      9 C           1.7044   -0.1827   -1.9937 C.1     1  LIG1       -0.1139
     10 H           2.4923   -0.0067   -2.6892 H       1  LIG1        0.1232
     11 C          -0.7578    1.7853    0.3316 C.ar    1  LIG1        0.0289
     12 C           0.4139    2.4621    0.1702 C.ar    1  LIG1       -0.0304
     13 C           0.2315    3.8848    0.1457 C.ar    1  LIG1        0.0405
     14 C          -1.0838    4.2546    0.3044 C.ar    1  LIG1        0.0419
     15 S          -2.1014    2.8711    0.4699 S.2     1  LIG1       -0.0859
     16 H           1.3755    1.9828    0.0700 H       1  LIG1        0.0641
     17 C           1.3154    4.8091   -0.0395 C.1     1  LIG1       -0.0685
     18 C           2.2387    5.5621   -0.1968 C.1     1  LIG1       -0.1139
     19 H           3.0522    6.2340   -0.3443 H       1  LIG1        0.1232
     20 C          -1.6372    5.6087    0.3408 C.ar    1  LIG1        0.0289
     21 C          -1.0519    6.7320    0.8449 C.ar    1  LIG1       -0.0304
     22 C          -1.8879    7.8910    0.7252 C.ar    1  LIG1        0.0405
     23 C          -3.0959    7.6162    0.1276 C.ar    1  LIG1        0.0419
     24 S          -3.2043    5.9527   -0.3125 S.2     1  LIG1       -0.0859
     25 H          -0.0750    6.7476    1.3027 H       1  LIG1        0.0641
     26 C          -1.5038    9.1855    1.2152 C.1     1  LIG1       -0.0685
     27 C          -1.1616   10.2598    1.6314 C.1     1  LIG1       -0.1139
     28 H          -0.8681   11.2135    2.0050 H       1  LIG1        0.1232
     29 C          -4.1915    8.5451   -0.1549 C.ar    1  LIG1        0.0283
     30 C          -4.0980    9.8663   -0.4798 C.ar    1  LIG1       -0.0310
     31 C          -5.3848   10.4702   -0.6872 C.ar    1  LIG1        0.0323
     32 C          -6.4114    9.5839   -0.5177 C.ar    1  LIG1       -0.0083
     33 S          -5.8454    8.0247   -0.0949 S.2     1  LIG1       -0.0949
     34 H          -7.4657    9.7812   -0.6201 H       1  LIG1        0.0706
     35 H          -3.1638   10.3971   -0.5799 H       1  LIG1        0.0641
     36 C          -5.5729   11.8509   -1.0464 C.1     1  LIG1       -0.0691
     37 C          -5.7170   13.0052   -1.3472 C.1     1  LIG1       -0.1139
     38 H          -5.8461   14.0282   -1.6155 H       1  LIG1        0.1232
@<TRIPOS>BOND
     1    10     9    1
     2     9     8    3
     3    38    37    1
     4    37    36    3
     5     8     3    1
     6    36    31    1
     7    31    32   ar
     8    31    30   ar
     9    34    32    1
    10    35    30    1
    11    32    33   ar
    12    30    29   ar
    13     7     2    1
    14    19    18    1
    15    24    23   ar
    16    24    20   ar
    17     3     2   ar
    18     3     4   ar
    19    18    17    3
    20    29    33   ar
    21    29    23    1
    22    17    13    1
    23     2     1   ar
    24    16    12    1
    25    23    22   ar
    26    13    12   ar
    27    13    14   ar
    28    12    11   ar
    29    14    20    1
    30    14    15   ar
    31    11     4    1
    32    11    15   ar
    33    20    21   ar
    34     4     5   ar
    35    22    21   ar
    36    22    26    1
    37    21    25    1
    38     1     6    1
    39     1     5   ar
    40    26    27    3
    41    27    28    1
