@<TRIPOS>MOLECULE
mol_data/opt/m06hf/geoms/mol2/5ae5ae5ae.out
 29 31 0 0 0
SMALL
GASTEIGER

@<TRIPOS>ATOM
      1 C          -2.0455   -1.9228    0.0835 C.ar    1  LIG1       -0.0225
      2 C          -0.7370   -1.9041   -0.2730 C.ar    1  LIG1       -0.0387
      3 C          -0.1870   -0.5750   -0.2726 C.ar    1  LIG1        0.0399
      4 C          -1.1086    0.3768    0.0950 C.ar    1  LIG1        0.0413
      5 S          -2.6359   -0.3471    0.4443 S.2     1  LIG1       -0.0949
      6 H          -2.7009   -2.7749    0.1609 H       1  LIG1        0.0694
      7 H          -0.1600   -2.7759   -0.5391 H       1  LIG1        0.0635
      8 C           1.1714   -0.2914   -0.6430 C.1     1  LIG1       -0.0685
      9 C           2.3126   -0.0819   -0.9570 C.1     1  LIG1       -0.1139
     10 H           3.3205    0.1131   -1.2425 H       1  LIG1        0.1232
     11 C          -0.9095    1.8234    0.2040 C.ar    1  LIG1        0.0289
     12 C           0.2311    2.4817    0.5554 C.ar    1  LIG1       -0.0304
     13 C           0.0666    3.9062    0.5631 C.ar    1  LIG1        0.0405
     14 C          -1.2052    4.2968    0.2162 C.ar    1  LIG1        0.0419
     15 S          -2.1938    2.9322   -0.1483 S.2     1  LIG1       -0.0859
     16 H           1.1541    1.9882    0.8181 H       1  LIG1        0.0641
     17 C           1.1183    4.8129    0.9333 C.1     1  LIG1       -0.0685
     18 C           2.0144    5.5498    1.2480 C.1     1  LIG1       -0.1139
     19 H           2.8036    6.2057    1.5353 H       1  LIG1        0.1232
     20 C          -1.7287    5.6610    0.1194 C.ar    1  LIG1        0.0283
     21 C          -1.0649    6.7736   -0.3049 C.ar    1  LIG1       -0.0310
     22 C          -1.8885    7.9496   -0.2625 C.ar    1  LIG1        0.0323
     23 C          -3.1520    7.6858    0.1872 C.ar    1  LIG1       -0.0083
     24 S          -3.3581    6.0319    0.5805 S.2     1  LIG1       -0.0949
     25 H          -3.9592    8.3897    0.3075 H       1  LIG1        0.0706
     26 H          -0.0406    6.7683   -0.6438 H       1  LIG1        0.0641
     27 C          -1.4392    9.2574   -0.6594 C.1     1  LIG1       -0.0691
     28 C          -1.0530   10.3450   -0.9919 C.1     1  LIG1       -0.1139
     29 H          -0.7133   11.3103   -1.2870 H       1  LIG1        0.1232
@<TRIPOS>BOND
     1    29    28    1
     2    10     9    1
     3    28    27    3
     4     9     8    3
     5    27    22    1
     6    26    21    1
     7     8     3    1
     8     7     2    1
     9    21    22   ar
    10    21    20   ar
    11     2     3   ar
    12     2     1   ar
    13     3     4   ar
    14    22    23   ar
    15    15    11   ar
    16    15    14   ar
    17     1     6    1
    18     1     5   ar
    19     4    11    1
    20     4     5   ar
    21    20    14    1
    22    20    24   ar
    23    23    25    1
    24    23    24   ar
    25    11    12   ar
    26    14    13   ar
    27    12    13   ar
    28    12    16    1
    29    13    17    1
    30    17    18    3
    31    18    19    1
