@<TRIPOS>MOLECULE
mol_data/opt/m06hf/geoms/mol2/5ae5ae-5ae-5ae-.out
 38 41 0 0 0
SMALL
GASTEIGER

@<TRIPOS>ATOM
      1 C          -1.9911   -1.9594   -0.4325 C.ar    1  LIG1       -0.0225
      2 C          -0.7037   -1.9738   -0.0049 C.ar    1  LIG1       -0.0387
      3 C          -0.1518   -0.6509    0.1161 C.ar    1  LIG1        0.0399
      4 C          -1.0502    0.3286   -0.2350 C.ar    1  LIG1        0.0413
      5 S          -2.5576   -0.3599   -0.7159 S.2     1  LIG1       -0.0949
      6 H          -2.6436   -2.7999   -0.6034 H       1  LIG1        0.0694
      7 H          -0.1432   -2.8650    0.2319 H       1  LIG1        0.0635
      8 C           1.1855   -0.4003    0.5773 C.1     1  LIG1       -0.0685
      9 C           2.3090   -0.2203    0.9660 C.1     1  LIG1       -0.1139
     10 H           3.3013   -0.0554    1.3183 H       1  LIG1        0.1232
     11 C          -0.8418    1.7779   -0.2402 C.ar    1  LIG1        0.0289
     12 C           0.3136    2.4512   -0.5054 C.ar    1  LIG1       -0.0304
     13 C           0.1519    3.8745   -0.4323 C.ar    1  LIG1        0.0405
     14 C          -1.1321    4.2477   -0.1107 C.ar    1  LIG1        0.0419
     15 S          -2.1378    2.8660    0.1287 S.2     1  LIG1       -0.0859
     16 H           1.2443    1.9696   -0.7626 H       1  LIG1        0.0641
     17 C           1.2178    4.7976   -0.7075 C.1     1  LIG1       -0.0685
     18 C           2.1261    5.5487   -0.9428 C.1     1  LIG1       -0.1139
     19 H           2.9258    6.2187   -1.1593 H       1  LIG1        0.1232
     20 C          -1.6593    5.6026    0.0517 C.ar    1  LIG1        0.0289
     21 C          -1.0053    6.6960    0.5350 C.ar    1  LIG1       -0.0304
     22 C          -1.8355    7.8650    0.5705 C.ar    1  LIG1        0.0405
     23 C          -3.1092    7.6269    0.1100 C.ar    1  LIG1        0.0419
     24 S          -3.2891    5.9878   -0.3962 S.2     1  LIG1       -0.0859
     25 H           0.0189    6.6822    0.8743 H       1  LIG1        0.0641
     26 C          -1.3796    9.1308    1.0743 C.1     1  LIG1       -0.0685
     27 C          -0.9725   10.1789    1.4984 C.1     1  LIG1       -0.1139
     28 H          -0.6192   11.1089    1.8801 H       1  LIG1        0.1232
     29 C          -4.2229    8.5728    0.0152 C.ar    1  LIG1        0.0283
     30 C          -4.1589    9.9091   -0.2504 C.ar    1  LIG1       -0.0310
     31 C          -5.4558   10.5265   -0.2579 C.ar    1  LIG1        0.0323
     32 C          -6.4600    9.6345   -0.0044 C.ar    1  LIG1       -0.0083
     33 S          -5.8589    8.0540    0.2625 S.2     1  LIG1       -0.0949
     34 H          -7.5167    9.8402    0.0420 H       1  LIG1        0.0706
     35 H          -3.2400   10.4408   -0.4420 H       1  LIG1        0.0641
     36 C          -5.6788   11.9248   -0.5139 C.1     1  LIG1       -0.0691
     37 C          -5.8585   13.0936   -0.7271 C.1     1  LIG1       -0.1139
     38 H          -6.0196   14.1296   -0.9176 H       1  LIG1        0.1232
@<TRIPOS>BOND
     1    19    18    1
     2    18    17    3
     3    38    37    1
     4    16    12    1
     5    37    36    3
     6     5     1   ar
     7     5     4   ar
     8    17    13    1
     9     6     1    1
    10    36    31    1
    11    12    13   ar
    12    12    11   ar
    13    35    30    1
    14     1     2   ar
    15    13    14   ar
    16    24    20   ar
    17    24    23   ar
    18    31    30   ar
    19    31    32   ar
    20    30    29   ar
    21    11     4    1
    22    11    15   ar
    23     4     3   ar
    24    14    20    1
    25    14    15   ar
    26     2     3   ar
    27     2     7    1
    28    32    34    1
    29    32    33   ar
    30    29    23    1
    31    29    33   ar
    32    20    21   ar
    33    23    22   ar
    34     3     8    1
    35    21    22   ar
    36    21    25    1
    37    22    26    1
    38     8     9    3
    39     9    10    1
    40    26    27    3
    41    27    28    1
