@<TRIPOS>MOLECULE
mol_data/opt/m06hf/geoms/mol2/5ae5ae-5ae.out
 29 31 0 0 0
SMALL
GASTEIGER

@<TRIPOS>ATOM
      1 C          -2.1391   -1.8721    0.0009 C.ar    1  LIG1       -0.0225
      2 C          -0.7853   -1.9258   -0.0006 C.ar    1  LIG1       -0.0387
      3 C          -0.1805   -0.6200   -0.0005 C.ar    1  LIG1        0.0399
      4 C          -1.1086    0.3965    0.0011 C.ar    1  LIG1        0.0413
      5 S          -2.7137   -0.2496    0.0026 S.2     1  LIG1       -0.0949
      6 H          -2.8394   -2.6911    0.0012 H       1  LIG1        0.0694
      7 H          -0.2047   -2.8352   -0.0019 H       1  LIG1        0.0635
      8 C           1.2453   -0.4519   -0.0021 C.1     1  LIG1       -0.0685
      9 C           2.4450   -0.3673   -0.0035 C.1     1  LIG1       -0.1139
     10 H           3.5080   -0.2906   -0.0047 H       1  LIG1        0.1232
     11 C          -0.8842    1.8434    0.0017 C.ar    1  LIG1        0.0289
     12 C           0.3002    2.5202    0.0016 C.ar    1  LIG1       -0.0304
     13 C           0.1308    3.9437    0.0022 C.ar    1  LIG1        0.0405
     14 C          -1.1903    4.3302    0.0026 C.ar    1  LIG1        0.0419
     15 S          -2.2230    2.9465    0.0023 S.2     1  LIG1       -0.0859
     16 H           1.2684    2.0469    0.0013 H       1  LIG1        0.0641
     17 C           1.2607    4.8304    0.0022 C.1     1  LIG1       -0.0685
     18 C           2.2402    5.5278    0.0022 C.1     1  LIG1       -0.1139
     19 H           3.1079    6.1461    0.0022 H       1  LIG1        0.1232
     20 C          -1.7542    5.6815    0.0031 C.ar    1  LIG1        0.0283
     21 C          -1.0913    6.8753    0.0032 C.ar    1  LIG1       -0.0310
     22 C          -1.9839    8.0005    0.0038 C.ar    1  LIG1        0.0323
     23 C          -3.2979    7.6282    0.0041 C.ar    1  LIG1       -0.0083
     24 S          -3.4763    5.9252    0.0038 S.2     1  LIG1       -0.0949
     25 H          -4.1597    8.2751    0.0046 H       1  LIG1        0.0706
     26 H          -0.0177    6.9694    0.0028 H       1  LIG1        0.0641
     27 C          -1.5438    9.3703    0.0039 C.1     1  LIG1       -0.0691
     28 C          -1.1675   10.5108    0.0041 C.1     1  LIG1       -0.1139
     29 H          -0.8355   11.5227    0.0041 H       1  LIG1        0.1232
@<TRIPOS>BOND
     1    10     9    1
     2     9     8    3
     3     8     3    1
     4     7     2    1
     5     2     3   ar
     6     2     1   ar
     7     3     4   ar
     8     1     6    1
     9     1     5   ar
    10     4    11    1
    11     4     5   ar
    12    16    12    1
    13    12    11   ar
    14    12    13   ar
    15    11    15   ar
    16    13    17    1
    17    13    14   ar
    18    19    18    1
    19    17    18    3
    20    15    14   ar
    21    14    20    1
    22    26    21    1
    23    20    21   ar
    24    20    24   ar
    25    21    22   ar
    26    22    27    1
    27    22    23   ar
    28    24    23   ar
    29    27    28    3
    30    28    29    1
    31    23    25    1
