@<TRIPOS>MOLECULE
mol_data/opt/m06hf/geoms/mol2/5ae5ae5ae-.out
 29 31 0 0 0
SMALL
GASTEIGER

@<TRIPOS>ATOM
      1 C          -2.0561   -1.9202   -0.0713 C.ar    1  LIG1       -0.0225
      2 C          -0.7396   -1.8963   -0.3968 C.ar    1  LIG1       -0.0387
      3 C          -0.1876   -0.5687   -0.3529 C.ar    1  LIG1        0.0399
      4 C          -1.1159    0.3764    0.0148 C.ar    1  LIG1        0.0413
      5 S          -2.6522   -0.3519    0.3117 S.2     1  LIG1       -0.0949
      6 H          -2.7146   -2.7724   -0.0288 H       1  LIG1        0.0694
      7 H          -0.1580   -2.7630   -0.6693 H       1  LIG1        0.0635
      8 C           1.1795   -0.2796   -0.6850 C.1     1  LIG1       -0.0685
      9 C           2.3281   -0.0655   -0.9676 C.1     1  LIG1       -0.1139
     10 H           3.3426    0.1336   -1.2250 H       1  LIG1        0.1232
     11 C          -0.9171    1.8197    0.1616 C.ar    1  LIG1        0.0289
     12 C           0.2162    2.4674    0.5543 C.ar    1  LIG1       -0.0304
     13 C           0.0538    3.8916    0.5910 C.ar    1  LIG1        0.0405
     14 C          -1.2089    4.2928    0.2238 C.ar    1  LIG1        0.0419
     15 S          -2.1911    2.9390   -0.1948 S.2     1  LIG1       -0.0859
     16 H           1.1320    1.9659    0.8269 H       1  LIG1        0.0641
     17 C           1.0981    4.7874    1.0062 C.1     1  LIG1       -0.0685
     18 C           1.9877    5.5151    1.3584 C.1     1  LIG1       -0.1139
     19 H           2.7710    6.1625    1.6791 H       1  LIG1        0.1232
     20 C          -1.7280    5.6600    0.1464 C.ar    1  LIG1        0.0283
     21 C          -1.0528    6.7805   -0.2370 C.ar    1  LIG1       -0.0310
     22 C          -1.8753    7.9571   -0.1866 C.ar    1  LIG1        0.0323
     23 C          -3.1493    7.6856    0.2279 C.ar    1  LIG1       -0.0083
     24 S          -3.3669    6.0236    0.5784 S.2     1  LIG1       -0.0949
     25 H          -3.9579    8.3883    0.3457 H       1  LIG1        0.0706
     26 H          -0.0210    6.7809   -0.5524 H       1  LIG1        0.0641
     27 C          -1.4150    9.2726   -0.5430 C.1     1  LIG1       -0.0691
     28 C          -1.0196   10.3667   -0.8416 C.1     1  LIG1       -0.1139
     29 H          -0.6718   11.3379   -1.1066 H       1  LIG1        0.1232
@<TRIPOS>BOND
     1    10     9    1
     2    29    28    1
     3     9     8    3
     4    28    27    3
     5     8     3    1
     6     7     2    1
     7    26    21    1
     8    27    22    1
     9     2     3   ar
    10     2     1   ar
    11     3     4   ar
    12    21    22   ar
    13    21    20   ar
    14    15    11   ar
    15    15    14   ar
    16    22    23   ar
    17     1     6    1
    18     1     5   ar
    19     4    11    1
    20     4     5   ar
    21    20    14    1
    22    20    24   ar
    23    11    12   ar
    24    14    13   ar
    25    23    25    1
    26    23    24   ar
    27    12    13   ar
    28    12    16    1
    29    13    17    1
    30    17    18    3
    31    18    19    1
