@<TRIPOS>MOLECULE
mol_data/opt/m06hf/geoms/mol2/5ae5ae-5ae-5ae.out
 38 41 0 0 0
SMALL
GASTEIGER

@<TRIPOS>ATOM
      1 C          -2.0206   -1.9687   -0.1919 C.ar    1  LIG1       -0.0225
      2 C          -0.7033   -1.9725    0.1323 C.ar    1  LIG1       -0.0387
      3 C          -0.1443   -0.6477    0.1693 C.ar    1  LIG1        0.0399
      4 C          -1.0684    0.3225   -0.1386 C.ar    1  LIG1        0.0413
      5 S          -2.6087   -0.3774   -0.4772 S.2     1  LIG1       -0.0949
      6 H          -2.6841   -2.8127   -0.2851 H       1  LIG1        0.0694
      7 H          -0.1252   -2.8572    0.3505 H       1  LIG1        0.0635
      8 C           1.2253   -0.3858    0.5150 C.1     1  LIG1       -0.0685
      9 C           2.3760   -0.1961    0.8077 C.1     1  LIG1       -0.1139
     10 H           3.3930   -0.0223    1.0749 H       1  LIG1        0.1232
     11 C          -0.8617    1.7706   -0.2039 C.ar    1  LIG1        0.0289
     12 C           0.2685    2.4334   -0.5804 C.ar    1  LIG1       -0.0304
     13 C           0.1124    3.8587   -0.5376 C.ar    1  LIG1        0.0405
     14 C          -1.1422    4.2437   -0.1261 C.ar    1  LIG1        0.0419
     15 S          -2.1249    2.8717    0.2341 S.2     1  LIG1       -0.0859
     16 H           1.1760    1.9427   -0.8962 H       1  LIG1        0.0641
     17 C           1.1524    4.7710   -0.9244 C.1     1  LIG1       -0.0685
     18 C           2.0387    5.5132   -1.2536 C.1     1  LIG1       -0.1139
     19 H           2.8181    6.1750   -1.5531 H       1  LIG1        0.1232
     20 C          -1.6555    5.6038    0.0369 C.ar    1  LIG1        0.0289
     21 C          -0.9657    6.7101    0.4335 C.ar    1  LIG1       -0.0304
     22 C          -1.7911    7.8812    0.4998 C.ar    1  LIG1        0.0405
     23 C          -3.0972    7.6317    0.1495 C.ar    1  LIG1        0.0419
     24 S          -3.3160    5.9784   -0.2911 S.2     1  LIG1       -0.0859
     25 H           0.0822    6.7046    0.6905 H       1  LIG1        0.0641
     26 C          -1.2972    9.1607    0.9272 C.1     1  LIG1       -0.0685
     27 C          -0.8582   10.2204    1.2858 C.1     1  LIG1       -0.1139
     28 H          -0.4762   11.1606    1.6102 H       1  LIG1        0.1232
     29 C          -4.2155    8.5764    0.1150 C.ar    1  LIG1        0.0283
     30 C          -4.1734    9.9041   -0.1949 C.ar    1  LIG1       -0.0310
     31 C          -5.4671   10.5233   -0.1180 C.ar    1  LIG1        0.0323
     32 C          -6.4476    9.6413    0.2412 C.ar    1  LIG1       -0.0083
     33 S          -5.8264    8.0683    0.5070 S.2     1  LIG1       -0.0949
     34 H          -7.4974    9.8502    0.3650 H       1  LIG1        0.0706
     35 H          -3.2729   10.4280   -0.4747 H       1  LIG1        0.0641
     36 C          -5.7106   11.9137   -0.3975 C.1     1  LIG1       -0.0691
     37 C          -5.9073   13.0759   -0.6309 C.1     1  LIG1       -0.1139
     38 H          -6.0837   14.1059   -0.8390 H       1  LIG1        0.1232
@<TRIPOS>BOND
     1    19    18    1
     2    18    17    3
     3    17    13    1
     4    16    12    1
     5    38    37    1
     6    37    36    3
     7    12    13   ar
     8    12    11   ar
     9    13    14   ar
    10     5     1   ar
    11     5     4   ar
    12    35    30    1
    13    36    31    1
    14    24    20   ar
    15    24    23   ar
    16     6     1    1
    17    11     4    1
    18    11    15   ar
    19    30    31   ar
    20    30    29   ar
    21     1     2   ar
    22     4     3   ar
    23    14    20    1
    24    14    15   ar
    25    31    32   ar
    26    20    21   ar
    27    29    23    1
    28    29    33   ar
    29     2     3   ar
    30     2     7    1
    31    23    22   ar
    32     3     8    1
    33    32    34    1
    34    32    33   ar
    35    21    22   ar
    36    21    25    1
    37    22    26    1
    38     8     9    3
    39     9    10    1
    40    26    27    3
    41    27    28    1
