@<TRIPOS>MOLECULE
mol_data/opt/m06hf/geoms/mol2/5af.out
 10 10 0 0 0
SMALL
GASTEIGER

@<TRIPOS>ATOM
      1 C          -2.0613   -1.7484   -0.0003 C.ar    1  LIG1       -0.0208
      2 C          -0.7059   -1.7138   -0.0004 C.ar    1  LIG1       -0.0131
      3 C          -0.2077   -0.3654   -0.0002 C.ar    1  LIG1        0.1238
      4 C          -1.1946    0.5695    0.0003 C.ar    1  LIG1        0.0172
      5 S          -2.7546   -0.1714    0.0015 S.2     1  LIG1       -0.1014
      6 H          -2.6991   -2.6171   -0.0005 H       1  LIG1        0.0694
      7 H          -1.0928    1.6426    0.0004 H       1  LIG1        0.0730
      8 H          -0.0577   -2.5765   -0.0010 H       1  LIG1        0.0659
      9 O           1.1363   -0.1500   -0.0005 O.3     1  LIG1       -0.5062
     10 H           1.3248    0.7940   -0.0005 H       1  LIG1        0.2922
@<TRIPOS>BOND
     1     8     2    1
     2     9    10    1
     3     9     3    1
     4     6     1    1
     5     2     1   ar
     6     2     3   ar
     7     1     5   ar
     8     3     4   ar
     9     4     7    1
    10     4     5   ar
