@<TRIPOS>MOLECULE
mol_data/opt/m06hf/geoms/mol2/5af5af5af5af.out
 34 37 0 0 0
SMALL
GASTEIGER

@<TRIPOS>ATOM
      1 C          -1.6483   -2.1576    0.1604 C.ar    1  LIG1       -0.0202
      2 C          -0.3727   -1.9640   -0.2609 C.ar    1  LIG1       -0.0125
      3 C          -0.0250   -0.5724   -0.2720 C.ar    1  LIG1        0.1321
      4 C          -1.0411    0.2410    0.1463 C.ar    1  LIG1        0.0674
      5 S          -2.4503   -0.6860    0.5544 S.2     1  LIG1       -0.0924
      6 H          -2.1701   -3.0949    0.2650 H       1  LIG1        0.0695
      7 H           0.3126   -2.7407   -0.5624 H       1  LIG1        0.0659
      8 O           1.1985   -0.1658   -0.6848 O.3     1  LIG1       -0.5056
      9 H           1.1964    0.7949   -0.7941 H       1  LIG1        0.2922
     10 C          -0.9677    1.6991    0.2308 C.ar    1  LIG1        0.0336
     11 C           0.0691    2.4338    0.7359 C.ar    1  LIG1       -0.0041
     12 C          -0.1606    3.8417    0.6159 C.ar    1  LIG1        0.1327
     13 C          -1.3586    4.1455    0.0307 C.ar    1  LIG1        0.0680
     14 S          -2.2241    2.7071   -0.4064 S.2     1  LIG1       -0.0833
     15 H           0.9328    2.0139    1.2320 H       1  LIG1        0.0666
     16 O           0.7397    4.7326    1.0905 O.3     1  LIG1       -0.5056
     17 H           0.3420    5.6144    1.1060 H       1  LIG1        0.2922
     18 C          -1.8702    5.5006   -0.1703 C.ar    1  LIG1        0.0336
     19 C          -1.1713    6.5725   -0.6527 C.ar    1  LIG1       -0.0041
     20 C          -1.9601    7.7676   -0.6623 C.ar    1  LIG1        0.1327
     21 C          -3.2309    7.5799   -0.1945 C.ar    1  LIG1        0.0679
     22 S          -3.4863    5.9331    0.2839 S.2     1  LIG1       -0.0833
     23 H          -0.1653    6.5224   -1.0448 H       1  LIG1        0.0666
     24 O          -1.4510    8.9295   -1.1320 O.3     1  LIG1       -0.5056
     25 H          -2.1656    9.5732   -1.2354 H       1  LIG1        0.2922
     26 C          -4.2585    8.6188   -0.1184 C.ar    1  LIG1        0.0330
     27 C          -4.0936    9.8947    0.3422 C.ar    1  LIG1       -0.0047
     28 C          -5.2985   10.6669    0.2353 C.ar    1  LIG1        0.1245
     29 C          -6.3385    9.9635   -0.2867 C.ar    1  LIG1        0.0178
     30 S          -5.8719    8.3508   -0.6863 S.2     1  LIG1       -0.0923
     31 H          -7.3480   10.3012   -0.4567 H       1  LIG1        0.0730
     32 H          -3.1877   10.2720    0.7955 H       1  LIG1        0.0666
     33 O          -5.2988   11.9591    0.6554 O.3     1  LIG1       -0.5062
     34 H          -6.1829   12.3359    0.5939 H       1  LIG1        0.2922
@<TRIPOS>BOND
     1    25    24    1
     2    24    20    1
     3    23    19    1
     4     9     8    1
     5    30    29   ar
     6    30    26   ar
     7     8     3    1
     8    20    19   ar
     9    20    21   ar
    10    19    18   ar
    11     7     2    1
    12    31    29    1
    13    14    13   ar
    14    14    10   ar
    15    29    28   ar
    16     3     2   ar
    17     3     4   ar
    18     2     1   ar
    19    21    26    1
    20    21    22   ar
    21    18    13    1
    22    18    22   ar
    23    26    27   ar
    24    13    12   ar
    25     4    10    1
    26     4     5   ar
    27     1     6    1
    28     1     5   ar
    29    10    11   ar
    30    28    27   ar
    31    28    33    1
    32    27    32    1
    33    34    33    1
    34    12    11   ar
    35    12    16    1
    36    11    15    1
    37    16    17    1
