@<TRIPOS>MOLECULE
mol_data/opt/m06hf/geoms/mol2/5af5af5af.out
 26 28 0 0 0
SMALL
GASTEIGER

@<TRIPOS>ATOM
      1 C          -1.8435   -2.0203    0.0941 C.ar    1  LIG1       -0.0202
      2 C          -0.5957   -1.8556   -0.4125 C.ar    1  LIG1       -0.0125
      3 C          -0.1975   -0.4777   -0.4006 C.ar    1  LIG1        0.1321
      4 C          -1.1502    0.3544    0.1175 C.ar    1  LIG1        0.0674
      5 S          -2.5587   -0.5370    0.5969 S.2     1  LIG1       -0.0924
      6 H          -2.3908   -2.9423    0.2046 H       1  LIG1        0.0695
      7 H           0.0357   -2.6445   -0.7909 H       1  LIG1        0.0659
      8 O           1.0074   -0.0998   -0.8889 O.3     1  LIG1       -0.5056
      9 H           1.0374    0.8641   -0.9592 H       1  LIG1        0.2922
     10 C          -1.0173    1.8053    0.2465 C.ar    1  LIG1        0.0336
     11 C           0.0746    2.4844    0.7113 C.ar    1  LIG1       -0.0041
     12 C          -0.1111    3.9029    0.6554 C.ar    1  LIG1        0.1327
     13 C          -1.3303    4.2694    0.1575 C.ar    1  LIG1        0.0679
     14 S          -2.2735    2.8797   -0.2756 S.2     1  LIG1       -0.0833
     15 H           0.9518    2.0162    1.1354 H       1  LIG1        0.0666
     16 O           0.8485    4.7461    1.1011 O.3     1  LIG1       -0.5056
     17 H           0.4840    5.6403    1.1622 H       1  LIG1        0.2922
     18 C          -1.7936    5.6510    0.0196 C.ar    1  LIG1        0.0330
     19 C          -1.0847    6.6974   -0.4987 C.ar    1  LIG1       -0.0047
     20 C          -1.8167    7.9299   -0.4341 C.ar    1  LIG1        0.1245
     21 C          -3.0526    7.7884    0.1146 C.ar    1  LIG1        0.0178
     22 S          -3.3460    6.1559    0.5941 S.2     1  LIG1       -0.0923
     23 H          -3.8043    8.5475    0.2591 H       1  LIG1        0.0730
     24 H          -0.1109    6.6099   -0.9598 H       1  LIG1        0.0666
     25 O          -1.2498    9.0659   -0.9189 O.3     1  LIG1       -0.5062
     26 H          -1.8417    9.8165   -0.8040 H       1  LIG1        0.2922
@<TRIPOS>BOND
     1    24    19    1
     2     9     8    1
     3    25    26    1
     4    25    20    1
     5     8     3    1
     6     7     2    1
     7    19    20   ar
     8    19    18   ar
     9    20    21   ar
    10     2     3   ar
    11     2     1   ar
    12     3     4   ar
    13    14    13   ar
    14    14    10   ar
    15    18    13    1
    16    18    22   ar
    17     1     6    1
    18     1     5   ar
    19    21    23    1
    20    21    22   ar
    21     4    10    1
    22     4     5   ar
    23    13    12   ar
    24    10    11   ar
    25    12    11   ar
    26    12    16    1
    27    11    15    1
    28    16    17    1
