@<TRIPOS>MOLECULE
mol_data/opt/m06hf/geoms/mol2/5af5af-.out
 18 19 0 0 0
SMALL
GASTEIGER

@<TRIPOS>ATOM
      1 C          -1.9899   -1.8594    0.3321 C.ar    1  LIG1       -0.0202
      2 C          -0.7077   -1.8136   -0.1101 C.ar    1  LIG1       -0.0125
      3 C          -0.2451   -0.4628   -0.2500 C.ar    1  LIG1        0.1321
      4 C          -1.1843    0.4671    0.0959 C.ar    1  LIG1        0.0674
      5 S          -2.6595   -0.2943    0.5918 S.2     1  LIG1       -0.0924
      6 H          -2.5876   -2.7354    0.5252 H       1  LIG1        0.0695
      7 H          -0.0936   -2.6697   -0.3423 H       1  LIG1        0.0659
      8 O           1.0032   -0.1979   -0.7033 O.3     1  LIG1       -0.5056
      9 H           1.0806    0.7483   -0.8885 H       1  LIG1        0.2922
     10 C          -0.9892    1.9165    0.0339 C.ar    1  LIG1        0.0330
     11 C           0.0981    2.6136    0.4772 C.ar    1  LIG1       -0.0047
     12 C          -0.0090    4.0174    0.1979 C.ar    1  LIG1        0.1245
     13 C          -1.1661    4.3499   -0.4336 C.ar    1  LIG1        0.0178
     14 S          -2.1438    2.9581   -0.7298 S.2     1  LIG1       -0.0923
     15 H          -1.4981    5.3308   -0.7331 H       1  LIG1        0.0730
     16 H           0.9219    2.1788    1.0254 H       1  LIG1        0.0666
     17 O           0.9932    4.8514    0.5830 O.3     1  LIG1       -0.5062
     18 H           0.7872    5.7604    0.3424 H       1  LIG1        0.2922
@<TRIPOS>BOND
     1     9     8    1
     2    15    13    1
     3    14    13   ar
     4    14    10   ar
     5     8     3    1
     6    13    12   ar
     7     7     2    1
     8     3     2   ar
     9     3     4   ar
    10     2     1   ar
    11    10     4    1
    12    10    11   ar
    13     4     5   ar
    14    12    11   ar
    15    12    17    1
    16     1     6    1
    17     1     5   ar
    18    18    17    1
    19    11    16    1
