@<TRIPOS>MOLECULE
mol_data/opt/m06hf/geoms/mol2/5af5af5af-.out
 26 28 0 0 0
SMALL
GASTEIGER

@<TRIPOS>ATOM
      1 C          -1.8413   -2.0206    0.0958 C.ar    1  LIG1       -0.0202
      2 C          -0.5934   -1.8553   -0.4104 C.ar    1  LIG1       -0.0125
      3 C          -0.1958   -0.4772   -0.3981 C.ar    1  LIG1        0.1321
      4 C          -1.1490    0.3543    0.1198 C.ar    1  LIG1        0.0674
      5 S          -2.5573   -0.5377    0.5987 S.2     1  LIG1       -0.0924
      6 H          -2.3882   -2.9429    0.2059 H       1  LIG1        0.0695
      7 H           0.0385   -2.6438   -0.7888 H       1  LIG1        0.0659
      8 O           1.0090   -0.0988   -0.8861 O.3     1  LIG1       -0.5056
      9 H           1.0387    0.8652   -0.9561 H       1  LIG1        0.2922
     10 C          -1.0167    1.8053    0.2491 C.ar    1  LIG1        0.0336
     11 C           0.0748    2.4847    0.7144 C.ar    1  LIG1       -0.0041
     12 C          -0.1116    3.9032    0.6588 C.ar    1  LIG1        0.1327
     13 C          -1.3308    4.2692    0.1605 C.ar    1  LIG1        0.0679
     14 S          -2.2733    2.8792   -0.2731 S.2     1  LIG1       -0.0833
     15 H           0.9520    2.0168    1.1387 H       1  LIG1        0.0666
     16 O           0.8476    4.7467    1.1049 O.3     1  LIG1       -0.5056
     17 H           0.4827    5.6407    1.1660 H       1  LIG1        0.2922
     18 C          -1.7947    5.6507    0.0228 C.ar    1  LIG1        0.0330
     19 C          -1.0860    6.6975   -0.4950 C.ar    1  LIG1       -0.0047
     20 C          -1.8185    7.9297   -0.4305 C.ar    1  LIG1        0.1245
     21 C          -3.0545    7.7875    0.1179 C.ar    1  LIG1        0.0178
     22 S          -3.3474    6.1548    0.5970 S.2     1  LIG1       -0.0923
     23 H          -3.8066    8.5463    0.2622 H       1  LIG1        0.0730
     24 H          -0.1120    6.6106   -0.9558 H       1  LIG1        0.0666
     25 O          -1.2520    9.0660   -0.9148 O.3     1  LIG1       -0.5062
     26 H          -1.8443    9.8163   -0.7999 H       1  LIG1        0.2922
@<TRIPOS>BOND
     1     9     8    1
     2    24    19    1
     3    25    26    1
     4    25    20    1
     5     8     3    1
     6     7     2    1
     7    19    20   ar
     8    19    18   ar
     9    20    21   ar
    10     2     3   ar
    11     2     1   ar
    12     3     4   ar
    13    14    13   ar
    14    14    10   ar
    15    18    13    1
    16    18    22   ar
    17     1     6    1
    18     1     5   ar
    19    21    23    1
    20    21    22   ar
    21     4    10    1
    22     4     5   ar
    23    13    12   ar
    24    10    11   ar
    25    12    11   ar
    26    12    16    1
    27    11    15    1
    28    16    17    1
