@<TRIPOS>MOLECULE
mol_data/opt/m06hf/geoms/mol2/5af5af-5af-5af.out
 34 37 0 0 0
SMALL
GASTEIGER

@<TRIPOS>ATOM
      1 C          -1.2728   -2.1357    0.7504 C.ar    1  LIG1       -0.0202
      2 C          -0.5900   -1.9449   -0.4063 C.ar    1  LIG1       -0.0125
      3 C          -0.3635   -0.5519   -0.6634 C.ar    1  LIG1        0.1321
      4 C          -0.8733    0.2654    0.3056 C.ar    1  LIG1        0.0674
      5 S          -1.6493   -0.6585    1.5526 S.2     1  LIG1       -0.0924
      6 H          -1.5784   -3.0732    1.1857 H       1  LIG1        0.0695
      7 H          -0.2541   -2.7244   -1.0724 H       1  LIG1        0.0659
      8 O           0.2813   -0.1505   -1.7841 O.3     1  LIG1       -0.5056
      9 H           0.2005    0.8087   -1.8759 H       1  LIG1        0.2922
     10 C          -0.7968    1.7269    0.2944 C.ar    1  LIG1        0.0336
     11 C           0.3097    2.4827    0.0247 C.ar    1  LIG1       -0.0041
     12 C           0.0199    3.8851    0.0391 C.ar    1  LIG1        0.1327
     13 C          -1.2852    4.1632    0.3354 C.ar    1  LIG1        0.0680
     14 S          -2.1983    2.7076    0.5708 S.2     1  LIG1       -0.0833
     15 H           1.3005    2.0814   -0.1353 H       1  LIG1        0.0666
     16 O           0.9851    4.7933   -0.2306 O.3     1  LIG1       -0.5056
     17 H           0.5862    5.6704   -0.3165 H       1  LIG1        0.2922
     18 C          -1.8563    5.5077    0.4184 C.ar    1  LIG1        0.0336
     19 C          -1.3139    6.5871    1.0595 C.ar    1  LIG1       -0.0041
     20 C          -2.1097    7.7659    0.8922 C.ar    1  LIG1        0.1327
     21 C          -3.2303    7.5584    0.1379 C.ar    1  LIG1        0.0679
     22 S          -3.3244    5.9139   -0.4053 S.2     1  LIG1       -0.0833
     23 H          -0.4278    6.5508    1.6774 H       1  LIG1        0.0666
     24 O          -1.7543    8.9308    1.4800 O.3     1  LIG1       -0.5056
     25 H          -2.4866    9.5593    1.4133 H       1  LIG1        0.2922
     26 C          -4.2396    8.5774   -0.1555 C.ar    1  LIG1        0.0330
     27 C          -4.0078    9.8546   -0.5800 C.ar    1  LIG1       -0.0047
     28 C          -5.2220   10.6092   -0.7068 C.ar    1  LIG1        0.1245
     29 C          -6.3319    9.8905   -0.3908 C.ar    1  LIG1        0.0178
     30 S          -5.9273    8.2849    0.0960 S.2     1  LIG1       -0.0923
     31 H          -7.3603   10.2126   -0.4228 H       1  LIG1        0.0730
     32 H          -3.0357   10.2466   -0.8455 H       1  LIG1        0.0666
     33 O          -5.1614   11.9013   -1.1234 O.3     1  LIG1       -0.5062
     34 H          -6.0425   12.2879   -1.1572 H       1  LIG1        0.2922
@<TRIPOS>BOND
     1     9     8    1
     2     8     3    1
     3    34    33    1
     4    33    28    1
     5     7     2    1
     6    32    27    1
     7    28    27   ar
     8    28    29   ar
     9     3     2   ar
    10     3     4   ar
    11    27    26   ar
    12    31    29    1
    13     2     1   ar
    14    22    21   ar
    15    22    18   ar
    16    29    30   ar
    17    17    16    1
    18    16    12    1
    19    26    30   ar
    20    26    21    1
    21    15    11    1
    22    11    12   ar
    23    11    10   ar
    24    12    13   ar
    25    21    20   ar
    26    10     4    1
    27    10    14   ar
    28     4     5   ar
    29    13    18    1
    30    13    14   ar
    31    18    19   ar
    32     1     6    1
    33     1     5   ar
    34    20    19   ar
    35    20    24    1
    36    19    23    1
    37    25    24    1
