@<TRIPOS>MOLECULE
mol_data/opt/m06hf/geoms/mol2/5af5af5af-5af.out
 34 37 0 0 0
SMALL
GASTEIGER

@<TRIPOS>ATOM
      1 C          -1.6639   -2.1425   -0.2166 C.ar    1  LIG1       -0.0202
      2 C          -0.3775   -1.9173   -0.5838 C.ar    1  LIG1       -0.0125
      3 C          -0.0282   -0.5313   -0.4630 C.ar    1  LIG1        0.1321
      4 C          -1.0547    0.2446   -0.0024 C.ar    1  LIG1        0.0674
      5 S          -2.4748   -0.7082    0.2826 S.2     1  LIG1       -0.0924
      6 H          -2.1893   -3.0836   -0.2092 H       1  LIG1        0.0695
      7 H           0.3155   -2.6667   -0.9330 H       1  LIG1        0.0659
      8 O           1.2059   -0.0959   -0.8081 O.3     1  LIG1       -0.5056
      9 H           1.2195    0.8707   -0.8067 H       1  LIG1        0.2922
     10 C          -0.9824    1.6899    0.2113 C.ar    1  LIG1        0.0336
     11 C           0.0204    2.3705    0.8440 C.ar    1  LIG1       -0.0041
     12 C          -0.1968    3.7857    0.8283 C.ar    1  LIG1        0.1327
     13 C          -1.3510    4.1477    0.1904 C.ar    1  LIG1        0.0680
     14 S          -2.1904    2.7592   -0.4213 S.2     1  LIG1       -0.0833
     15 H           0.8485    1.9021    1.3570 H       1  LIG1        0.0666
     16 O           0.6709    4.6254    1.4382 O.3     1  LIG1       -0.5056
     17 H           0.2761    5.5063    1.5005 H       1  LIG1        0.2922
     18 C          -1.8354    5.5210    0.0521 C.ar    1  LIG1        0.0336
     19 C          -1.0931    6.6114   -0.3064 C.ar    1  LIG1       -0.0041
     20 C          -1.8692    7.8148   -0.2993 C.ar    1  LIG1        0.1327
     21 C          -3.1767    7.6121    0.0421 C.ar    1  LIG1        0.0679
     22 S          -3.4782    5.9423    0.4034 S.2     1  LIG1       -0.0833
     23 H          -0.0575    6.5741   -0.6135 H       1  LIG1        0.0666
     24 O          -1.3055    9.0044   -0.6104 O.3     1  LIG1       -0.5056
     25 H          -1.9281    9.7163   -0.4079 H       1  LIG1        0.2922
     26 C          -4.1953    8.6612    0.1130 C.ar    1  LIG1        0.0330
     27 C          -4.4067    9.6547   -0.8000 C.ar    1  LIG1       -0.0047
     28 C          -5.4495   10.5516   -0.3904 C.ar    1  LIG1        0.1245
     29 C          -6.0059   10.2147    0.8038 C.ar    1  LIG1        0.0178
     30 S          -5.2542    8.8111    1.4747 S.2     1  LIG1       -0.0923
     31 H          -6.8133   10.7068    1.3216 H       1  LIG1        0.0730
     32 H          -3.8987    9.7328   -1.7511 H       1  LIG1        0.0666
     33 O          -5.7801   11.5955   -1.1947 O.3     1  LIG1       -0.5062
     34 H          -6.5046   12.1020   -0.8135 H       1  LIG1        0.2922
@<TRIPOS>BOND
     1    32    27    1
     2    33    34    1
     3    33    28    1
     4     7     2    1
     5     8     9    1
     6     8     3    1
     7    27    28   ar
     8    27    26   ar
     9    23    19    1
    10    24    25    1
    11    24    20    1
    12     2     3   ar
    13     2     1   ar
    14     3     4   ar
    15    14    13   ar
    16    14    10   ar
    17    28    29   ar
    18    19    20   ar
    19    19    18   ar
    20    20    21   ar
    21     1     6    1
    22     1     5   ar
    23     4    10    1
    24     4     5   ar
    25    21    26    1
    26    21    22   ar
    27    18    13    1
    28    18    22   ar
    29    26    30   ar
    30    13    12   ar
    31    10    11   ar
    32    29    31    1
    33    29    30   ar
    34    12    11   ar
    35    12    16    1
    36    11    15    1
    37    16    17    1
