@<TRIPOS>MOLECULE
mol_data/opt/m06hf/geoms/mol2/5af5af-5af5af.out
 34 37 0 0 0
SMALL
GASTEIGER

@<TRIPOS>ATOM
      1 C          -1.2511   -2.0505    1.1581 C.ar    1  LIG1       -0.0202
      2 C          -0.6786   -1.9763   -0.0700 C.ar    1  LIG1       -0.0125
      3 C          -0.4617   -0.6166   -0.4707 C.ar    1  LIG1        0.1321
      4 C          -0.8690    0.2930    0.4649 C.ar    1  LIG1        0.0674
      5 S          -1.5347   -0.5016    1.8548 S.2     1  LIG1       -0.0924
      6 H          -1.5246   -2.9395    1.7028 H       1  LIG1        0.0695
      7 H          -0.4159   -2.8184   -0.6910 H       1  LIG1        0.0659
      8 O           0.0818   -0.3274   -1.6764 O.3     1  LIG1       -0.5056
      9 H          -0.0155    0.6178   -1.8553 H       1  LIG1        0.2922
     10 C          -0.7796    1.7455    0.3137 C.ar    1  LIG1        0.0336
     11 C           0.2892    2.4499   -0.1659 C.ar    1  LIG1       -0.0041
     12 C           0.0175    3.8539   -0.2426 C.ar    1  LIG1        0.1327
     13 C          -1.2337    4.1870    0.1948 C.ar    1  LIG1        0.0680
     14 S          -2.1237    2.7783    0.6799 S.2     1  LIG1       -0.0833
     15 H           1.2478    2.0159   -0.4132 H       1  LIG1        0.0666
     16 O           0.9487    4.7141   -0.7144 O.3     1  LIG1       -0.5056
     17 H           0.5500    5.5882   -0.8276 H       1  LIG1        0.2922
     18 C          -1.7685    5.5485    0.2346 C.ar    1  LIG1        0.0336
     19 C          -1.1287    6.6601    0.7085 C.ar    1  LIG1       -0.0041
     20 C          -1.9140    7.8452    0.5380 C.ar    1  LIG1        0.1327
     21 C          -3.1298    7.6084   -0.0405 C.ar    1  LIG1        0.0679
     22 S          -3.3275    5.9283   -0.4184 S.2     1  LIG1       -0.0833
     23 H          -0.1659    6.6504    1.1999 H       1  LIG1        0.0666
     24 O          -1.4421    9.0508    0.9284 O.3     1  LIG1       -0.5056
     25 H          -2.0461    9.7442    0.6284 H       1  LIG1        0.2922
     26 C          -4.1354    8.6355   -0.3207 C.ar    1  LIG1        0.0330
     27 C          -4.5700    9.6047    0.5375 C.ar    1  LIG1       -0.0047
     28 C          -5.5165   10.4885   -0.0809 C.ar    1  LIG1        0.1245
     29 C          -5.7818   10.1651   -1.3752 C.ar    1  LIG1        0.0178
     30 S          -4.8649    8.7937   -1.8831 S.2     1  LIG1       -0.0923
     31 H          -6.4634   10.6531   -2.0533 H       1  LIG1        0.0730
     32 H          -4.2846    9.6740    1.5779 H       1  LIG1        0.0666
     33 O          -6.0467   11.5077    0.6447 O.3     1  LIG1       -0.5062
     34 H          -6.6727   12.0119    0.1148 H       1  LIG1        0.2922
@<TRIPOS>BOND
     1    31    29    1
     2    30    29   ar
     3    30    26   ar
     4     9     8    1
     5     8     3    1
     6    29    28   ar
     7    17    16    1
     8    16    12    1
     9     7     2    1
    10     3     2   ar
    11     3     4   ar
    12    22    21   ar
    13    22    18   ar
    14    15    11    1
    15    26    21    1
    16    26    27   ar
    17    12    11   ar
    18    12    13   ar
    19    11    10   ar
    20    28    27   ar
    21    28    33    1
    22     2     1   ar
    23    21    20   ar
    24    34    33    1
    25    13    18    1
    26    13    14   ar
    27    18    19   ar
    28    10     4    1
    29    10    14   ar
    30     4     5   ar
    31    27    32    1
    32    20    19   ar
    33    20    24    1
    34    25    24    1
    35    19    23    1
    36     1     6    1
    37     1     5   ar
