@<TRIPOS>MOLECULE
mol_data/opt/m06hf/geoms/mol2/5af5af-5af5af-.out
 34 37 0 0 0
SMALL
GASTEIGER

@<TRIPOS>ATOM
      1 C          -1.2462   -2.0439    1.1913 C.ar    1  LIG1       -0.0202
      2 C          -0.6806   -1.9769   -0.0404 C.ar    1  LIG1       -0.0125
      3 C          -0.4656   -0.6196   -0.4500 C.ar    1  LIG1        0.1321
      4 C          -0.8675    0.2954    0.4826 C.ar    1  LIG1        0.0674
      5 S          -1.5256   -0.4911    1.8807 S.2     1  LIG1       -0.0924
      6 H          -1.5169   -2.9298    1.7425 H       1  LIG1        0.0695
      7 H          -0.4215   -2.8226   -0.6581 H       1  LIG1        0.0659
      8 O           0.0713   -0.3374   -1.6604 O.3     1  LIG1       -0.5056
      9 H          -0.0269    0.6068   -1.8441 H       1  LIG1        0.2922
     10 C          -0.7786    1.7471    0.3227 C.ar    1  LIG1        0.0336
     11 C           0.2877    2.4484   -0.1669 C.ar    1  LIG1       -0.0041
     12 C           0.0159    3.8520   -0.2501 C.ar    1  LIG1        0.1327
     13 C          -1.2328    4.1879    0.1923 C.ar    1  LIG1        0.0680
     14 S          -2.1204    2.7823    0.6904 S.2     1  LIG1       -0.0833
     15 H           1.2449    2.0127   -0.4170 H       1  LIG1        0.0666
     16 O           0.9446    4.7093   -0.7319 O.3     1  LIG1       -0.5056
     17 H           0.5455    5.5827   -0.8481 H       1  LIG1        0.2922
     18 C          -1.7671    5.5498    0.2272 C.ar    1  LIG1        0.0336
     19 C          -1.1243    6.6640    0.6909 C.ar    1  LIG1       -0.0041
     20 C          -1.9103    7.8483    0.5178 C.ar    1  LIG1        0.1327
     21 C          -3.1294    7.6084   -0.0523 C.ar    1  LIG1        0.0679
     22 S          -3.3296    5.9261   -0.4192 S.2     1  LIG1       -0.0833
     23 H          -0.1588    6.6569    1.1769 H       1  LIG1        0.0666
     24 O          -1.4359    9.0561    0.8984 O.3     1  LIG1       -0.5056
     25 H          -2.0415    9.7478    0.5978 H       1  LIG1        0.2922
     26 C          -4.1364    8.6340   -0.3329 C.ar    1  LIG1        0.0330
     27 C          -4.5660    9.6084    0.5221 C.ar    1  LIG1       -0.0047
     28 C          -5.5157   10.4887   -0.0962 C.ar    1  LIG1        0.1245
     29 C          -5.7884   10.1577   -1.3870 C.ar    1  LIG1        0.0178
     30 S          -4.8746    8.7832   -1.8920 S.2     1  LIG1       -0.0923
     31 H          -6.4737   10.6419   -2.0641 H       1  LIG1        0.0730
     32 H          -4.2747    9.6837    1.5603 H       1  LIG1        0.0666
     33 O          -6.0416   11.5123    0.6263 O.3     1  LIG1       -0.5062
     34 H          -6.6705   12.0135    0.0970 H       1  LIG1        0.2922
@<TRIPOS>BOND
     1    31    29    1
     2    30    29   ar
     3    30    26   ar
     4     9     8    1
     5     8     3    1
     6    29    28   ar
     7    17    16    1
     8    16    12    1
     9     7     2    1
    10     3     2   ar
    11     3     4   ar
    12    22    21   ar
    13    22    18   ar
    14    15    11    1
    15    26    21    1
    16    26    27   ar
    17    12    11   ar
    18    12    13   ar
    19    11    10   ar
    20    28    27   ar
    21    28    33    1
    22    21    20   ar
    23     2     1   ar
    24    34    33    1
    25    13    18    1
    26    13    14   ar
    27    18    19   ar
    28    10     4    1
    29    10    14   ar
    30     4     5   ar
    31    20    19   ar
    32    20    24    1
    33    27    32    1
    34    25    24    1
    35    19    23    1
    36     1     6    1
    37     1     5   ar
