@<TRIPOS>MOLECULE
mol_data/opt/m06hf/geoms/mol2/5af5af.out
 18 19 0 0 0
SMALL
GASTEIGER

@<TRIPOS>ATOM
      1 C          -1.9913   -1.8595    0.3299 C.ar    1  LIG1       -0.0202
      2 C          -0.7060   -1.8137   -0.1033 C.ar    1  LIG1       -0.0125
      3 C          -0.2428   -0.4629   -0.2414 C.ar    1  LIG1        0.1321
      4 C          -1.1847    0.4670    0.0968 C.ar    1  LIG1        0.0674
      5 S          -2.6632   -0.2942    0.5831 S.2     1  LIG1       -0.0924
      6 H          -2.5901   -2.7354    0.5197 H       1  LIG1        0.0695
      7 H          -0.0900   -2.6699   -0.3301 H       1  LIG1        0.0659
      8 O           1.0086   -0.1982   -0.6861 O.3     1  LIG1       -0.5056
      9 H           1.0871    0.7478   -0.8717 H       1  LIG1        0.2922
     10 C          -0.9896    1.9165    0.0346 C.ar    1  LIG1        0.0330
     11 C           0.0943    2.6143    0.4849 C.ar    1  LIG1       -0.0047
     12 C          -0.0112    4.0178    0.2034 C.ar    1  LIG1        0.1245
     13 C          -1.1639    4.3492   -0.4368 C.ar    1  LIG1        0.0178
     14 S          -2.1390    2.9568   -0.7384 S.2     1  LIG1       -0.0923
     15 H          -1.4940    5.3298   -0.7397 H       1  LIG1        0.0730
     16 H           0.9143    2.1803    1.0395 H       1  LIG1        0.0666
     17 O           0.9880    4.8525    0.5947 O.3     1  LIG1       -0.5062
     18 H           0.7834    5.7612    0.3516 H       1  LIG1        0.2922
@<TRIPOS>BOND
     1     9     8    1
     2    15    13    1
     3    14    13   ar
     4    14    10   ar
     5     8     3    1
     6    13    12   ar
     7     7     2    1
     8     3     2   ar
     9     3     4   ar
    10     2     1   ar
    11    10     4    1
    12    10    11   ar
    13     4     5   ar
    14    12    11   ar
    15    12    17    1
    16     1     6    1
    17     1     5   ar
    18    18    17    1
    19    11    16    1
