@<TRIPOS>MOLECULE
mol_data/opt/m06hf/geoms/mol2/5af5af-5af-5af-.out
 34 37 0 0 0
SMALL
GASTEIGER

@<TRIPOS>ATOM
      1 C          -1.2765   -2.1343    0.7659 C.ar    1  LIG1       -0.0202
      2 C          -0.6125   -1.9501   -0.4027 C.ar    1  LIG1       -0.0125
      3 C          -0.3871   -0.5588   -0.6696 C.ar    1  LIG1        0.1321
      4 C          -0.8792    0.2639    0.3041 C.ar    1  LIG1        0.0674
      5 S          -1.6366   -0.6528    1.5677 S.2     1  LIG1       -0.0924
      6 H          -1.5770   -3.0692    1.2104 H       1  LIG1        0.0695
      7 H          -0.2893   -2.7333   -1.0708 H       1  LIG1        0.0659
      8 O           0.2400   -0.1638   -1.8025 O.3     1  LIG1       -0.5056
      9 H           0.1605    0.7953   -1.8969 H       1  LIG1        0.2922
     10 C          -0.7996    1.7252    0.2851 C.ar    1  LIG1        0.0336
     11 C           0.3041    2.4771   -0.0057 C.ar    1  LIG1       -0.0041
     12 C           0.0179    3.8803    0.0071 C.ar    1  LIG1        0.1327
     13 C          -1.2816    4.1628    0.3232 C.ar    1  LIG1        0.0680
     14 S          -2.1942    2.7103    0.5798 S.2     1  LIG1       -0.0833
     15 H           1.2914    2.0728   -0.1799 H       1  LIG1        0.0666
     16 O           0.9806    4.7850   -0.2823 O.3     1  LIG1       -0.5056
     17 H           0.5824    5.6627   -0.3654 H       1  LIG1        0.2922
     18 C          -1.8482    5.5090    0.4096 C.ar    1  LIG1        0.0336
     19 C          -1.2930    6.5898    1.0371 C.ar    1  LIG1       -0.0041
     20 C          -2.0887    7.7697    0.8777 C.ar    1  LIG1        0.1327
     21 C          -3.2218    7.5617    0.1424 C.ar    1  LIG1        0.0679
     22 S          -3.3285    5.9151   -0.3920 S.2     1  LIG1       -0.0833
     23 H          -0.3972    6.5540    1.6408 H       1  LIG1        0.0666
     24 O          -1.7211    8.9363    1.4546 O.3     1  LIG1       -0.5056
     25 H          -2.4529    9.5663    1.3970 H       1  LIG1        0.2922
     26 C          -4.2335    8.5818   -0.1389 C.ar    1  LIG1        0.0330
     27 C          -4.0056    9.8567   -0.5724 C.ar    1  LIG1       -0.0047
     28 C          -5.2200   10.6135   -0.6829 C.ar    1  LIG1        0.1245
     29 C          -6.3263    9.8988   -0.3460 C.ar    1  LIG1        0.0178
     30 S          -5.9175    8.2943    0.1411 S.2     1  LIG1       -0.0923
     31 H          -7.3544   10.2231   -0.3629 H       1  LIG1        0.0730
     32 H          -3.0371   10.2453   -0.8553 H       1  LIG1        0.0666
     33 O          -5.1633   11.9037   -1.1060 O.3     1  LIG1       -0.5062
     34 H          -6.0439   12.2924   -1.1267 H       1  LIG1        0.2922
@<TRIPOS>BOND
     1     9     8    1
     2     8     3    1
     3    34    33    1
     4    33    28    1
     5     7     2    1
     6    32    27    1
     7    28    27   ar
     8    28    29   ar
     9     3     2   ar
    10     3     4   ar
    11    27    26   ar
    12     2     1   ar
    13    22    21   ar
    14    22    18   ar
    15    17    16    1
    16    31    29    1
    17    29    30   ar
    18    16    12    1
    19    15    11    1
    20    26    30   ar
    21    26    21    1
    22    11    12   ar
    23    11    10   ar
    24    12    13   ar
    25    21    20   ar
    26    10     4    1
    27    10    14   ar
    28     4     5   ar
    29    13    18    1
    30    13    14   ar
    31    18    19   ar
    32     1     6    1
    33     1     5   ar
    34    20    19   ar
    35    20    24    1
    36    19    23    1
    37    25    24    1
