@<TRIPOS>MOLECULE
mol_data/opt/m06hf/geoms/mol2/5af5af-5af-.out
 26 28 0 0 0
SMALL
GASTEIGER

@<TRIPOS>ATOM
      1 C          -1.7877   -1.9679    0.6807 C.ar    1  LIG1       -0.0202
      2 C          -0.7164   -1.8965   -0.1483 C.ar    1  LIG1       -0.0125
      3 C          -0.3251   -0.5379   -0.3918 C.ar    1  LIG1        0.1321
      4 C          -1.1048    0.3734    0.2635 C.ar    1  LIG1        0.0674
      5 S          -2.3436   -0.4177    1.1844 S.2     1  LIG1       -0.0924
      6 H          -2.2895   -2.8554    1.0309 H       1  LIG1        0.0695
      7 H          -0.2074   -2.7398   -0.5880 H       1  LIG1        0.0659
      8 O           0.7109   -0.2516   -1.2154 O.3     1  LIG1       -0.5056
      9 H           0.7123    0.6952   -1.4120 H       1  LIG1        0.2922
     10 C          -0.9340    1.8245    0.2013 C.ar    1  LIG1        0.0336
     11 C           0.2458    2.5104    0.2736 C.ar    1  LIG1       -0.0041
     12 C           0.0567    3.9233    0.1343 C.ar    1  LIG1        0.1327
     13 C          -1.2527    4.2815   -0.0199 C.ar    1  LIG1        0.0679
     14 S          -2.2847    2.8866   -0.0392 S.2     1  LIG1       -0.0833
     15 H           1.2078    2.0573    0.4676 H       1  LIG1        0.0666
     16 O           1.1125    4.7691    0.1640 O.3     1  LIG1       -0.5056
     17 H           0.8206    5.6543   -0.0950 H       1  LIG1        0.2922
     18 C          -1.7335    5.6572   -0.1556 C.ar    1  LIG1        0.0330
     19 C          -1.3409    6.7331    0.5893 C.ar    1  LIG1       -0.0047
     20 C          -1.9721    7.9473    0.1578 C.ar    1  LIG1        0.1245
     21 C          -2.8279    7.7638   -0.8825 C.ar    1  LIG1        0.0178
     22 S          -2.8651    6.1118   -1.3841 S.2     1  LIG1       -0.0923
     23 H          -3.4357    8.5037   -1.3780 H       1  LIG1        0.0730
     24 H          -0.6815    6.6792    1.4445 H       1  LIG1        0.0666
     25 O          -1.6862    9.1098    0.8008 O.3     1  LIG1       -0.5062
     26 H          -2.2099    9.8335    0.4423 H       1  LIG1        0.2922
@<TRIPOS>BOND
     1     9     8    1
     2    22    21   ar
     3    22    18   ar
     4    23    21    1
     5     8     3    1
     6    21    20   ar
     7     7     2    1
     8     3     2   ar
     9     3     4   ar
    10    18    13    1
    11    18    19   ar
    12     2     1   ar
    13    17    16    1
    14    14    13   ar
    15    14    10   ar
    16    13    12   ar
    17    12    16    1
    18    12    11   ar
    19    20    19   ar
    20    20    25    1
    21    10     4    1
    22    10    11   ar
    23     4     5   ar
    24    11    15    1
    25    26    25    1
    26    19    24    1
    27     1     6    1
    28     1     5   ar
