@<TRIPOS>MOLECULE
mol_data/opt/m06hf/geoms/mol2/5af5af-5af.out
 26 28 0 0 0
SMALL
GASTEIGER

@<TRIPOS>ATOM
      1 C          -1.7715   -1.9693    0.6845 C.ar    1  LIG1       -0.0202
      2 C          -0.7215   -1.8961   -0.1711 C.ar    1  LIG1       -0.0125
      3 C          -0.3362   -0.5371   -0.4214 C.ar    1  LIG1        0.1321
      4 C          -1.0989    0.3728    0.2554 C.ar    1  LIG1        0.0674
      5 S          -2.3141   -0.4201    1.2056 S.2     1  LIG1       -0.0924
      6 H          -2.2645   -2.8574    1.0454 H       1  LIG1        0.0695
      7 H          -0.2239   -2.7386   -0.6255 H       1  LIG1        0.0659
      8 O           0.6787   -0.2491   -1.2703 O.3     1  LIG1       -0.5056
      9 H           0.6753    0.6981   -1.4648 H       1  LIG1        0.2922
     10 C          -0.9294    1.8240    0.1922 C.ar    1  LIG1        0.0336
     11 C           0.2521    2.5096    0.2361 C.ar    1  LIG1       -0.0041
     12 C           0.0598    3.9229    0.1048 C.ar    1  LIG1        0.1327
     13 C          -1.2531    4.2816   -0.0155 C.ar    1  LIG1        0.0679
     14 S          -2.2855    2.8869   -0.0117 S.2     1  LIG1       -0.0833
     15 H           1.2185    2.0559    0.4047 H       1  LIG1        0.0666
     16 O           1.1162    4.7684    0.1097 O.3     1  LIG1       -0.5056
     17 H           0.8180    5.6542   -0.1399 H       1  LIG1        0.2922
     18 C          -1.7368    5.6577   -0.1358 C.ar    1  LIG1        0.0330
     19 C          -1.3252    6.7318    0.6013 C.ar    1  LIG1       -0.0047
     20 C          -1.9669    7.9471    0.1886 C.ar    1  LIG1        0.1245
     21 C          -2.8488    7.7661   -0.8302 C.ar    1  LIG1        0.0178
     22 S          -2.8990    6.1152   -1.3343 S.2     1  LIG1       -0.0923
     23 H          -3.4688    8.5072   -1.3085 H       1  LIG1        0.0730
     24 H          -0.6444    6.6759    1.4394 H       1  LIG1        0.0666
     25 O          -1.6645    9.1081    0.8267 O.3     1  LIG1       -0.5062
     26 H          -2.1970    9.8327    0.4832 H       1  LIG1        0.2922
@<TRIPOS>BOND
     1     9     8    1
     2    22    21   ar
     3    22    18   ar
     4    23    21    1
     5     8     3    1
     6    21    20   ar
     7     7     2    1
     8     3     2   ar
     9     3     4   ar
    10     2     1   ar
    11    17    16    1
    12    18    13    1
    13    18    19   ar
    14    13    14   ar
    15    13    12   ar
    16    14    10   ar
    17    12    16    1
    18    12    11   ar
    19    20    19   ar
    20    20    25    1
    21    10    11   ar
    22    10     4    1
    23    11    15    1
    24     4     5   ar
    25    26    25    1
    26    19    24    1
    27     1     6    1
    28     1     5   ar
