@<TRIPOS>MOLECULE
mol_data/opt/m06hf/geoms/mol2/5af5af5af-5af-.out
 34 37 0 0 0
SMALL
GASTEIGER

@<TRIPOS>ATOM
      1 C          -1.6685   -2.1432   -0.1997 C.ar    1  LIG1       -0.0202
      2 C          -0.3845   -1.9198   -0.5763 C.ar    1  LIG1       -0.0125
      3 C          -0.0338   -0.5337   -0.4622 C.ar    1  LIG1        0.1321
      4 C          -1.0568    0.2442    0.0029 C.ar    1  LIG1        0.0674
      5 S          -2.4754   -0.7071    0.3006 S.2     1  LIG1       -0.0924
      6 H          -2.1943   -3.0841   -0.1858 H       1  LIG1        0.0695
      7 H           0.3057   -2.6707   -0.9280 H       1  LIG1        0.0659
      8 O           1.1981   -0.1000   -0.8171 O.3     1  LIG1       -0.5056
      9 H           1.2122    0.8667   -0.8188 H       1  LIG1        0.2922
     10 C          -0.9823    1.6901    0.2116 C.ar    1  LIG1        0.0336
     11 C           0.0251    2.3721    0.8353 C.ar    1  LIG1       -0.0041
     12 C          -0.1915    3.7875    0.8167 C.ar    1  LIG1        0.1327
     13 C          -1.3499    4.1480    0.1856 C.ar    1  LIG1        0.0680
     14 S          -2.1941    2.7580   -0.4161 S.2     1  LIG1       -0.0833
     15 H           0.8564    1.9049    1.3442 H       1  LIG1        0.0666
     16 O           0.6807    4.6286    1.4181 O.3     1  LIG1       -0.5056
     17 H           0.2867    5.5099    1.4803 H       1  LIG1        0.2922
     18 C          -1.8346    5.5211    0.0462 C.ar    1  LIG1        0.0336
     19 C          -1.0942    6.6100   -0.3207 C.ar    1  LIG1       -0.0041
     20 C          -1.8697    7.8138   -0.3120 C.ar    1  LIG1        0.1327
     21 C          -3.1749    7.6129    0.0389 C.ar    1  LIG1        0.0679
     22 S          -3.4748    5.9443    0.4074 S.2     1  LIG1       -0.0833
     23 H          -0.0607    6.5712   -0.6347 H       1  LIG1        0.0666
     24 O          -1.3075    9.0021   -0.6306 O.3     1  LIG1       -0.5056
     25 H          -1.9284    9.7150   -0.4261 H       1  LIG1        0.2922
     26 C          -4.1926    8.6626    0.1135 C.ar    1  LIG1        0.0330
     27 C          -4.4096    9.6534   -0.8012 C.ar    1  LIG1       -0.0047
     28 C          -5.4492   10.5520   -0.3873 C.ar    1  LIG1        0.1245
     29 C          -5.9977   10.2192    0.8117 C.ar    1  LIG1        0.0178
     30 S          -5.2421    8.8173    1.4818 S.2     1  LIG1       -0.0923
     31 H          -6.8012   10.7133    1.3335 H       1  LIG1        0.0730
     32 H          -3.9081    9.7283   -1.7559 H       1  LIG1        0.0666
     33 O          -5.7848   11.5936   -1.1926 O.3     1  LIG1       -0.5062
     34 H          -6.5065   12.1017   -0.8080 H       1  LIG1        0.2922
@<TRIPOS>BOND
     1    32    27    1
     2    33    34    1
     3    33    28    1
     4     7     2    1
     5     9     8    1
     6     8     3    1
     7    27    28   ar
     8    27    26   ar
     9    23    19    1
    10    24    25    1
    11    24    20    1
    12     2     3   ar
    13     2     1   ar
    14     3     4   ar
    15    14    13   ar
    16    14    10   ar
    17    28    29   ar
    18    19    20   ar
    19    19    18   ar
    20    20    21   ar
    21     1     6    1
    22     1     5   ar
    23     4    10    1
    24     4     5   ar
    25    21    26    1
    26    21    22   ar
    27    18    13    1
    28    18    22   ar
    29    26    30   ar
    30    13    12   ar
    31    10    11   ar
    32    29    31    1
    33    29    30   ar
    34    12    11   ar
    35    12    16    1
    36    11    15    1
    37    16    17    1
