@<TRIPOS>MOLECULE
mol_data/opt/m06hf/geoms/mol2/5ag.out
 10 10 0 0 0
SMALL
GASTEIGER

@<TRIPOS>ATOM
      1 C          -2.1141   -1.7666   -0.0000 C.ar    1  LIG1       -0.0233
      2 C          -0.7575   -1.7309   -0.0005 C.ar    1  LIG1       -0.0415
      3 C          -0.2497   -0.3843   -0.0002 C.ar    1  LIG1        0.0117
      4 C          -1.2407    0.5455    0.0004 C.ar    1  LIG1       -0.0112
      5 S          -2.8007   -0.1891    0.0010 S.2     1  LIG1       -0.1040
      6 H          -2.7518   -2.6356   -0.0002 H       1  LIG1        0.0694
      7 H          -1.1450    1.6193    0.0007 H       1  LIG1        0.0704
      8 H          -0.1269   -2.6076   -0.0010 H       1  LIG1        0.0634
      9 S           1.5012   -0.0876   -0.0008 S.3     1  LIG1       -0.1421
     10 H           1.4207    1.2471   -0.0006 H       1  LIG1        0.1071
@<TRIPOS>BOND
     1     8     2    1
     2     9    10    1
     3     9     3    1
     4     2     3   ar
     5     2     1   ar
     6     3     4   ar
     7     6     1    1
     8     1     5   ar
     9     4     7    1
    10     4     5   ar
