@<TRIPOS>MOLECULE
mol_data/opt/m06hf/geoms/mol2/5ag5ag5ag5ag-.out
 34 37 0 0 0
SMALL
GASTEIGER

@<TRIPOS>ATOM
      1 C          -1.8984   -2.0498    0.1640 C.ar    1  LIG1       -0.0227
      2 C          -0.6012   -1.9896   -0.2320 C.ar    1  LIG1       -0.0409
      3 C          -0.1021   -0.6433   -0.2702 C.ar    1  LIG1        0.0200
      4 C          -1.0435    0.2752    0.1061 C.ar    1  LIG1        0.0391
      5 S          -2.5460   -0.4941    0.4987 S.2     1  LIG1       -0.0950
      6 H          -2.5168   -2.9264    0.2693 H       1  LIG1        0.0694
      7 H          -0.0075   -2.8485   -0.5077 H       1  LIG1        0.0634
      8 S           1.5669   -0.3224   -0.7771 S.3     1  LIG1       -0.1415
      9 H           1.3488    0.9363   -1.1784 H       1  LIG1        0.1071
     10 C          -0.8973    1.7317    0.2074 C.ar    1  LIG1        0.0286
     11 C           0.1272    2.4231    0.7864 C.ar    1  LIG1       -0.0326
     12 C          -0.0562    3.8431    0.7235 C.ar    1  LIG1        0.0206
     13 C          -1.2220    4.1952    0.0983 C.ar    1  LIG1        0.0397
     14 S          -2.0999    2.7989   -0.4316 S.2     1  LIG1       -0.0861
     15 H           0.9619    1.9450    1.2798 H       1  LIG1        0.0640
     16 S           1.1469    4.9331    1.4364 S.3     1  LIG1       -0.1415
     17 H           0.3200    5.9773    1.5707 H       1  LIG1        0.1071
     18 C          -1.7428    5.5473   -0.1360 C.ar    1  LIG1        0.0286
     19 C          -1.0808    6.6037   -0.6916 C.ar    1  LIG1       -0.0326
     20 C          -1.8868    7.7865   -0.7645 C.ar    1  LIG1        0.0206
     21 C          -3.1461    7.5955   -0.2623 C.ar    1  LIG1        0.0397
     22 S          -3.3569    5.9757    0.3121 S.2     1  LIG1       -0.0861
     23 H          -0.0702    6.5388   -1.0701 H       1  LIG1        0.0640
     24 S          -1.2269    9.2721   -1.4704 S.3     1  LIG1       -0.1415
     25 H          -2.4128    9.8370   -1.7330 H       1  LIG1        0.1071
     26 C          -4.2367    8.5742   -0.1706 C.ar    1  LIG1        0.0280
     27 C          -4.1693    9.8377    0.3411 C.ar    1  LIG1       -0.0332
     28 C          -5.4256   10.5272    0.2685 C.ar    1  LIG1        0.0124
     29 C          -6.4065    9.7628   -0.2840 C.ar    1  LIG1       -0.0105
     30 S          -5.8289    8.2060   -0.7370 S.2     1  LIG1       -0.0950
     31 H          -7.4360   10.0312   -0.4599 H       1  LIG1        0.0704
     32 H          -3.2730   10.2547    0.7793 H       1  LIG1        0.0640
     33 S          -5.5654   12.1980    0.8499 S.3     1  LIG1       -0.1421
     34 H          -6.8999   12.2347    0.8613 H       1  LIG1        0.1071
@<TRIPOS>BOND
     1    25    24    1
     2    24    20    1
     3     9     8    1
     4    23    19    1
     5     8     3    1
     6    20    19   ar
     7    20    21   ar
     8    30    29   ar
     9    30    26   ar
    10    19    18   ar
    11     7     2    1
    12    31    29    1
    13    14    13   ar
    14    14    10   ar
    15    29    28   ar
    16     3     2   ar
    17     3     4   ar
    18    21    26    1
    19    21    22   ar
    20     2     1   ar
    21    26    27   ar
    22    18    13    1
    23    18    22   ar
    24    13    12   ar
    25     4    10    1
    26     4     5   ar
    27     1     6    1
    28     1     5   ar
    29    10    11   ar
    30    28    27   ar
    31    28    33    1
    32    27    32    1
    33    12    11   ar
    34    12    16    1
    35    11    15    1
    36    33    34    1
    37    16    17    1
