@<TRIPOS>MOLECULE
mol_data/opt/m06hf/geoms/mol2/5ag5ag5ag-5ag.out
 34 37 0 0 0
SMALL
GASTEIGER

@<TRIPOS>ATOM
      1 C          -1.9562   -2.0185   -0.2261 C.ar    1  LIG1       -0.0227
      2 C          -0.6848   -1.8976   -0.6870 C.ar    1  LIG1       -0.0409
      3 C          -0.1915   -0.5522   -0.5825 C.ar    1  LIG1        0.0200
      4 C          -1.1105    0.3008   -0.0374 C.ar    1  LIG1        0.0391
      5 S          -2.5842   -0.5253    0.3461 S.2     1  LIG1       -0.0950
      6 H          -2.5649   -2.9077   -0.1963 H       1  LIG1        0.0694
      7 H          -0.1081   -2.7103   -1.1033 H       1  LIG1        0.0634
      8 S           1.4357   -0.1466   -1.1561 S.3     1  LIG1       -0.1415
      9 H           1.2275    1.1733   -1.2293 H       1  LIG1        0.1071
     10 C          -0.9583    1.7386    0.2217 C.ar    1  LIG1        0.0286
     11 C           0.0304    2.3499    0.9357 C.ar    1  LIG1       -0.0326
     12 C          -0.1174    3.7763    0.9792 C.ar    1  LIG1        0.0206
     13 C          -1.2193    4.2085    0.2928 C.ar    1  LIG1        0.0397
     14 S          -2.0820    2.8872   -0.4195 S.2     1  LIG1       -0.0861
     15 H           0.8183    1.8069    1.4393 H       1  LIG1        0.0640
     16 S           1.0318    4.7700    1.8882 S.3     1  LIG1       -0.1415
     17 H           0.3097    5.8955    1.8206 H       1  LIG1        0.1071
     18 C          -1.6857    5.5921    0.1266 C.ar    1  LIG1        0.0286
     19 C          -0.9840    6.6425   -0.3894 C.ar    1  LIG1       -0.0326
     20 C          -1.7340    7.8644   -0.3840 C.ar    1  LIG1        0.0206
     21 C          -2.9935    7.7028    0.1255 C.ar    1  LIG1        0.0397
     22 S          -3.2692    6.0690    0.6266 S.2     1  LIG1       -0.0861
     23 H           0.0244    6.5525   -0.7686 H       1  LIG1        0.0640
     24 S          -1.0179    9.3698   -0.9815 S.3     1  LIG1       -0.1415
     25 H          -2.0031   10.1616   -0.5384 H       1  LIG1        0.1071
     26 C          -4.0398    8.7268    0.2592 C.ar    1  LIG1        0.0280
     27 C          -4.6253    9.4472   -0.7411 C.ar    1  LIG1       -0.0332
     28 C          -5.5965   10.3808   -0.2480 C.ar    1  LIG1        0.0124
     29 C          -5.7098   10.3470    1.1096 C.ar    1  LIG1       -0.0105
     30 S          -4.6485    9.1963    1.8131 S.2     1  LIG1       -0.0950
     31 H          -6.3690   10.9429    1.7204 H       1  LIG1        0.0704
     32 H          -4.3866    9.3179   -1.7875 H       1  LIG1        0.0640
     33 S          -6.5212   11.5049   -1.2736 S.3     1  LIG1       -0.1421
     34 H          -7.3991   10.5997   -1.7213 H       1  LIG1        0.1071
@<TRIPOS>BOND
     1    32    27    1
     2    34    33    1
     3    33    28    1
     4     9     8    1
     5     8     3    1
     6     7     2    1
     7    24    25    1
     8    24    20    1
     9    23    19    1
    10    27    28   ar
    11    27    26   ar
    12     2     3   ar
    13     2     1   ar
    14     3     4   ar
    15    14    10   ar
    16    14    13   ar
    17    19    20   ar
    18    19    18   ar
    19    20    21   ar
    20    28    29   ar
    21     1     6    1
    22     1     5   ar
    23     4    10    1
    24     4     5   ar
    25    21    26    1
    26    21    22   ar
    27    18    13    1
    28    18    22   ar
    29    10    11   ar
    30    26    30   ar
    31    13    12   ar
    32    11    12   ar
    33    11    15    1
    34    12    16    1
    35    29    31    1
    36    29    30   ar
    37    17    16    1
