@<TRIPOS>MOLECULE
mol_data/opt/m06hf/geoms/mol2/5ag5ag-5ag-.out
 26 28 0 0 0
SMALL
GASTEIGER

@<TRIPOS>ATOM
      1 C          -1.8916   -1.8786    0.8944 C.ar    1  LIG1       -0.0227
      2 C          -0.8986   -1.9174   -0.0308 C.ar    1  LIG1       -0.0409
      3 C          -0.4244   -0.6067   -0.3802 C.ar    1  LIG1        0.0200
      4 C          -1.0761    0.3837    0.3005 C.ar    1  LIG1        0.0391
      5 S          -2.2755   -0.2720    1.3656 S.2     1  LIG1       -0.0950
      6 H          -2.4256   -2.7115    1.3222 H       1  LIG1        0.0694
      7 H          -0.5133   -2.8245   -0.4726 H       1  LIG1        0.0634
      8 S           0.8522   -0.4178   -1.5930 S.3     1  LIG1       -0.1415
      9 H           0.6351    0.8835   -1.8236 H       1  LIG1        0.1071
     10 C          -0.8522    1.8328    0.2159 C.ar    1  LIG1        0.0286
     11 C           0.3321    2.4929    0.3652 C.ar    1  LIG1       -0.0326
     12 C           0.2006    3.9112    0.1991 C.ar    1  LIG1        0.0206
     13 C          -1.0866    4.2914   -0.0632 C.ar    1  LIG1        0.0397
     14 S          -2.1479    2.9230   -0.1323 S.2     1  LIG1       -0.0861
     15 H           1.2637    1.9940    0.5939 H       1  LIG1        0.0640
     16 S           1.6177    4.9636    0.3385 S.3     1  LIG1       -0.1415
     17 H           1.0288    6.0481   -0.1810 H       1  LIG1        0.1071
     18 C          -1.5960    5.6568   -0.2513 C.ar    1  LIG1        0.0280
     19 C          -1.5102    6.6949    0.6310 C.ar    1  LIG1       -0.0332
     20 C          -2.1132    7.8943    0.1265 C.ar    1  LIG1        0.0124
     21 C          -2.6418    7.7261   -1.1170 C.ar    1  LIG1       -0.0105
     22 S          -2.4181    6.1233   -1.6979 S.2     1  LIG1       -0.0950
     23 H          -3.1423    8.4618   -1.7259 H       1  LIG1        0.0704
     24 H          -1.0624    6.6043    1.6108 H       1  LIG1        0.0640
     25 S          -2.1069    9.3911    1.0845 S.3     1  LIG1       -0.1421
     26 H          -3.2172    9.9049    0.5474 H       1  LIG1        0.1071
@<TRIPOS>BOND
     1     9     8    1
     2    23    21    1
     3    22    21   ar
     4    22    18   ar
     5     8     3    1
     6    21    20   ar
     7     7     2    1
     8     3     2   ar
     9     3     4   ar
    10    18    13    1
    11    18    19   ar
    12    17    16    1
    13    14    13   ar
    14    14    10   ar
    15    13    12   ar
    16     2     1   ar
    17    20    19   ar
    18    20    25    1
    19    12    16    1
    20    12    11   ar
    21    10     4    1
    22    10    11   ar
    23     4     5   ar
    24    11    15    1
    25    26    25    1
    26    19    24    1
    27     1     6    1
    28     1     5   ar
