@<TRIPOS>MOLECULE
mol_data/opt/m06hf/geoms/mol2/5ag5ag5ag-.out
 26 28 0 0 0
SMALL
GASTEIGER

@<TRIPOS>ATOM
      1 C          -1.9278   -1.9886    0.2168 C.ar    1  LIG1       -0.0227
      2 C          -0.7429   -1.8839   -0.4374 C.ar    1  LIG1       -0.0409
      3 C          -0.2638   -0.5300   -0.4888 C.ar    1  LIG1        0.0200
      4 C          -1.1054    0.3463    0.1382 C.ar    1  LIG1        0.0391
      5 S          -2.4905   -0.4682    0.7863 S.2     1  LIG1       -0.0950
      6 H          -2.5068   -2.8809    0.3914 H       1  LIG1        0.0694
      7 H          -0.2198   -2.7158   -0.8849 H       1  LIG1        0.0634
      8 S           1.2467   -0.1498   -1.3315 S.3     1  LIG1       -0.1415
      9 H           1.0375    1.1714   -1.3883 H       1  LIG1        0.1071
     10 C          -0.9425    1.7982    0.2875 C.ar    1  LIG1        0.0286
     11 C           0.1346    2.4593    0.8020 C.ar    1  LIG1       -0.0326
     12 C          -0.0315    3.8835    0.7906 C.ar    1  LIG1        0.0206
     13 C          -1.2365    4.2655    0.2671 C.ar    1  LIG1        0.0397
     14 S          -2.1755    2.8958   -0.2239 S.2     1  LIG1       -0.0861
     15 H           1.0010    1.9546    1.2071 H       1  LIG1        0.0640
     16 S           1.2366    4.9310    1.4453 S.3     1  LIG1       -0.1415
     17 H           0.4836    6.0353    1.5074 H       1  LIG1        0.1071
     18 C          -1.7506    5.6308    0.0934 C.ar    1  LIG1        0.0280
     19 C          -1.1430    6.6644   -0.5583 C.ar    1  LIG1       -0.0332
     20 C          -1.9274    7.8660   -0.5338 C.ar    1  LIG1        0.0124
     21 C          -3.1046    7.7035    0.1292 C.ar    1  LIG1       -0.0105
     22 S          -3.2782    6.1067    0.7481 S.2     1  LIG1       -0.0950
     23 H          -3.8832    8.4331    0.2848 H       1  LIG1        0.0704
     24 H          -0.1878    6.5709   -1.0565 H       1  LIG1        0.0640
     25 S          -1.3421    9.3347   -1.3403 S.3     1  LIG1       -0.1421
     26 H          -2.3478   10.1194   -0.9457 H       1  LIG1        0.1071
@<TRIPOS>BOND
     1     9     8    1
     2    25    26    1
     3    25    20    1
     4     8     3    1
     5    24    19    1
     6     7     2    1
     7    19    20   ar
     8    19    18   ar
     9    20    21   ar
    10     3     2   ar
    11     3     4   ar
    12     2     1   ar
    13    14    13   ar
    14    14    10   ar
    15    18    13    1
    16    18    22   ar
    17    21    23    1
    18    21    22   ar
    19     4    10    1
    20     4     5   ar
    21     1     6    1
    22     1     5   ar
    23    13    12   ar
    24    10    11   ar
    25    12    11   ar
    26    12    16    1
    27    11    15    1
    28    16    17    1
