@<TRIPOS>MOLECULE
mol_data/opt/m06hf/geoms/mol2/5ag5ag5ag-5ag-.out
 34 37 0 0 0
SMALL
GASTEIGER

@<TRIPOS>ATOM
      1 C          -1.9150   -2.0505   -0.1140 C.ar    1  LIG1       -0.0227
      2 C          -0.6616   -1.9316   -0.6224 C.ar    1  LIG1       -0.0409
      3 C          -0.1755   -0.5807   -0.5672 C.ar    1  LIG1        0.0200
      4 C          -1.0813    0.2787   -0.0101 C.ar    1  LIG1        0.0391
      5 S          -2.5342   -0.5483    0.4443 S.2     1  LIG1       -0.0950
      6 H          -2.5154   -2.9429   -0.0420 H       1  LIG1        0.0694
      7 H          -0.0935   -2.7500   -1.0395 H       1  LIG1        0.0634
      8 S           1.4277   -0.1783   -1.2067 S.3     1  LIG1       -0.1415
      9 H           1.2055    1.1373   -1.3102 H       1  LIG1        0.1071
     10 C          -0.9286    1.7218    0.2156 C.ar    1  LIG1        0.0286
     11 C           0.0809    2.3509    0.8837 C.ar    1  LIG1       -0.0326
     12 C          -0.0761    3.7759    0.9134 C.ar    1  LIG1        0.0206
     13 C          -1.2065    4.1915    0.2626 C.ar    1  LIG1        0.0397
     14 S          -2.0843    2.8537   -0.3973 S.2     1  LIG1       -0.0861
     15 H           0.8895    1.8219    1.3688 H       1  LIG1        0.0640
     16 S           1.1045    4.7896    1.7610 S.3     1  LIG1       -0.1415
     17 H           0.2978    5.8506    1.8869 H       1  LIG1        0.1071
     18 C          -1.6887    5.5681    0.0921 C.ar    1  LIG1        0.0286
     19 C          -0.9798    6.6364   -0.3765 C.ar    1  LIG1       -0.0326
     20 C          -1.7476    7.8463   -0.3916 C.ar    1  LIG1        0.0206
     21 C          -3.0273    7.6611    0.0564 C.ar    1  LIG1        0.0397
     22 S          -3.3030    6.0142    0.5178 S.2     1  LIG1       -0.0861
     23 H           0.0479    6.5689   -0.7051 H       1  LIG1        0.0640
     24 S          -1.0215    9.3628   -0.9497 S.3     1  LIG1       -0.1415
     25 H          -1.9496   10.1594   -0.4037 H       1  LIG1        0.1071
     26 C          -4.0953    8.6644    0.1563 C.ar    1  LIG1        0.0280
     27 C          -4.5632    9.4725   -0.8382 C.ar    1  LIG1       -0.0332
     28 C          -5.6063   10.3494   -0.3881 C.ar    1  LIG1        0.0124
     29 C          -5.8995   10.1740    0.9293 C.ar    1  LIG1       -0.0105
     30 S          -4.9233    8.9548    1.6487 S.2     1  LIG1       -0.0950
     31 H          -6.6342   10.6998    1.5180 H       1  LIG1        0.0704
     32 H          -4.2010    9.4298   -1.8561 H       1  LIG1        0.0640
     33 S          -6.3628   11.5031   -1.5069 S.3     1  LIG1       -0.1421
     34 H          -7.4605   11.7124   -0.7742 H       1  LIG1        0.1071
@<TRIPOS>BOND
     1    32    27    1
     2    33    34    1
     3    33    28    1
     4     9     8    1
     5     8     3    1
     6     7     2    1
     7    24    25    1
     8    24    20    1
     9    27    28   ar
    10    27    26   ar
    11    23    19    1
    12     2     3   ar
    13     2     1   ar
    14     3     4   ar
    15    14    10   ar
    16    14    13   ar
    17    20    19   ar
    18    20    21   ar
    19    28    29   ar
    20    19    18   ar
    21     1     6    1
    22     1     5   ar
    23     4    10    1
    24     4     5   ar
    25    21    26    1
    26    21    22   ar
    27    18    13    1
    28    18    22   ar
    29    26    30   ar
    30    10    11   ar
    31    13    12   ar
    32    11    12   ar
    33    11    15    1
    34    12    16    1
    35    29    31    1
    36    29    30   ar
    37    16    17    1
