@<TRIPOS>MOLECULE
mol_data/opt/m06hf/geoms/mol2/5ag5ag-5ag-5ag-.out
 34 37 0 0 0
SMALL
GASTEIGER

@<TRIPOS>ATOM
      1 C          -1.2538   -2.0349    1.1065 C.ar    1  LIG1       -0.0227
      2 C          -0.7719   -1.9850   -0.1618 C.ar    1  LIG1       -0.0409
      3 C          -0.5401   -0.6378   -0.6059 C.ar    1  LIG1        0.0200
      4 C          -0.8526    0.2880    0.3504 C.ar    1  LIG1        0.0391
      5 S          -1.4378   -0.4720    1.7931 S.2     1  LIG1       -0.0950
      6 H          -1.5180   -2.9113    1.6757 H       1  LIG1        0.0694
      7 H          -0.5928   -2.8529   -0.7792 H       1  LIG1        0.0634
      8 S           0.0547   -0.3321   -2.2454 S.3     1  LIG1       -0.1415
      9 H          -0.2075    0.9813   -2.2440 H       1  LIG1        0.1071
     10 C          -0.7359    1.7493    0.2596 C.ar    1  LIG1        0.0286
     11 C           0.3628    2.4672   -0.1138 C.ar    1  LIG1       -0.0326
     12 C           0.1253    3.8813   -0.1238 C.ar    1  LIG1        0.0206
     13 C          -1.1479    4.2006    0.2614 C.ar    1  LIG1        0.0397
     14 S          -2.0781    2.7803    0.6121 S.2     1  LIG1       -0.0861
     15 H           1.3106    2.0122   -0.3665 H       1  LIG1        0.0640
     16 S           1.4086    4.9977   -0.6164 S.3     1  LIG1       -0.1415
     17 H           0.6038    6.0524   -0.7949 H       1  LIG1        0.1071
     18 C          -1.7361    5.5402    0.3902 C.ar    1  LIG1        0.0286
     19 C          -1.2491    6.5859    1.1189 C.ar    1  LIG1       -0.0326
     20 C          -2.0711    7.7571    1.0250 C.ar    1  LIG1        0.0206
     21 C          -3.1631    7.5675    0.2225 C.ar    1  LIG1        0.0397
     22 S          -3.1965    5.9627   -0.4314 S.2     1  LIG1       -0.0861
     23 H          -0.3598    6.5186    1.7303 H       1  LIG1        0.0640
     24 S          -1.6453    9.2191    1.9297 S.3     1  LIG1       -0.1415
     25 H          -2.8479    9.7981    1.8254 H       1  LIG1        0.1071
     26 C          -4.2132    8.5397   -0.1083 C.ar    1  LIG1        0.0280
     27 C          -4.0402    9.8012   -0.5990 C.ar    1  LIG1       -0.0332
     28 C          -5.2840   10.4900   -0.7947 C.ar    1  LIG1        0.0124
     29 C          -6.3584    9.7277   -0.4552 C.ar    1  LIG1       -0.0105
     30 S          -5.8880    8.1769    0.1256 S.2     1  LIG1       -0.0950
     31 H          -7.4027    9.9897   -0.5146 H       1  LIG1        0.0704
     32 H          -3.0701   10.2196   -0.8312 H       1  LIG1        0.0640
     33 S          -5.2877   12.1446   -1.4344 S.3     1  LIG1       -0.1421
     34 H          -6.6041   12.3453   -1.3210 H       1  LIG1        0.1071
@<TRIPOS>BOND
     1     8     9    1
     2     8     3    1
     3    33    34    1
     4    33    28    1
     5    32    27    1
     6    17    16    1
     7    28    27   ar
     8    28    29   ar
     9     7     2    1
    10    16    12    1
    11     3     2   ar
    12     3     4   ar
    13    27    26   ar
    14    31    29    1
    15    29    30   ar
    16    22    21   ar
    17    22    18   ar
    18    15    11    1
    19     2     1   ar
    20    12    11   ar
    21    12    13   ar
    22    11    10   ar
    23    26    30   ar
    24    26    21    1
    25    21    20   ar
    26    10     4    1
    27    10    14   ar
    28    13    18    1
    29    13    14   ar
    30     4     5   ar
    31    18    19   ar
    32    20    19   ar
    33    20    24    1
    34     1     6    1
    35     1     5   ar
    36    19    23    1
    37    25    24    1
