@<TRIPOS>MOLECULE
mol_data/opt/m06hf/geoms/mol2/5ag5ag-5ag5ag.out
 34 37 0 0 0
SMALL
GASTEIGER

@<TRIPOS>ATOM
      1 C          -1.4331   -1.8984    1.4143 C.ar    1  LIG1       -0.0227
      2 C          -0.9417   -1.9604    0.1508 C.ar    1  LIG1       -0.0409
      3 C          -0.6501   -0.6601   -0.3879 C.ar    1  LIG1        0.0200
      4 C          -0.9287    0.3460    0.4951 C.ar    1  LIG1        0.0391
      5 S          -1.5542   -0.2838    1.9859 S.2     1  LIG1       -0.0950
      6 H          -1.7381   -2.7197    2.0426 H       1  LIG1        0.0694
      7 H          -0.7956   -2.8775   -0.4005 H       1  LIG1        0.0634
      8 S          -0.0174   -0.5054   -2.0345 S.3     1  LIG1       -0.1415
      9 H          -0.2670    0.8037   -2.1590 H       1  LIG1        0.1071
     10 C          -0.7460    1.7906    0.3057 C.ar    1  LIG1        0.0286
     11 C           0.3837    2.4345   -0.1089 C.ar    1  LIG1       -0.0326
     12 C           0.2096    3.8544   -0.2054 C.ar    1  LIG1        0.0206
     13 C          -1.0488    4.2533    0.1553 C.ar    1  LIG1        0.0397
     14 S          -2.0409    2.9015    0.5856 S.2     1  LIG1       -0.0861
     15 H           1.3099    1.9234   -0.3327 H       1  LIG1        0.0640
     16 S           1.5457    4.8839   -0.7508 S.3     1  LIG1       -0.1415
     17 H           0.7774    5.9086   -1.1391 H       1  LIG1        0.1071
     18 C          -1.5843    5.6200    0.2035 C.ar    1  LIG1        0.0286
     19 C          -1.0224    6.7091    0.8045 C.ar    1  LIG1       -0.0326
     20 C          -1.8139    7.8948    0.6515 C.ar    1  LIG1        0.0206
     21 C          -2.9658    7.6693   -0.0515 C.ar    1  LIG1        0.0397
     22 S          -3.0839    6.0167   -0.5575 S.2     1  LIG1       -0.0861
     23 H          -0.0861    6.6726    1.3437 H       1  LIG1        0.0640
     24 S          -1.2653    9.4377    1.3264 S.3     1  LIG1       -0.1415
     25 H          -2.1255   10.1890    0.6284 H       1  LIG1        0.1071
     26 C          -4.0188    8.6394   -0.3832 C.ar    1  LIG1        0.0280
     27 C          -4.7295    9.4153    0.4863 C.ar    1  LIG1       -0.0332
     28 C          -5.6737   10.2632   -0.1823 C.ar    1  LIG1        0.0124
     29 C          -5.6535   10.0981   -1.5334 C.ar    1  LIG1       -0.0105
     30 S          -4.4974    8.9228   -2.0196 S.2     1  LIG1       -0.0950
     31 H          -6.2519   10.6102   -2.2698 H       1  LIG1        0.0704
     32 H          -4.6082    9.3665    1.5596 H       1  LIG1        0.0640
     33 S          -6.6996   11.3874    0.7357 S.3     1  LIG1       -0.1421
     34 H          -7.6754   11.4606   -0.1746 H       1  LIG1        0.1071
@<TRIPOS>BOND
     1    31    29    1
     2     9     8    1
     3     8     3    1
     4    30    29   ar
     5    30    26   ar
     6    29    28   ar
     7    17    16    1
     8    16    12    1
     9    22    21   ar
    10    22    18   ar
    11     7     2    1
    12     3     2   ar
    13     3     4   ar
    14    26    21    1
    15    26    27   ar
    16    15    11    1
    17    12    11   ar
    18    12    13   ar
    19    28    27   ar
    20    28    33    1
    21    34    33    1
    22    11    10   ar
    23    21    20   ar
    24     2     1   ar
    25    13    18    1
    26    13    14   ar
    27    18    19   ar
    28    10     4    1
    29    10    14   ar
    30    27    32    1
    31     4     5   ar
    32    25    24    1
    33    20    19   ar
    34    20    24    1
    35    19    23    1
    36     1     5   ar
    37     1     6    1
