@<TRIPOS>MOLECULE
mol_data/opt/m06hf/geoms/mol2/5ag5ag.out
 18 19 0 0 0
SMALL
GASTEIGER

@<TRIPOS>ATOM
      1 C          -2.0122   -1.8000    0.4716 C.ar    1  LIG1       -0.0227
      2 C          -0.7711   -1.8197   -0.0780 C.ar    1  LIG1       -0.0409
      3 C          -0.2686   -0.4992   -0.3428 C.ar    1  LIG1        0.0200
      4 C          -1.1483    0.4798    0.0255 C.ar    1  LIG1        0.0390
      5 S          -2.6011   -0.1992    0.6864 S.2     1  LIG1       -0.0950
      6 H          -2.6182   -2.6435    0.7593 H       1  LIG1        0.0694
      7 H          -0.2219   -2.7211   -0.3071 H       1  LIG1        0.0634
      8 S           1.3155   -0.2765   -1.1021 S.3     1  LIG1       -0.1415
      9 H           1.1569    1.0286   -1.3550 H       1  LIG1        0.1071
     10 C          -0.9744    1.9346   -0.0850 C.ar    1  LIG1        0.0280
     11 C           0.0372    2.6928    0.4295 C.ar    1  LIG1       -0.0332
     12 C          -0.1051    4.0844    0.1122 C.ar    1  LIG1        0.0124
     13 C          -1.2133    4.3385   -0.6380 C.ar    1  LIG1       -0.0105
     14 S          -2.0965    2.9073   -0.9792 S.2     1  LIG1       -0.0950
     15 H          -1.5473    5.2990   -0.9960 H       1  LIG1        0.0704
     16 H           0.8447    2.2872    1.0230 H       1  LIG1        0.0640
     17 S           1.0537    5.3508    0.5879 S.3     1  LIG1       -0.1421
     18 H           0.7053    5.3899    1.8797 H       1  LIG1        0.1071
@<TRIPOS>BOND
     1     9     8    1
     2     8     3    1
     3    15    13    1
     4    14    13   ar
     5    14    10   ar
     6    13    12   ar
     7     3     2   ar
     8     3     4   ar
     9     7     2    1
    10    10     4    1
    11    10    11   ar
    12     2     1   ar
    13     4     5   ar
    14    12    11   ar
    15    12    17    1
    16    11    16    1
    17     1     5   ar
    18     1     6    1
    19    17    18    1
