@<TRIPOS>MOLECULE
mol_data/opt/m06hf/geoms/mol2/5ag5ag-.out
 18 19 0 0 0
SMALL
GASTEIGER

@<TRIPOS>ATOM
      1 C          -2.1007   -1.8162    0.4152 C.ar    1  LIG1       -0.0227
      2 C          -0.8158   -1.8621   -0.0207 C.ar    1  LIG1       -0.0409
      3 C          -0.2662   -0.5526   -0.2420 C.ar    1  LIG1        0.0200
      4 C          -1.1566    0.4442    0.0437 C.ar    1  LIG1        0.0390
      5 S          -2.6753   -0.2037    0.5728 S.2     1  LIG1       -0.0950
      6 H          -2.7464   -2.6467    0.6494 H       1  LIG1        0.0694
      7 H          -0.2659   -2.7748   -0.1979 H       1  LIG1        0.0634
      8 S           1.3828   -0.3607   -0.8590 S.3     1  LIG1       -0.1415
      9 H           1.2674    0.9454   -1.1299 H       1  LIG1        0.1071
     10 C          -0.9442    1.8946   -0.0572 C.ar    1  LIG1        0.0280
     11 C           0.0295    2.6324    0.5512 C.ar    1  LIG1       -0.0332
     12 C          -0.0468    4.0257    0.2163 C.ar    1  LIG1        0.0124
     13 C          -1.0781    4.3010   -0.6283 C.ar    1  LIG1       -0.0105
     14 S          -1.9674    2.8865   -1.0369 S.2     1  LIG1       -0.0950
     15 H          -1.3590    5.2586   -1.0363 H       1  LIG1        0.0704
     16 H           0.7552    2.2090    1.2321 H       1  LIG1        0.0640
     17 S           1.1324    5.1805    0.8740 S.3     1  LIG1       -0.1421
     18 H           0.3910    6.2728    0.6673 H       1  LIG1        0.1071
@<TRIPOS>BOND
     1     9     8    1
     2    14    13   ar
     3    14    10   ar
     4    15    13    1
     5     8     3    1
     6    13    12   ar
     7     3     2   ar
     8     3     4   ar
     9     7     2    1
    10    10     4    1
    11    10    11   ar
    12     2     1   ar
    13     4     5   ar
    14    12    11   ar
    15    12    17    1
    16     1     5   ar
    17     1     6    1
    18    11    16    1
    19    18    17    1
