@<TRIPOS>MOLECULE
mol_data/opt/m06hf/geoms/mol2/5ag5ag5ag.out
 26 28 0 0 0
SMALL
GASTEIGER

@<TRIPOS>ATOM
      1 C          -1.9315   -1.9878    0.2160 C.ar    1  LIG1       -0.0227
      2 C          -0.7476   -1.8844   -0.4403 C.ar    1  LIG1       -0.0409
      3 C          -0.2675   -0.5308   -0.4927 C.ar    1  LIG1        0.0200
      4 C          -1.1073    0.3463    0.1354 C.ar    1  LIG1        0.0391
      5 S          -2.4919   -0.4669    0.7863 S.2     1  LIG1       -0.0950
      6 H          -2.5110   -2.8796    0.3918 H       1  LIG1        0.0694
      7 H          -0.2260   -2.7167   -0.8884 H       1  LIG1        0.0634
      8 S           1.2420   -0.1520   -1.3379 S.3     1  LIG1       -0.1415
      9 H           1.0334    1.1692   -1.3953 H       1  LIG1        0.1071
     10 C          -0.9429    1.7982    0.2841 C.ar    1  LIG1        0.0286
     11 C           0.1358    2.4585    0.7963 C.ar    1  LIG1       -0.0326
     12 C          -0.0293    3.8828    0.7850 C.ar    1  LIG1        0.0206
     13 C          -1.2351    4.2656    0.2639 C.ar    1  LIG1        0.0397
     14 S          -2.1759    2.8965   -0.2254 S.2     1  LIG1       -0.0861
     15 H           1.0025    1.9533    1.1998 H       1  LIG1        0.0640
     16 S           1.2408    4.9297    1.4370 S.3     1  LIG1       -0.1415
     17 H           0.4884    6.0343    1.5006 H       1  LIG1        0.1071
     18 C          -1.7487    5.6313    0.0914 C.ar    1  LIG1        0.0280
     19 C          -1.1420    6.6644   -0.5620 C.ar    1  LIG1       -0.0332
     20 C          -1.9254    7.8667   -0.5354 C.ar    1  LIG1        0.0124
     21 C          -3.1010    7.7051    0.1306 C.ar    1  LIG1       -0.0105
     22 S          -3.2742    6.1085    0.7500 S.2     1  LIG1       -0.0950
     23 H          -3.8786    8.4352    0.2882 H       1  LIG1        0.0704
     24 H          -0.1880    6.5703   -1.0625 H       1  LIG1        0.0640
     25 S          -1.3412    9.3349   -1.3436 S.3     1  LIG1       -0.1421
     26 H          -2.3448   10.1206   -0.9457 H       1  LIG1        0.1071
@<TRIPOS>BOND
     1     9     8    1
     2    25    26    1
     3    25    20    1
     4     8     3    1
     5    24    19    1
     6     7     2    1
     7    19    20   ar
     8    19    18   ar
     9    20    21   ar
    10     3     2   ar
    11     3     4   ar
    12     2     1   ar
    13    14    13   ar
    14    14    10   ar
    15    18    13    1
    16    18    22   ar
    17    21    23    1
    18    21    22   ar
    19     4    10    1
    20     4     5   ar
    21     1     6    1
    22     1     5   ar
    23    13    12   ar
    24    10    11   ar
    25    12    11   ar
    26    12    16    1
    27    11    15    1
    28    16    17    1
