@<TRIPOS>MOLECULE
mol_data/opt/m06hf/geoms/mol2/5ag5ag-5ag5ag-.out
 34 37 0 0 0
SMALL
GASTEIGER

@<TRIPOS>ATOM
      1 C          -1.4445   -1.8998    1.4106 C.ar    1  LIG1       -0.0227
      2 C          -0.9472   -1.9613    0.1494 C.ar    1  LIG1       -0.0409
      3 C          -0.6520   -0.6608   -0.3870 C.ar    1  LIG1        0.0200
      4 C          -0.9341    0.3449    0.4954 C.ar    1  LIG1        0.0391
      5 S          -1.5673   -0.2855    1.9827 S.2     1  LIG1       -0.0950
      6 H          -1.7532   -2.7213    2.0369 H       1  LIG1        0.0694
      7 H          -0.7992   -2.8781   -0.4018 H       1  LIG1        0.0634
      8 S          -0.0113   -0.5055   -2.0304 S.3     1  LIG1       -0.1415
      9 H          -0.2596    0.8038   -2.1554 H       1  LIG1        0.1071
     10 C          -0.7494    1.7895    0.3079 C.ar    1  LIG1        0.0286
     11 C           0.3826    2.4329   -0.1012 C.ar    1  LIG1       -0.0326
     12 C           0.2099    3.8530   -0.1976 C.ar    1  LIG1        0.0206
     13 C          -1.0499    4.2525    0.1578 C.ar    1  LIG1        0.0397
     14 S          -2.0448    2.9011    0.5828 S.2     1  LIG1       -0.0861
     15 H           1.3094    1.9213   -0.3211 H       1  LIG1        0.0640
     16 S           1.5491    4.8820   -0.7362 S.3     1  LIG1       -0.1415
     17 H           0.7831    5.9074   -1.1273 H       1  LIG1        0.1071
     18 C          -1.5847    5.6195    0.2043 C.ar    1  LIG1        0.0286
     19 C          -1.0248    6.7079    0.8084 C.ar    1  LIG1       -0.0326
     20 C          -1.8148    7.8943    0.6524 C.ar    1  LIG1        0.0206
     21 C          -2.9636    7.6699   -0.0561 C.ar    1  LIG1        0.0397
     22 S          -3.0806    6.0176   -0.5633 S.2     1  LIG1       -0.0861
     23 H          -0.0910    6.6705    1.3518 H       1  LIG1        0.0640
     24 S          -1.2683    9.4365    1.3304 S.3     1  LIG1       -0.1415
     25 H          -2.1248   10.1886    0.6288 H       1  LIG1        0.1071
     26 C          -4.0144    8.6409   -0.3921 C.ar    1  LIG1        0.0280
     27 C          -4.7285    9.4169    0.4746 C.ar    1  LIG1       -0.0332
     28 C          -5.6692   10.2658   -0.1978 C.ar    1  LIG1        0.0124
     29 C          -5.6430   10.1013   -1.5489 C.ar    1  LIG1       -0.0105
     30 S          -4.4857    8.9252   -2.0305 S.2     1  LIG1       -0.0950
     31 H          -6.2378   10.6141   -2.2877 H       1  LIG1        0.0704
     32 H          -4.6120    9.3675    1.5484 H       1  LIG1        0.0640
     33 S          -6.6982   11.3903    0.7162 S.3     1  LIG1       -0.1421
     34 H          -7.6701   11.4646   -0.1983 H       1  LIG1        0.1071
@<TRIPOS>BOND
     1    31    29    1
     2     9     8    1
     3    30    29   ar
     4    30    26   ar
     5     8     3    1
     6    29    28   ar
     7    17    16    1
     8    16    12    1
     9    22    21   ar
    10    22    18   ar
    11     7     2    1
    12    26    21    1
    13    26    27   ar
    14     3     2   ar
    15     3     4   ar
    16    15    11    1
    17    34    33    1
    18    28    27   ar
    19    28    33    1
    20    12    11   ar
    21    12    13   ar
    22    11    10   ar
    23    21    20   ar
    24     2     1   ar
    25    13    18    1
    26    13    14   ar
    27    18    19   ar
    28    10     4    1
    29    10    14   ar
    30    27    32    1
    31     4     5   ar
    32    25    24    1
    33    20    19   ar
    34    20    24    1
    35    19    23    1
    36     1     5   ar
    37     1     6    1
