@<TRIPOS>MOLECULE
mol_data/opt/m06hf/geoms/mol2/5ag5ag5ag5ag.out
 34 37 0 0 0
SMALL
GASTEIGER

@<TRIPOS>ATOM
      1 C          -1.8739   -2.0676    0.1371 C.ar    1  LIG1       -0.0227
      2 C          -0.5718   -1.9935   -0.2404 C.ar    1  LIG1       -0.0409
      3 C          -0.0847   -0.6425   -0.2652 C.ar    1  LIG1        0.0200
      4 C          -1.0396    0.2657    0.1026 C.ar    1  LIG1        0.0391
      5 S          -2.5402   -0.5196    0.4702 S.2     1  LIG1       -0.0950
      6 H          -2.4855   -2.9503    0.2296 H       1  LIG1        0.0694
      7 H           0.0337   -2.8456   -0.5118 H       1  LIG1        0.0634
      8 S           1.5885   -0.3056   -0.7475 S.3     1  LIG1       -0.1415
      9 H           1.3657    0.9528   -1.1470 H       1  LIG1        0.1071
     10 C          -0.9070    1.7228    0.2119 C.ar    1  LIG1        0.0286
     11 C           0.1072    2.4187    0.8039 C.ar    1  LIG1       -0.0326
     12 C          -0.0836    3.8376    0.7422 C.ar    1  LIG1        0.0206
     13 C          -1.2448    4.1844    0.1054 C.ar    1  LIG1        0.0397
     14 S          -2.1092    2.7845   -0.4363 S.2     1  LIG1       -0.0861
     15 H           0.9395    1.9442    1.3045 H       1  LIG1        0.0640
     16 S           1.1077    4.9322    1.4673 S.3     1  LIG1       -0.1415
     17 H           0.2757    5.9731    1.5960 H       1  LIG1        0.1071
     18 C          -1.7664    5.5354   -0.1342 C.ar    1  LIG1        0.0286
     19 C          -1.1021    6.5881   -0.6938 C.ar    1  LIG1       -0.0326
     20 C          -1.9048    7.7728   -0.7692 C.ar    1  LIG1        0.0206
     21 C          -3.1640    7.5870   -0.2648 C.ar    1  LIG1        0.0397
     22 S          -3.3790    5.9690    0.3133 S.2     1  LIG1       -0.0861
     23 H          -0.0914    6.5193   -1.0713 H       1  LIG1        0.0640
     24 S          -1.2391    9.2548   -1.4777 S.3     1  LIG1       -0.1415
     25 H          -2.4225    9.8253   -1.7393 H       1  LIG1        0.1071
     26 C          -4.2462    8.5741   -0.1651 C.ar    1  LIG1        0.0280
     27 C          -4.1603    9.8345    0.3507 C.ar    1  LIG1       -0.0332
     28 C          -5.4080   10.5410    0.2876 C.ar    1  LIG1        0.0124
     29 C          -6.4013    9.7915   -0.2625 C.ar    1  LIG1       -0.0105
     30 S          -5.8451    8.2299   -0.7280 S.2     1  LIG1       -0.0950
     31 H          -7.4296   10.0711   -0.4273 H       1  LIG1        0.0704
     32 H          -3.2551   10.2389    0.7826 H       1  LIG1        0.0640
     33 S          -5.5123   12.2060    0.8890 S.3     1  LIG1       -0.1421
     34 H          -6.8349   12.3376    0.7419 H       1  LIG1        0.1071
@<TRIPOS>BOND
     1    25    24    1
     2    24    20    1
     3     9     8    1
     4    23    19    1
     5    20    19   ar
     6    20    21   ar
     7     8     3    1
     8    30    29   ar
     9    30    26   ar
    10    19    18   ar
    11     7     2    1
    12    14    13   ar
    13    14    10   ar
    14    31    29    1
    15     3     2   ar
    16     3     4   ar
    17    21    26    1
    18    21    22   ar
    19    29    28   ar
    20     2     1   ar
    21    26    27   ar
    22    18    13    1
    23    18    22   ar
    24     4    10    1
    25     4     5   ar
    26    13    12   ar
    27     1     6    1
    28     1     5   ar
    29    10    11   ar
    30    28    27   ar
    31    28    33    1
    32    27    32    1
    33    34    33    1
    34    12    11   ar
    35    12    16    1
    36    11    15    1
    37    16    17    1
