@<TRIPOS>MOLECULE
mol_data/opt/m06hf/geoms/mol2/5ag5ag-5ag.out
 26 28 0 0 0
SMALL
GASTEIGER

@<TRIPOS>ATOM
      1 C          -1.8873   -1.8727    0.9295 C.ar    1  LIG1       -0.0227
      2 C          -0.9010   -1.9178   -0.0025 C.ar    1  LIG1       -0.0409
      3 C          -0.4286   -0.6094   -0.3633 C.ar    1  LIG1        0.0200
      4 C          -1.0751    0.3855    0.3159 C.ar    1  LIG1        0.0391
      5 S          -2.2669   -0.2631    1.3938 S.2     1  LIG1       -0.0950
      6 H          -2.4186   -2.7028    1.3661 H       1  LIG1        0.0694
      7 H          -0.5193   -2.8277   -0.4415 H       1  LIG1        0.0634
      8 S           0.8394   -0.4286   -1.5864 S.3     1  LIG1       -0.1415
      9 H           0.6211    0.8714   -1.8236 H       1  LIG1        0.1071
     10 C          -0.8513    1.8339    0.2207 C.ar    1  LIG1        0.0286
     11 C           0.3344    2.4945    0.3570 C.ar    1  LIG1       -0.0326
     12 C           0.2022    3.9119    0.1834 C.ar    1  LIG1        0.0206
     13 C          -1.0869    4.2910   -0.0712 C.ar    1  LIG1        0.0397
     14 S          -2.1493    2.9226   -0.1239 S.2     1  LIG1       -0.0861
     15 H           1.2675    1.9966    0.5814 H       1  LIG1        0.0640
     16 S           1.6207    4.9644    0.3056 S.3     1  LIG1       -0.1415
     17 H           1.0285    6.0459   -0.2164 H       1  LIG1        0.1071
     18 C          -1.5972    5.6554   -0.2639 C.ar    1  LIG1        0.0280
     19 C          -1.5040    6.6991    0.6110 C.ar    1  LIG1       -0.0332
     20 C          -2.1104    7.8957    0.1035 C.ar    1  LIG1        0.0124
     21 C          -2.6487    7.7198   -1.1347 C.ar    1  LIG1       -0.0105
     22 S          -2.4305    6.1131   -1.7071 S.2     1  LIG1       -0.0950
     23 H          -3.1536    8.4518   -1.7444 H       1  LIG1        0.0704
     24 H          -1.0486    6.6145    1.5878 H       1  LIG1        0.0640
     25 S          -2.0957    9.3986    1.0518 S.3     1  LIG1       -0.1421
     26 H          -3.2097    9.9098    0.5197 H       1  LIG1        0.1071
@<TRIPOS>BOND
     1     9     8    1
     2    23    21    1
     3    22    21   ar
     4    22    18   ar
     5     8     3    1
     6    21    20   ar
     7     7     2    1
     8     3     2   ar
     9     3     4   ar
    10    18    13    1
    11    18    19   ar
    12    17    16    1
    13    14    13   ar
    14    14    10   ar
    15    13    12   ar
    16     2     1   ar
    17    20    19   ar
    18    20    25    1
    19    12    16    1
    20    12    11   ar
    21    10     4    1
    22    10    11   ar
    23     4     5   ar
    24    11    15    1
    25    26    25    1
    26    19    24    1
    27     1     6    1
    28     1     5   ar
