@<TRIPOS>MOLECULE
mol_data/opt/m06hf/geoms/mol2/5ah.out
 11 11 0 0 0
SMALL
GASTEIGER

@<TRIPOS>ATOM
      1 C          -2.0974   -1.7574    0.0240 C.ar    1  LIG1       -0.0225
      2 C          -0.7419   -1.7365   -0.0062 C.ar    1  LIG1       -0.0340
      3 C          -0.2120   -0.3950   -0.0481 C.ar    1  LIG1        0.0316
      4 C          -1.1992    0.5427   -0.0415 C.ar    1  LIG1       -0.0037
      5 S          -2.7695   -0.1734    0.0224 S.2     1  LIG1       -0.1032
      6 H          -2.7420   -2.6205    0.0592 H       1  LIG1        0.0694
      7 H          -1.0870    1.6142   -0.0645 H       1  LIG1        0.0712
      8 H          -0.1192   -2.6194    0.0116 H       1  LIG1        0.0641
      9 N           1.1711   -0.1454   -0.0296 N.pl3   1  LIG1       -0.3576
     10 H           1.6934   -0.7876   -0.6123 H       1  LIG1        0.1423
     11 H           1.4084    0.8105   -0.2603 H       1  LIG1        0.1423
@<TRIPOS>BOND
     1    10     9    1
     2    11     9    1
     3     7     4    1
     4     3     4   ar
     5     3     9    1
     6     3     2   ar
     7     4     5   ar
     8     2     8    1
     9     2     1   ar
    10     5     1   ar
    11     1     6    1
