@<TRIPOS>MOLECULE
mol_data/opt/m06hf/geoms/mol2/5ah5ah-5ah5ah-.out
 38 41 0 0 0
SMALL
GASTEIGER

@<TRIPOS>ATOM
      1 C          -1.5264   -1.9460    1.2781 C.ar    1  LIG1       -0.0219
      2 C          -0.6668   -1.9752    0.2285 C.ar    1  LIG1       -0.0334
      3 C          -0.3180   -0.6571   -0.2338 C.ar    1  LIG1        0.0400
      4 C          -0.9264    0.3257    0.5022 C.ar    1  LIG1        0.0465
      5 S          -1.9276   -0.3429    1.7529 S.2     1  LIG1       -0.0942
      6 H          -1.9444   -2.7869    1.8074 H       1  LIG1        0.0694
      7 H          -0.2802   -2.8813   -0.2151 H       1  LIG1        0.0641
      8 N           0.5641   -0.4317   -1.2960 N.pl3   1  LIG1       -0.3571
      9 H           0.5587   -1.1761   -1.9813 H       1  LIG1        0.1424
     10 H           0.4244    0.4724   -1.7336 H       1  LIG1        0.1424
     11 C          -0.7774    1.7659    0.3011 C.ar    1  LIG1        0.0301
     12 C           0.3693    2.4303   -0.0320 C.ar    1  LIG1       -0.0250
     13 C           0.1722    3.8459   -0.1776 C.ar    1  LIG1        0.0406
     14 C          -1.1233    4.2181    0.0713 C.ar    1  LIG1        0.0472
     15 S          -2.1187    2.8485    0.4564 S.2     1  LIG1       -0.0853
     16 H           1.3289    1.9394   -0.1276 H       1  LIG1        0.0648
     17 N           1.2091    4.7280   -0.4966 N.pl3   1  LIG1       -0.3570
     18 H           1.9491    4.2948   -1.0337 H       1  LIG1        0.1424
     19 H           0.8779    5.5785   -0.9389 H       1  LIG1        0.1424
     20 C          -1.6477    5.5813    0.0389 C.ar    1  LIG1        0.0301
     21 C          -1.0040    6.7175    0.4433 C.ar    1  LIG1       -0.0250
     22 C          -1.7967    7.9022    0.2627 C.ar    1  LIG1        0.0406
     23 C          -3.0321    7.6267   -0.2607 C.ar    1  LIG1        0.0471
     24 S          -3.2356    5.9276   -0.5578 S.2     1  LIG1       -0.0853
     25 H          -0.0231    6.7105    0.8993 H       1  LIG1        0.0648
     26 N          -1.3517    9.1744    0.6343 N.pl3   1  LIG1       -0.3570
     27 H          -0.3503    9.2886    0.5472 H       1  LIG1        0.1424
     28 H          -1.8558    9.9176    0.1632 H       1  LIG1        0.1424
     29 C          -4.0891    8.5998   -0.5322 C.ar    1  LIG1        0.0295
     30 C          -4.4537    9.6558    0.2528 C.ar    1  LIG1       -0.0257
     31 C          -5.5312   10.4270   -0.3122 C.ar    1  LIG1        0.0323
     32 C          -5.9540    9.9191   -1.5026 C.ar    1  LIG1       -0.0031
     33 S          -5.0535    8.5200   -1.9686 S.2     1  LIG1       -0.0942
     34 H          -6.7520   10.2872   -2.1265 H       1  LIG1        0.0712
     35 H          -4.0161    9.8491    1.2233 H       1  LIG1        0.0647
     36 N          -6.0972   11.5147    0.3719 N.pl3   1  LIG1       -0.3575
     37 H          -5.4102   12.0941    0.8371 H       1  LIG1        0.1423
     38 H          -6.7121   12.0779   -0.2003 H       1  LIG1        0.1423
@<TRIPOS>BOND
     1    34    32    1
     2     9     8    1
     3    33    32   ar
     4    33    29   ar
     5    10     8    1
     6    32    31   ar
     7     8     3    1
     8    18    17    1
     9    19    17    1
    10    24    23   ar
    11    24    20   ar
    12    29    23    1
    13    29    30   ar
    14    17    13    1
    15    31    30   ar
    16    31    36    1
    17    23    22   ar
    18     3     2   ar
    19     3     4   ar
    20     7     2    1
    21    38    36    1
    22    13    12   ar
    23    13    14   ar
    24    16    12    1
    25    12    11   ar
    26    20    14    1
    27    20    21   ar
    28    14    15   ar
    29    28    26    1
    30     2     1   ar
    31    30    35    1
    32    22    21   ar
    33    22    26    1
    34    11    15   ar
    35    11     4    1
    36    36    37    1
    37    21    25    1
    38     4     5   ar
    39    27    26    1
    40     1     5   ar
    41     1     6    1
