@<TRIPOS>MOLECULE
mol_data/opt/m06hf/geoms/mol2/5ah5ah-5ah.out
 29 31 0 0 0
SMALL
GASTEIGER

@<TRIPOS>ATOM
      1 C          -1.8329   -1.9236    0.8418 C.ar    1  LIG1       -0.0219
      2 C          -0.7242   -1.9265    0.0598 C.ar    1  LIG1       -0.0334
      3 C          -0.2738   -0.5966   -0.2603 C.ar    1  LIG1        0.0400
      4 C          -1.0650    0.3664    0.3080 C.ar    1  LIG1        0.0465
      5 S          -2.3555   -0.3340    1.2338 S.2     1  LIG1       -0.0942
      6 H          -2.3691   -2.7775    1.2227 H       1  LIG1        0.0694
      7 H          -0.2256   -2.8205   -0.2859 H       1  LIG1        0.0641
      8 N           0.8593   -0.3468   -1.0419 N.pl3   1  LIG1       -0.3571
      9 H           1.0104   -1.0485   -1.7556 H       1  LIG1        0.1424
     10 H           0.8583    0.5861   -1.4400 H       1  LIG1        0.1424
     11 C          -0.8842    1.8117    0.1799 C.ar    1  LIG1        0.0301
     12 C           0.2960    2.4968    0.2254 C.ar    1  LIG1       -0.0250
     13 C           0.1295    3.9125    0.0380 C.ar    1  LIG1        0.0406
     14 C          -1.1838    4.2636   -0.1267 C.ar    1  LIG1        0.0471
     15 S          -2.2281    2.8752   -0.0813 S.2     1  LIG1       -0.0853
     16 H           1.2469    2.0225    0.4300 H       1  LIG1        0.0648
     17 N           1.2000    4.8119    0.0718 N.pl3   1  LIG1       -0.3570
     18 H           2.0657    4.4153   -0.2692 H       1  LIG1        0.1424
     19 H           0.9856    5.6903   -0.3876 H       1  LIG1        0.1424
     20 C          -1.6916    5.6228   -0.3119 C.ar    1  LIG1        0.0295
     21 C          -1.2825    6.7468    0.3464 C.ar    1  LIG1       -0.0257
     22 C          -1.9723    7.9338   -0.0893 C.ar    1  LIG1        0.0323
     23 C          -2.8908    7.6646   -1.0581 C.ar    1  LIG1       -0.0031
     24 S          -2.9282    5.9879   -1.4718 S.2     1  LIG1       -0.0942
     25 H          -3.5547    8.3613   -1.5435 H       1  LIG1        0.0712
     26 H          -0.5584    6.7293    1.1502 H       1  LIG1        0.0647
     27 N          -1.7464    9.1813    0.5126 N.pl3   1  LIG1       -0.3575
     28 H          -0.7723    9.3523    0.7260 H       1  LIG1        0.1423
     29 H          -2.1435    9.9573    0.0003 H       1  LIG1        0.1423
@<TRIPOS>BOND
     1     9     8    1
     2    25    23    1
     3    24    23   ar
     4    24    20   ar
     5    10     8    1
     6    23    22   ar
     7     8     3    1
     8    19    17    1
     9    20    14    1
    10    20    21   ar
    11     7     2    1
    12    18    17    1
    13     3     2   ar
    14     3     4   ar
    15    14    15   ar
    16    14    13   ar
    17    22    21   ar
    18    22    27    1
    19    15    11   ar
    20    29    27    1
    21    13    17    1
    22    13    12   ar
    23     2     1   ar
    24    11    12   ar
    25    11     4    1
    26    12    16    1
    27     4     5   ar
    28    21    26    1
    29    27    28    1
    30     1     6    1
    31     1     5   ar
