@<TRIPOS>MOLECULE
mol_data/opt/m06hf/geoms/mol2/5ah5ah-5ah-.out
 29 31 0 0 0
SMALL
GASTEIGER

@<TRIPOS>ATOM
      1 C          -1.8352   -1.9248    0.8337 C.ar    1  LIG1       -0.0219
      2 C          -0.7246   -1.9265    0.0544 C.ar    1  LIG1       -0.0334
      3 C          -0.2735   -0.5960   -0.2623 C.ar    1  LIG1        0.0400
      4 C          -1.0660    0.3660    0.3058 C.ar    1  LIG1        0.0465
      5 S          -2.3587   -0.3359    1.2273 S.2     1  LIG1       -0.0942
      6 H          -2.3723   -2.7794    1.2119 H       1  LIG1        0.0694
      7 H          -0.2252   -2.8199   -0.2917 H       1  LIG1        0.0641
      8 N           0.8615   -0.3449   -1.0408 N.pl3   1  LIG1       -0.3571
      9 H           1.0142   -1.0453   -1.7553 H       1  LIG1        0.1424
     10 H           0.8614    0.5887   -1.4373 H       1  LIG1        0.1424
     11 C          -0.8848    1.8116    0.1807 C.ar    1  LIG1        0.0301
     12 C           0.2953    2.4965    0.2302 C.ar    1  LIG1       -0.0250
     13 C           0.1294    3.9126    0.0449 C.ar    1  LIG1        0.0406
     14 C          -1.1836    4.2640   -0.1223 C.ar    1  LIG1        0.0471
     15 S          -2.2281    2.8756   -0.0818 S.2     1  LIG1       -0.0853
     16 H           1.2457    2.0218    0.4362 H       1  LIG1        0.0648
     17 N           1.1997    4.8118    0.0828 N.pl3   1  LIG1       -0.3570
     18 H           2.0663    4.4159   -0.2569 H       1  LIG1        0.1424
     19 H           0.9865    5.6911   -0.3755 H       1  LIG1        0.1424
     20 C          -1.6909    5.6235   -0.3063 C.ar    1  LIG1        0.0295
     21 C          -1.2833    6.7464    0.3549 C.ar    1  LIG1       -0.0257
     22 C          -1.9721    7.9342   -0.0803 C.ar    1  LIG1        0.0323
     23 C          -2.8883    7.6667   -1.0517 C.ar    1  LIG1       -0.0031
     24 S          -2.9248    5.9908   -1.4684 S.2     1  LIG1       -0.0942
     25 H          -3.5510    8.3643   -1.5375 H       1  LIG1        0.0712
     26 H          -0.5611    6.7275    1.1604 H       1  LIG1        0.0647
     27 N          -1.7475    9.1806    0.5244 N.pl3   1  LIG1       -0.3575
     28 H          -0.7739    9.3512    0.7404 H       1  LIG1        0.1423
     29 H          -2.1434    9.9575    0.0124 H       1  LIG1        0.1423
@<TRIPOS>BOND
     1     9     8    1
     2    25    23    1
     3    24    23   ar
     4    24    20   ar
     5    10     8    1
     6    23    22   ar
     7     8     3    1
     8    19    17    1
     9    20    14    1
    10    20    21   ar
    11     7     2    1
    12     3     2   ar
    13     3     4   ar
    14    18    17    1
    15    14    15   ar
    16    14    13   ar
    17    15    11   ar
    18    22    21   ar
    19    22    27    1
    20    29    27    1
    21    13    17    1
    22    13    12   ar
    23     2     1   ar
    24    11    12   ar
    25    11     4    1
    26    12    16    1
    27     4     5   ar
    28    21    26    1
    29    27    28    1
    30     1     6    1
    31     1     5   ar
