@<TRIPOS>MOLECULE
mol_data/opt/m06hf/geoms/mol2/5ah5ah.out
 20 21 0 0 0
SMALL
GASTEIGER

@<TRIPOS>ATOM
      1 C          -2.0198   -1.8503    0.4197 C.ar    1  LIG1       -0.0219
      2 C          -0.7250   -1.8452    0.0146 C.ar    1  LIG1       -0.0334
      3 C          -0.2209   -0.5130   -0.1979 C.ar    1  LIG1        0.0400
      4 C          -1.1635    0.4438    0.0684 C.ar    1  LIG1        0.0465
      5 S          -2.6628   -0.2652    0.5797 S.2     1  LIG1       -0.0942
      6 H          -2.6332   -2.7077    0.6449 H       1  LIG1        0.0694
      7 H          -0.1300   -2.7351   -0.1335 H       1  LIG1        0.0641
      8 N           1.0930   -0.2544   -0.6053 N.pl3   1  LIG1       -0.3571
      9 H           1.4663   -0.9723   -1.2133 H       1  LIG1        0.1424
     10 H           1.1945    0.6662   -1.0192 H       1  LIG1        0.1424
     11 C          -0.9787    1.8907   -0.0502 C.ar    1  LIG1        0.0294
     12 C           0.1170    2.6114    0.3272 C.ar    1  LIG1       -0.0257
     13 C          -0.0109    4.0170    0.0386 C.ar    1  LIG1        0.0323
     14 C          -1.2080    4.3126   -0.5392 C.ar    1  LIG1       -0.0031
     15 S          -2.1892    2.9072   -0.7554 S.2     1  LIG1       -0.0942
     16 H          -1.5703    5.2830   -0.8371 H       1  LIG1        0.0712
     17 H           0.9645    2.1736    0.8377 H       1  LIG1        0.0647
     18 N           0.9795    4.9409    0.4068 N.pl3   1  LIG1       -0.3575
     19 H           1.9192    4.5825    0.2954 H       1  LIG1        0.1423
     20 H           0.8827    5.8402   -0.0451 H       1  LIG1        0.1423
@<TRIPOS>BOND
     1     9     8    1
     2    10     8    1
     3    16    14    1
     4    15    14   ar
     5    15    11   ar
     6     8     3    1
     7    14    13   ar
     8     3     2   ar
     9     3     4   ar
    10     7     2    1
    11    11     4    1
    12    11    12   ar
    13    20    18    1
    14     2     1   ar
    15    13    12   ar
    16    13    18    1
    17     4     5   ar
    18    19    18    1
    19    12    17    1
    20     1     5   ar
    21     1     6    1
