@<TRIPOS>MOLECULE
mol_data/opt/m06hf/geoms/mol2/5ah5ah-5ah-5ah.out
 38 41 0 0 0
SMALL
GASTEIGER

@<TRIPOS>ATOM
      1 C          -1.5366   -1.9479    1.2657 C.ar    1  LIG1       -0.0219
      2 C          -0.6692   -1.9753    0.2224 C.ar    1  LIG1       -0.0334
      3 C          -0.3169   -0.6565   -0.2351 C.ar    1  LIG1        0.0400
      4 C          -0.9307    0.3251    0.4981 C.ar    1  LIG1        0.0465
      5 S          -1.9412   -0.3456    1.7402 S.2     1  LIG1       -0.0942
      6 H          -1.9585   -2.7897    1.7905 H       1  LIG1        0.0694
      7 H          -0.2793   -2.8807   -0.2198 H       1  LIG1        0.0641
      8 N           0.5730   -0.4294   -1.2903 N.pl3   1  LIG1       -0.3571
      9 H           0.5726   -1.1725   -1.9769 H       1  LIG1        0.1424
     10 H           0.4366    0.4755   -1.7274 H       1  LIG1        0.1424
     11 C          -0.7803    1.7657    0.3006 C.ar    1  LIG1        0.0301
     12 C           0.3689    2.4306   -0.0229 C.ar    1  LIG1       -0.0250
     13 C           0.1728    3.8465   -0.1676 C.ar    1  LIG1        0.0406
     14 C          -1.1244    4.2182    0.0724 C.ar    1  LIG1        0.0472
     15 S          -2.1227    2.8480    0.4477 S.2     1  LIG1       -0.0853
     16 H           1.3291    1.9398   -0.1123 H       1  LIG1        0.0648
     17 N           1.2121    4.7290   -0.4774 N.pl3   1  LIG1       -0.3570
     18 H           1.9560    4.2968   -1.0098 H       1  LIG1        0.1424
     19 H           0.8842    5.5803   -0.9207 H       1  LIG1        0.1424
     20 C          -1.6485    5.5815    0.0383 C.ar    1  LIG1        0.0301
     21 C          -1.0079    6.7170    0.4494 C.ar    1  LIG1       -0.0250
     22 C          -1.7992    7.9020    0.2649 C.ar    1  LIG1        0.0406
     23 C          -3.0307    7.6274   -0.2681 C.ar    1  LIG1        0.0471
     24 S          -3.2320    5.9289   -0.5695 S.2     1  LIG1       -0.0853
     25 H          -0.0304    6.7092    0.9127 H       1  LIG1        0.0648
     26 N          -1.3570    9.1736    0.6420 N.pl3   1  LIG1       -0.3570
     27 H          -0.3550    9.2879    0.5625 H       1  LIG1        0.1424
     28 H          -1.8576    9.9176    0.1684 H       1  LIG1        0.1424
     29 C          -4.0856    8.6010   -0.5458 C.ar    1  LIG1        0.0295
     30 C          -4.4560    9.6557    0.2383 C.ar    1  LIG1       -0.0257
     31 C          -5.5294   10.4278   -0.3334 C.ar    1  LIG1        0.0323
     32 C          -5.9433    9.9220   -1.5278 C.ar    1  LIG1       -0.0031
     33 S          -5.0394    8.5236   -1.9894 S.2     1  LIG1       -0.0942
     34 H          -6.7367   10.2912   -2.1569 H       1  LIG1        0.0712
     35 H          -4.0256    9.8474    1.2123 H       1  LIG1        0.0647
     36 N          -6.1003   11.5144    0.3484 N.pl3   1  LIG1       -0.3575
     37 H          -5.4169   12.0931    0.8196 H       1  LIG1        0.1423
     38 H          -6.7110   12.0786   -0.2274 H       1  LIG1        0.1423
@<TRIPOS>BOND
     1    34    32    1
     2    33    32   ar
     3    33    29   ar
     4     9     8    1
     5    10     8    1
     6    32    31   ar
     7     8     3    1
     8    18    17    1
     9    19    17    1
    10    24    23   ar
    11    24    20   ar
    12    29    23    1
    13    29    30   ar
    14    17    13    1
    15    31    30   ar
    16    31    36    1
    17    23    22   ar
    18     3     2   ar
    19     3     4   ar
    20    38    36    1
    21     7     2    1
    22    13    12   ar
    23    13    14   ar
    24    16    12    1
    25    12    11   ar
    26    20    14    1
    27    20    21   ar
    28    14    15   ar
    29    28    26    1
    30     2     1   ar
    31    30    35    1
    32    22    21   ar
    33    22    26    1
    34    11    15   ar
    35    11     4    1
    36    36    37    1
    37    21    25    1
    38     4     5   ar
    39    27    26    1
    40     1     5   ar
    41     1     6    1
