@<TRIPOS>MOLECULE
mol_data/opt/m06hf/geoms/mol2/5ah5ah5ah5ah.out
 38 41 0 0 0
SMALL
GASTEIGER

@<TRIPOS>ATOM
      1 C          -1.5367   -1.9430    1.2764 C.ar    1  LIG1       -0.0219
      2 C          -0.6687   -1.9744    0.2338 C.ar    1  LIG1       -0.0334
      3 C          -0.3166   -0.6572   -0.2288 C.ar    1  LIG1        0.0400
      4 C          -0.9309    0.3271    0.5002 C.ar    1  LIG1        0.0465
      5 S          -1.9419   -0.3391    1.7445 S.2     1  LIG1       -0.0942
      6 H          -1.9586   -2.7829    1.8042 H       1  LIG1        0.0694
      7 H          -0.2781   -2.8813   -0.2047 H       1  LIG1        0.0641
      8 N           0.5739   -0.4341   -1.2844 N.pl3   1  LIG1       -0.3571
      9 H           0.5731   -1.1795   -1.9686 H       1  LIG1        0.1424
     10 H           0.4381    0.4694   -1.7246 H       1  LIG1        0.1424
     11 C          -0.7803    1.7669    0.2976 C.ar    1  LIG1        0.0301
     12 C           0.3691    2.4307   -0.0273 C.ar    1  LIG1       -0.0250
     13 C           0.1731    3.8461   -0.1772 C.ar    1  LIG1        0.0406
     14 C          -1.1243    4.2186    0.0604 C.ar    1  LIG1        0.0472
     15 S          -2.1229    2.8497    0.4398 S.2     1  LIG1       -0.0853
     16 H           1.3295    1.9397   -0.1137 H       1  LIG1        0.0648
     17 N           1.2127    4.7275   -0.4893 N.pl3   1  LIG1       -0.3570
     18 H           1.9569    4.2935   -1.0198 H       1  LIG1        0.1424
     19 H           0.8851    5.5774   -0.9354 H       1  LIG1        0.1424
     20 C          -1.6484    5.5818    0.0212 C.ar    1  LIG1        0.0301
     21 C          -1.0081    6.7187    0.4287 C.ar    1  LIG1       -0.0250
     22 C          -1.7994    7.9031    0.2395 C.ar    1  LIG1        0.0406
     23 C          -3.0305    7.6265   -0.2933 C.ar    1  LIG1        0.0471
     24 S          -3.2317    5.9268   -0.5886 S.2     1  LIG1       -0.0853
     25 H          -0.0310    6.7127    0.8928 H       1  LIG1        0.0648
     26 N          -1.3574    9.1761    0.6122 N.pl3   1  LIG1       -0.3570
     27 H          -0.3555    9.2905    0.5319 H       1  LIG1        0.1424
     28 H          -1.8586    9.9182    0.1364 H       1  LIG1        0.1424
     29 C          -4.0854    8.5990   -0.5752 C.ar    1  LIG1        0.0295
     30 C          -4.4566    9.6563    0.2050 C.ar    1  LIG1       -0.0257
     31 C          -5.5293   10.4266   -0.3706 C.ar    1  LIG1        0.0323
     32 C          -5.9417    9.9168   -1.5638 C.ar    1  LIG1       -0.0031
     33 S          -5.0375    8.5168   -2.0196 S.2     1  LIG1       -0.0942
     34 H          -6.7343   10.2840   -2.1952 H       1  LIG1        0.0712
     35 H          -4.0274    9.8512    1.1789 H       1  LIG1        0.0647
     36 N          -6.1009   11.5156    0.3068 N.pl3   1  LIG1       -0.3575
     37 H          -5.4181   12.0954    0.7773 H       1  LIG1        0.1423
     38 H          -6.7105   12.0781   -0.2718 H       1  LIG1        0.1423
@<TRIPOS>BOND
     1    34    32    1
     2    33    32   ar
     3    33    29   ar
     4     9     8    1
     5    10     8    1
     6    32    31   ar
     7     8     3    1
     8    18    17    1
     9    19    17    1
    10    24    23   ar
    11    24    20   ar
    12    29    23    1
    13    29    30   ar
    14    17    13    1
    15    31    30   ar
    16    31    36    1
    17    23    22   ar
    18    38    36    1
    19     3     2   ar
    20     3     4   ar
    21     7     2    1
    22    13    12   ar
    23    13    14   ar
    24    16    12    1
    25    12    11   ar
    26    20    14    1
    27    20    21   ar
    28    14    15   ar
    29    28    26    1
    30    30    35    1
    31     2     1   ar
    32    22    21   ar
    33    22    26    1
    34    11    15   ar
    35    11     4    1
    36    36    37    1
    37    21    25    1
    38     4     5   ar
    39    27    26    1
    40     1     5   ar
    41     1     6    1
