@<TRIPOS>MOLECULE
mol_data/opt/m06hf/geoms/mol2/5ah5ah-5ah-5ah-.out
 38 41 0 0 0
SMALL
GASTEIGER

@<TRIPOS>ATOM
      1 C          -1.5360   -1.9466    1.2708 C.ar    1  LIG1       -0.0219
      2 C          -0.6690   -1.9752    0.2274 C.ar    1  LIG1       -0.0334
      3 C          -0.3168   -0.6569   -0.2318 C.ar    1  LIG1        0.0400
      4 C          -0.9304    0.3256    0.5004 C.ar    1  LIG1        0.0465
      5 S          -1.9406   -0.3438    1.7436 S.2     1  LIG1       -0.0942
      6 H          -1.9578   -2.7878    1.7967 H       1  LIG1        0.0694
      7 H          -0.2791   -2.8811   -0.2139 H       1  LIG1        0.0641
      8 N           0.5728   -0.4310   -1.2875 N.pl3   1  LIG1       -0.3571
      9 H           0.5723   -1.1750   -1.9732 H       1  LIG1        0.1424
     10 H           0.4363    0.4734   -1.7256 H       1  LIG1        0.1424
     11 C          -0.7800    1.7659    0.3012 C.ar    1  LIG1        0.0301
     12 C           0.3690    2.4304   -0.0234 C.ar    1  LIG1       -0.0250
     13 C           0.1729    3.8461   -0.1697 C.ar    1  LIG1        0.0406
     14 C          -1.1243    4.2181    0.0703 C.ar    1  LIG1        0.0472
     15 S          -2.1224    2.8483    0.4475 S.2     1  LIG1       -0.0853
     16 H           1.3292    1.9395   -0.1124 H       1  LIG1        0.0648
     17 N           1.2120    4.7283   -0.4808 N.pl3   1  LIG1       -0.3570
     18 H           1.9558    4.2955   -1.0129 H       1  LIG1        0.1424
     19 H           0.8840    5.5791   -0.9249 H       1  LIG1        0.1424
     20 C          -1.6484    5.5814    0.0348 C.ar    1  LIG1        0.0301
     21 C          -1.0077    6.7173    0.4444 C.ar    1  LIG1       -0.0250
     22 C          -1.7991    7.9021    0.2587 C.ar    1  LIG1        0.0406
     23 C          -3.0307    7.6269   -0.2736 C.ar    1  LIG1        0.0471
     24 S          -3.2321    5.9280   -0.5730 S.2     1  LIG1       -0.0853
     25 H          -0.0301    6.7101    0.9074 H       1  LIG1        0.0648
     26 N          -1.3568    9.1742    0.6343 N.pl3   1  LIG1       -0.3570
     27 H          -0.3548    9.2884    0.5544 H       1  LIG1        0.1424
     28 H          -1.8575    9.9176    0.1599 H       1  LIG1        0.1424
     29 C          -4.0857    8.6002   -0.5521 C.ar    1  LIG1        0.0295
     30 C          -4.4559    9.6557    0.2309 C.ar    1  LIG1       -0.0257
     31 C          -5.5294   10.4272   -0.3415 C.ar    1  LIG1        0.0323
     32 C          -5.9436    9.9200   -1.5352 C.ar    1  LIG1       -0.0031
     33 S          -5.0399    8.5211   -1.9955 S.2     1  LIG1       -0.0942
     34 H          -6.7372   10.2884   -2.1645 H       1  LIG1        0.0712
     35 H          -4.0253    9.8486    1.2045 H       1  LIG1        0.0647
     36 N          -6.1002   11.5146    0.3392 N.pl3   1  LIG1       -0.3575
     37 H          -5.4167   12.0938    0.8096 H       1  LIG1        0.1423
     38 H          -6.7111   12.0781   -0.2371 H       1  LIG1        0.1423
@<TRIPOS>BOND
     1    34    32    1
     2    33    32   ar
     3    33    29   ar
     4     9     8    1
     5    10     8    1
     6    32    31   ar
     7     8     3    1
     8    18    17    1
     9    19    17    1
    10    24    23   ar
    11    24    20   ar
    12    29    23    1
    13    29    30   ar
    14    17    13    1
    15    31    30   ar
    16    31    36    1
    17    23    22   ar
    18    38    36    1
    19     3     2   ar
    20     3     4   ar
    21     7     2    1
    22    13    12   ar
    23    13    14   ar
    24    16    12    1
    25    12    11   ar
    26    20    14    1
    27    20    21   ar
    28    14    15   ar
    29    28    26    1
    30     2     1   ar
    31    30    35    1
    32    22    21   ar
    33    22    26    1
    34    11    15   ar
    35    11     4    1
    36    36    37    1
    37    21    25    1
    38     4     5   ar
    39    27    26    1
    40     1     5   ar
    41     1     6    1
