@<TRIPOS>MOLECULE
mol_data/opt/m06hf/geoms/mol2/5ah5ah5ah-.out
 29 31 0 0 0
SMALL
GASTEIGER

@<TRIPOS>ATOM
      1 C          -1.8429   -1.9221    0.8321 C.ar    1  LIG1       -0.0219
      2 C          -0.7254   -1.9259    0.0627 C.ar    1  LIG1       -0.0334
      3 C          -0.2715   -0.5964   -0.2538 C.ar    1  LIG1        0.0400
      4 C          -1.0691    0.3673    0.3044 C.ar    1  LIG1        0.0465
      5 S          -2.3700   -0.3321    1.2163 S.2     1  LIG1       -0.0942
      6 H          -2.3834   -2.7756    1.2079 H       1  LIG1        0.0694
      7 H          -0.2229   -2.8203   -0.2763 H       1  LIG1        0.0641
      8 N           0.8704   -0.3475   -1.0229 N.pl3   1  LIG1       -0.3571
      9 H           1.0295   -1.0499   -1.7339 H       1  LIG1        0.1424
     10 H           0.8738    0.5850   -1.4220 H       1  LIG1        0.1424
     11 C          -0.8869    1.8125    0.1767 C.ar    1  LIG1        0.0301
     12 C           0.2927    2.4976    0.2348 C.ar    1  LIG1       -0.0250
     13 C           0.1284    3.9131    0.0438 C.ar    1  LIG1        0.0406
     14 C          -1.1831    4.2640   -0.1362 C.ar    1  LIG1        0.0471
     15 S          -2.2278    2.8756   -0.1010 S.2     1  LIG1       -0.0853
     16 H           1.2413    2.0236    0.4507 H       1  LIG1        0.0648
     17 N           1.1983    4.8126    0.0887 N.pl3   1  LIG1       -0.3570
     18 H           2.0679    4.4157   -0.2421 H       1  LIG1        0.1424
     19 H           0.9891    5.6904   -0.3741 H       1  LIG1        0.1424
     20 C          -1.6887    5.6229   -0.3287 C.ar    1  LIG1        0.0295
     21 C          -1.2871    6.7477    0.3329 C.ar    1  LIG1       -0.0257
     22 C          -1.9720    7.9342   -0.1119 C.ar    1  LIG1        0.0323
     23 C          -2.8795    7.6638   -1.0908 C.ar    1  LIG1       -0.0031
     24 S          -2.9122    5.9866   -1.5028 S.2     1  LIG1       -0.0942
     25 H          -3.5378    8.3599   -1.5845 H       1  LIG1        0.0712
     26 H          -0.5722    6.7312    1.1449 H       1  LIG1        0.0647
     27 N          -1.7530    9.1823    0.4911 N.pl3   1  LIG1       -0.3575
     28 H          -0.7814    9.3537    0.7153 H       1  LIG1        0.1423
     29 H          -2.1443    9.9578   -0.0266 H       1  LIG1        0.1423
@<TRIPOS>BOND
     1     9     8    1
     2    25    23    1
     3    24    23   ar
     4    24    20   ar
     5    10     8    1
     6    23    22   ar
     7     8     3    1
     8    19    17    1
     9    20    14    1
    10    20    21   ar
    11     7     2    1
    12     3     2   ar
    13     3     4   ar
    14    18    17    1
    15    14    15   ar
    16    14    13   ar
    17    22    21   ar
    18    22    27    1
    19    15    11   ar
    20    29    27    1
    21    13    17    1
    22    13    12   ar
    23     2     1   ar
    24    11    12   ar
    25    11     4    1
    26    12    16    1
    27     4     5   ar
    28    21    26    1
    29    27    28    1
    30     1     6    1
    31     1     5   ar
