@<TRIPOS>MOLECULE
mol_data/opt/m06hf/geoms/mol2/5ah5ah-5ah5ah.out
 38 41 0 0 0
SMALL
GASTEIGER

@<TRIPOS>ATOM
      1 C          -1.5265   -1.9472    1.2736 C.ar    1  LIG1       -0.0219
      2 C          -0.6668   -1.9754    0.2240 C.ar    1  LIG1       -0.0334
      3 C          -0.3183   -0.6568   -0.2373 C.ar    1  LIG1        0.0400
      4 C          -0.9268    0.3253    0.4996 C.ar    1  LIG1        0.0465
      5 S          -1.9279   -0.3447    1.7498 S.2     1  LIG1       -0.0942
      6 H          -1.9443   -2.7887    1.8022 H       1  LIG1        0.0694
      7 H          -0.2798   -2.8810   -0.2202 H       1  LIG1        0.0641
      8 N           0.5639   -0.4306   -1.2993 N.pl3   1  LIG1       -0.3571
      9 H           0.5576   -1.1739   -1.9857 H       1  LIG1        0.1424
     10 H           0.4246    0.4743   -1.7356 H       1  LIG1        0.1424
     11 C          -0.7777    1.7657    0.3001 C.ar    1  LIG1        0.0301
     12 C           0.3692    2.4304   -0.0318 C.ar    1  LIG1       -0.0250
     13 C           0.1721    3.8462   -0.1758 C.ar    1  LIG1        0.0406
     14 C          -1.1233    4.2181    0.0732 C.ar    1  LIG1        0.0472
     15 S          -2.1190    2.8481    0.4563 S.2     1  LIG1       -0.0853
     16 H           1.3288    1.9396   -0.1274 H       1  LIG1        0.0648
     17 N           1.2092    4.7286   -0.4934 N.pl3   1  LIG1       -0.3570
     18 H           1.9492    4.2962   -1.0312 H       1  LIG1        0.1424
     19 H           0.8782    5.5799   -0.9343 H       1  LIG1        0.1424
     20 C          -1.6477    5.5814    0.0423 C.ar    1  LIG1        0.0301
     21 C          -1.0041    6.7171    0.4482 C.ar    1  LIG1       -0.0250
     22 C          -1.7968    7.9020    0.2689 C.ar    1  LIG1        0.0406
     23 C          -3.0321    7.6271   -0.2551 C.ar    1  LIG1        0.0471
     24 S          -3.2357    5.9284   -0.5539 S.2     1  LIG1       -0.0853
     25 H          -0.0233    6.7096    0.9046 H       1  LIG1        0.0648
     26 N          -1.3518    9.1738    0.6420 N.pl3   1  LIG1       -0.3570
     27 H          -0.3505    9.2885    0.5542 H       1  LIG1        0.1424
     28 H          -1.8567    9.9175    0.1725 H       1  LIG1        0.1424
     29 C          -4.0891    8.6006   -0.5256 C.ar    1  LIG1        0.0295
     30 C          -4.4541    9.6555    0.2607 C.ar    1  LIG1       -0.0257
     31 C          -5.5311   10.4276   -0.3040 C.ar    1  LIG1        0.0323
     32 C          -5.9530    9.9215   -1.4956 C.ar    1  LIG1       -0.0031
     33 S          -5.0525    8.5228   -1.9627 S.2     1  LIG1       -0.0942
     34 H          -6.7505   10.2906   -2.1195 H       1  LIG1        0.0712
     35 H          -4.0172    9.8473    1.2318 H       1  LIG1        0.0647
     36 N          -6.0974   11.5145    0.3811 N.pl3   1  LIG1       -0.3575
     37 H          -5.4108   12.0929    0.8481 H       1  LIG1        0.1423
     38 H          -6.7114   12.0789   -0.1910 H       1  LIG1        0.1423
@<TRIPOS>BOND
     1    34    32    1
     2     9     8    1
     3    33    32   ar
     4    33    29   ar
     5    10     8    1
     6    32    31   ar
     7     8     3    1
     8    18    17    1
     9    19    17    1
    10    24    23   ar
    11    24    20   ar
    12    29    23    1
    13    29    30   ar
    14    17    13    1
    15    31    30   ar
    16    31    36    1
    17    23    22   ar
    18     3     2   ar
    19     3     4   ar
    20     7     2    1
    21    38    36    1
    22    13    12   ar
    23    13    14   ar
    24    16    12    1
    25    12    11   ar
    26    20    14    1
    27    20    21   ar
    28    14    15   ar
    29    28    26    1
    30     2     1   ar
    31    30    35    1
    32    22    21   ar
    33    22    26    1
    34    11    15   ar
    35    11     4    1
    36    36    37    1
    37    21    25    1
    38     4     5   ar
    39    27    26    1
    40     1     5   ar
    41     1     6    1
