@<TRIPOS>MOLECULE
mol_data/opt/m06hf/geoms/mol2/5ah5ah-.out
 20 21 0 0 0
SMALL
GASTEIGER

@<TRIPOS>ATOM
      1 C          -2.0167   -1.8501    0.4292 C.ar    1  LIG1       -0.0219
      2 C          -0.7244   -1.8454    0.0159 C.ar    1  LIG1       -0.0334
      3 C          -0.2218   -0.5135   -0.2016 C.ar    1  LIG1        0.0400
      4 C          -1.1628    0.4436    0.0694 C.ar    1  LIG1        0.0465
      5 S          -2.6587   -0.2648    0.5912 S.2     1  LIG1       -0.0942
      6 H          -2.6286   -2.7072    0.6594 H       1  LIG1        0.0694
      7 H          -0.1304   -2.7355   -0.1349 H       1  LIG1        0.0641
      8 N           1.0895   -0.2553   -0.6177 N.pl3   1  LIG1       -0.3571
      9 H           1.4589   -0.9739   -1.2271 H       1  LIG1        0.1424
     10 H           1.1882    0.6647   -1.0334 H       1  LIG1        0.1424
     11 C          -0.9789    1.8903   -0.0522 C.ar    1  LIG1        0.0294
     12 C           0.1192    2.6117    0.3173 C.ar    1  LIG1       -0.0257
     13 C          -0.0107    4.0168    0.0276 C.ar    1  LIG1        0.0323
     14 C          -1.2115    4.3116   -0.5428 C.ar    1  LIG1       -0.0031
     15 S          -2.1939    2.9058   -0.7510 S.2     1  LIG1       -0.0942
     16 H          -1.5757    5.2816   -0.8397 H       1  LIG1        0.0712
     17 H           0.9699    2.1745    0.8230 H       1  LIG1        0.0647
     18 N           0.9820    4.9412    0.3884 N.pl3   1  LIG1       -0.3575
     19 H           1.9210    4.5828    0.2715 H       1  LIG1        0.1423
     20 H           0.8823    5.8400   -0.0641 H       1  LIG1        0.1423
@<TRIPOS>BOND
     1     9     8    1
     2    10     8    1
     3    16    14    1
     4    15    14   ar
     5    15    11   ar
     6     8     3    1
     7    14    13   ar
     8     3     2   ar
     9     3     4   ar
    10     7     2    1
    11    20    18    1
    12    11     4    1
    13    11    12   ar
    14     2     1   ar
    15    13    12   ar
    16    13    18    1
    17     4     5   ar
    18    19    18    1
    19    12    17    1
    20     1     5   ar
    21     1     6    1
