@<TRIPOS>MOLECULE
mol_data/opt/m06hf/geoms/mol2/5ah5ah5ah.out
 29 31 0 0 0
SMALL
GASTEIGER

@<TRIPOS>ATOM
      1 C          -1.8407   -1.9208    0.8402 C.ar    1  LIG1       -0.0219
      2 C          -0.7250   -1.9260    0.0681 C.ar    1  LIG1       -0.0334
      3 C          -0.2719   -0.5970   -0.2518 C.ar    1  LIG1        0.0400
      4 C          -1.0682    0.3676    0.3066 C.ar    1  LIG1        0.0465
      5 S          -2.3668   -0.3302    1.2229 S.2     1  LIG1       -0.0942
      6 H          -2.3802   -2.7736    1.2188 H       1  LIG1        0.0694
      7 H          -0.2233   -2.8210   -0.2705 H       1  LIG1        0.0641
      8 N           0.8681   -0.3494   -1.0241 N.pl3   1  LIG1       -0.3571
      9 H           1.0256   -1.0531   -1.7343 H       1  LIG1        0.1424
     10 H           0.8706    0.5823   -1.4248 H       1  LIG1        0.1424
     11 C          -0.8863    1.8126    0.1759 C.ar    1  LIG1        0.0301
     12 C           0.2934    2.4979    0.2299 C.ar    1  LIG1       -0.0250
     13 C           0.1286    3.9130    0.0369 C.ar    1  LIG1        0.0406
     14 C          -1.1833    4.2635   -0.1406 C.ar    1  LIG1        0.0471
     15 S          -2.2279    2.8752   -0.1004 S.2     1  LIG1       -0.0853
     16 H           1.2425    2.0242    0.4444 H       1  LIG1        0.0648
     17 N           1.1986    4.8126    0.0776 N.pl3   1  LIG1       -0.3570
     18 H           2.0674    4.4151   -0.2545 H       1  LIG1        0.1424
     19 H           0.9883    5.6896   -0.3862 H       1  LIG1        0.1424
     20 C          -1.6894    5.6221   -0.3342 C.ar    1  LIG1        0.0295
     21 C          -1.2862    6.7481    0.3244 C.ar    1  LIG1       -0.0257
     22 C          -1.9723    7.9338   -0.1209 C.ar    1  LIG1        0.0323
     23 C          -2.8821    7.6617   -1.0971 C.ar    1  LIG1       -0.0031
     24 S          -2.9157    5.9838   -1.5061 S.2     1  LIG1       -0.0942
     25 H          -3.5416    8.3569   -1.5904 H       1  LIG1        0.0712
     26 H          -0.5694    6.7330    1.1347 H       1  LIG1        0.0647
     27 N          -1.7518    9.1830    0.4794 N.pl3   1  LIG1       -0.3575
     28 H          -0.7797    9.3547    0.7010 H       1  LIG1        0.1423
     29 H          -2.1444    9.9575   -0.0388 H       1  LIG1        0.1423
@<TRIPOS>BOND
     1     9     8    1
     2    25    23    1
     3    24    23   ar
     4    24    20   ar
     5    10     8    1
     6    23    22   ar
     7     8     3    1
     8    19    17    1
     9    20    14    1
    10    20    21   ar
    11     7     2    1
    12    18    17    1
    13     3     2   ar
    14     3     4   ar
    15    14    15   ar
    16    14    13   ar
    17    22    21   ar
    18    22    27    1
    19    15    11   ar
    20    29    27    1
    21    13    17    1
    22    13    12   ar
    23     2     1   ar
    24    11    12   ar
    25    11     4    1
    26    12    16    1
    27     4     5   ar
    28    21    26    1
    29    27    28    1
    30     1     6    1
    31     1     5   ar
