@<TRIPOS>MOLECULE
mol_data/opt/m06hf/geoms/mol2/5ah5ah5ah-5ah-.out
 38 41 0 0 0
SMALL
GASTEIGER

@<TRIPOS>ATOM
      1 C          -1.5456   -1.9424    1.2740 C.ar    1  LIG1       -0.0219
      2 C          -0.6705   -1.9743    0.2374 C.ar    1  LIG1       -0.0334
      3 C          -0.3153   -0.6573   -0.2234 C.ar    1  LIG1        0.0400
      4 C          -0.9347    0.3273    0.5008 C.ar    1  LIG1        0.0465
      5 S          -1.9542   -0.3382    1.7384 S.2     1  LIG1       -0.0942
      6 H          -1.9712   -2.7820    1.7994 H       1  LIG1        0.0694
      7 H          -0.2770   -2.8815   -0.1979 H       1  LIG1        0.0641
      8 N           0.5824   -0.4348   -1.2731 N.pl3   1  LIG1       -0.3571
      9 H           0.5864   -1.1806   -1.9568 H       1  LIG1        0.1424
     10 H           0.4495    0.4684   -1.7147 H       1  LIG1        0.1424
     11 C          -0.7827    1.7671    0.2984 C.ar    1  LIG1        0.0301
     12 C           0.3688    2.4307   -0.0189 C.ar    1  LIG1       -0.0250
     13 C           0.1738    3.8460   -0.1710 C.ar    1  LIG1        0.0406
     14 C          -1.1252    4.2186    0.0574 C.ar    1  LIG1        0.0472
     15 S          -2.1263    2.8499    0.4308 S.2     1  LIG1       -0.0853
     16 H           1.3298    1.9397   -0.0985 H       1  LIG1        0.0648
     17 N           1.2154    4.7273   -0.4765 N.pl3   1  LIG1       -0.3570
     18 H           1.9633    4.2930   -1.0016 H       1  LIG1        0.1424
     19 H           0.8909    5.5769   -0.9253 H       1  LIG1        0.1424
     20 C          -1.6492    5.5817    0.0138 C.ar    1  LIG1        0.0301
     21 C          -1.0117    6.7189    0.4249 C.ar    1  LIG1       -0.0250
     22 C          -1.8018    7.9031    0.2294 C.ar    1  LIG1        0.0406
     23 C          -3.0292    7.6261   -0.3117 C.ar    1  LIG1        0.0471
     24 S          -3.2282    5.9262   -0.6073 S.2     1  LIG1       -0.0853
     25 H          -0.0379    6.7133    0.8958 H       1  LIG1        0.0648
     26 N          -1.3625    9.1764    0.6044 N.pl3   1  LIG1       -0.3570
     27 H          -0.3600    9.2907    0.5310 H       1  LIG1        0.1424
     28 H          -1.8603    9.9182    0.1246 H       1  LIG1        0.1424
     29 C          -4.0821    8.5984   -0.6016 C.ar    1  LIG1        0.0295
     30 C          -4.4588    9.6561    0.1754 C.ar    1  LIG1       -0.0257
     31 C          -5.5274   10.4261   -0.4082 C.ar    1  LIG1        0.0323
     32 C          -5.9315    9.9155   -1.6040 C.ar    1  LIG1       -0.0031
     33 S          -5.0243    8.5151   -2.0524 S.2     1  LIG1       -0.0942
     34 H          -6.7196   10.2823   -2.2411 H       1  LIG1        0.0712
     35 H          -4.0364    9.8517    1.1520 H       1  LIG1        0.0647
     36 N          -6.1038   11.5155    0.2644 N.pl3   1  LIG1       -0.3575
     37 H          -5.4242   12.0956    0.7394 H       1  LIG1        0.1423
     38 H          -6.7092   12.0777   -0.3188 H       1  LIG1        0.1423
@<TRIPOS>BOND
     1    34    32    1
     2    33    32   ar
     3    33    29   ar
     4     9     8    1
     5    10     8    1
     6    32    31   ar
     7     8     3    1
     8    18    17    1
     9    19    17    1
    10    24    23   ar
    11    24    20   ar
    12    29    23    1
    13    29    30   ar
    14    17    13    1
    15    31    30   ar
    16    31    36    1
    17    38    36    1
    18    23    22   ar
    19     3     2   ar
    20     3     4   ar
    21     7     2    1
    22    13    12   ar
    23    13    14   ar
    24    16    12    1
    25    12    11   ar
    26    20    14    1
    27    20    21   ar
    28    14    15   ar
    29    28    26    1
    30    30    35    1
    31    22    21   ar
    32    22    26    1
    33     2     1   ar
    34    36    37    1
    35    11    15   ar
    36    11     4    1
    37    21    25    1
    38     4     5   ar
    39    27    26    1
    40     1     5   ar
    41     1     6    1
