@<TRIPOS>MOLECULE
mol_data/opt/m06hf/geoms/mol2/5ah5ah5ah5ah-.out
 38 41 0 0 0
SMALL
GASTEIGER

@<TRIPOS>ATOM
      1 C          -1.5362   -1.9418    1.2813 C.ar    1  LIG1       -0.0219
      2 C          -0.6685   -1.9742    0.2385 C.ar    1  LIG1       -0.0334
      3 C          -0.3165   -0.6575   -0.2256 C.ar    1  LIG1        0.0400
      4 C          -0.9306    0.3275    0.5026 C.ar    1  LIG1        0.0465
      5 S          -1.9413   -0.3373    1.7478 S.2     1  LIG1       -0.0942
      6 H          -1.9580   -2.7811    1.8102 H       1  LIG1        0.0694
      7 H          -0.2781   -2.8817   -0.1991 H       1  LIG1        0.0641
      8 N           0.5737   -0.4356   -1.2817 N.pl3   1  LIG1       -0.3571
      9 H           0.5728   -1.1818   -1.9650 H       1  LIG1        0.1424
     10 H           0.4377    0.4674   -1.7229 H       1  LIG1        0.1424
     11 C          -0.7801    1.7671    0.2983 C.ar    1  LIG1        0.0301
     12 C           0.3692    2.4305   -0.0276 C.ar    1  LIG1       -0.0250
     13 C           0.1732    3.8458   -0.1790 C.ar    1  LIG1        0.0406
     14 C          -1.1242    4.2185    0.0585 C.ar    1  LIG1        0.0472
     15 S          -2.1226    2.8501    0.4397 S.2     1  LIG1       -0.0853
     16 H           1.3296    1.9395   -0.1137 H       1  LIG1        0.0648
     17 N           1.2126    4.7269   -0.4923 N.pl3   1  LIG1       -0.3570
     18 H           1.9568    4.2923   -1.0225 H       1  LIG1        0.1424
     19 H           0.8849    5.5762   -0.9394 H       1  LIG1        0.1424
     20 C          -1.6484    5.5816    0.0178 C.ar    1  LIG1        0.0301
     21 C          -1.0080    6.7191    0.4238 C.ar    1  LIG1       -0.0250
     22 C          -1.7993    7.9032    0.2334 C.ar    1  LIG1        0.0406
     23 C          -3.0306    7.6259   -0.2988 C.ar    1  LIG1        0.0471
     24 S          -3.2318    5.9260   -0.5920 S.2     1  LIG1       -0.0853
     25 H          -0.0307    6.7136    0.8877 H       1  LIG1        0.0648
     26 N          -1.3573    9.1766    0.6045 N.pl3   1  LIG1       -0.3570
     27 H          -0.3554    9.2909    0.5238 H       1  LIG1        0.1424
     28 H          -1.8586    9.9182    0.1279 H       1  LIG1        0.1424
     29 C          -4.0855    8.5981   -0.5816 C.ar    1  LIG1        0.0295
     30 C          -4.4566    9.6563    0.1975 C.ar    1  LIG1       -0.0257
     31 C          -5.5293   10.4260   -0.3788 C.ar    1  LIG1        0.0323
     32 C          -5.9421    9.9148   -1.5714 C.ar    1  LIG1       -0.0031
     33 S          -5.0381    8.5141   -2.0255 S.2     1  LIG1       -0.0942
     34 H          -6.7347   10.2813   -2.2030 H       1  LIG1        0.0712
     35 H          -4.0272    9.8524    1.1710 H       1  LIG1        0.0647
     36 N          -6.1008   11.5158    0.2974 N.pl3   1  LIG1       -0.3575
     37 H          -5.4178   12.0962    0.7671 H       1  LIG1        0.1423
     38 H          -6.7104   12.0777   -0.2818 H       1  LIG1        0.1423
@<TRIPOS>BOND
     1    34    32    1
     2    33    32   ar
     3    33    29   ar
     4     9     8    1
     5    10     8    1
     6    32    31   ar
     7     8     3    1
     8    18    17    1
     9    19    17    1
    10    24    23   ar
    11    24    20   ar
    12    29    23    1
    13    29    30   ar
    14    17    13    1
    15    31    30   ar
    16    31    36    1
    17    23    22   ar
    18    38    36    1
    19     3     2   ar
    20     3     4   ar
    21     7     2    1
    22    13    12   ar
    23    13    14   ar
    24    16    12    1
    25    12    11   ar
    26    20    14    1
    27    20    21   ar
    28    14    15   ar
    29    28    26    1
    30    30    35    1
    31    22    21   ar
    32    22    26    1
    33     2     1   ar
    34    36    37    1
    35    11    15   ar
    36    11     4    1
    37    21    25    1
    38     4     5   ar
    39    27    26    1
    40     1     5   ar
    41     1     6    1
