@<TRIPOS>MOLECULE
mol_data/opt/m06hf/geoms/mol2/5ah5ah5ah-5ah.out
 38 41 0 0 0
SMALL
GASTEIGER

@<TRIPOS>ATOM
      1 C          -1.5461   -1.9437    1.2690 C.ar    1  LIG1       -0.0219
      2 C          -0.6707   -1.9744    0.2326 C.ar    1  LIG1       -0.0334
      3 C          -0.3153   -0.6569   -0.2267 C.ar    1  LIG1        0.0400
      4 C          -0.9350    0.3269    0.4985 C.ar    1  LIG1        0.0465
      5 S          -1.9549   -0.3400    1.7350 S.2     1  LIG1       -0.0942
      6 H          -1.9718   -2.7839    1.7933 H       1  LIG1        0.0694
      7 H          -0.2770   -2.8811   -0.2036 H       1  LIG1        0.0641
      8 N           0.5827   -0.4332   -1.2758 N.pl3   1  LIG1       -0.3571
      9 H           0.5869   -1.1783   -1.9604 H       1  LIG1        0.1424
     10 H           0.4499    0.4705   -1.7165 H       1  LIG1        0.1424
     11 C          -0.7830    1.7669    0.2977 C.ar    1  LIG1        0.0301
     12 C           0.3687    2.4308   -0.0185 C.ar    1  LIG1       -0.0250
     13 C           0.1738    3.8463   -0.1691 C.ar    1  LIG1        0.0406
     14 C          -1.1254    4.2186    0.0594 C.ar    1  LIG1        0.0472
     15 S          -2.1266    2.8495    0.4309 S.2     1  LIG1       -0.0853
     16 H           1.3297    1.9399   -0.0983 H       1  LIG1        0.0648
     17 N           1.2154    4.7280   -0.4732 N.pl3   1  LIG1       -0.3570
     18 H           1.9635    4.2943   -0.9986 H       1  LIG1        0.1424
     19 H           0.8910    5.5781   -0.9211 H       1  LIG1        0.1424
     20 C          -1.6493    5.5818    0.0172 C.ar    1  LIG1        0.0301
     21 C          -1.0120    6.7186    0.4299 C.ar    1  LIG1       -0.0250
     22 C          -1.8020    7.9030    0.2356 C.ar    1  LIG1        0.0406
     23 C          -3.0292    7.6266   -0.3062 C.ar    1  LIG1        0.0471
     24 S          -3.2281    5.9271   -0.6038 S.2     1  LIG1       -0.0853
     25 H          -0.0382    6.7123    0.9011 H       1  LIG1        0.0648
     26 N          -1.3627    9.1758    0.6122 N.pl3   1  LIG1       -0.3570
     27 H          -0.3603    9.2902    0.5392 H       1  LIG1        0.1424
     28 H          -1.8605    9.9182    0.1331 H       1  LIG1        0.1424
     29 C          -4.0820    8.5992   -0.5952 C.ar    1  LIG1        0.0295
     30 C          -4.4589    9.6561    0.1829 C.ar    1  LIG1       -0.0257
     31 C          -5.5274   10.4267   -0.4001 C.ar    1  LIG1        0.0323
     32 C          -5.9312    9.9176   -1.5966 C.ar    1  LIG1       -0.0031
     33 S          -5.0238    8.5177   -2.0464 S.2     1  LIG1       -0.0942
     34 H          -6.7191   10.2851   -2.2334 H       1  LIG1        0.0712
     35 H          -4.0368    9.8505    1.1599 H       1  LIG1        0.0647
     36 N          -6.1039   11.5154    0.2736 N.pl3   1  LIG1       -0.3575
     37 H          -5.4245   12.0950    0.7495 H       1  LIG1        0.1423
     38 H          -6.7092   12.0782   -0.3091 H       1  LIG1        0.1423
@<TRIPOS>BOND
     1    34    32    1
     2    33    32   ar
     3    33    29   ar
     4     9     8    1
     5    10     8    1
     6    32    31   ar
     7     8     3    1
     8    18    17    1
     9    19    17    1
    10    24    23   ar
    11    24    20   ar
    12    29    23    1
    13    29    30   ar
    14    17    13    1
    15    31    30   ar
    16    31    36    1
    17    38    36    1
    18    23    22   ar
    19     3     2   ar
    20     3     4   ar
    21     7     2    1
    22    13    12   ar
    23    13    14   ar
    24    16    12    1
    25    12    11   ar
    26    20    14    1
    27    20    21   ar
    28    14    15   ar
    29    28    26    1
    30    30    35    1
    31     2     1   ar
    32    22    21   ar
    33    22    26    1
    34    36    37    1
    35    11    15   ar
    36    11     4    1
    37    21    25    1
    38     4     5   ar
    39    27    26    1
    40     1     5   ar
    41     1     6    1
