@<TRIPOS>MOLECULE
mol_data/opt/m06hf/geoms/mol2/5ai.out
 12 12 0 0 0
SMALL
GASTEIGER

@<TRIPOS>ATOM
      1 C          -2.1326   -1.7661   -0.0472 C.ar    1  LIG1       -0.0241
      2 C          -0.7758   -1.7322   -0.0846 C.ar    1  LIG1       -0.0518
      3 C          -0.2440   -0.3964    0.0120 C.ar    1  LIG1       -0.0434
      4 C          -1.2367    0.5271    0.1191 C.ar    1  LIG1       -0.0214
      5 S          -2.8050   -0.1882    0.1067 S.2     1  LIG1       -0.1048
      6 H          -2.7780   -2.6277   -0.1006 H       1  LIG1        0.0693
      7 H          -1.1295    1.5968    0.2058 H       1  LIG1        0.0696
      8 H          -0.1571   -2.6137   -0.1773 H       1  LIG1        0.0625
      9 C           1.2355   -0.0821   -0.0058 C.3     1  LIG1       -0.0392
     10 H           1.3989    0.9915    0.0799 H       1  LIG1        0.0278
     11 H           1.6850   -0.4304   -0.9368 H       1  LIG1        0.0278
     12 H           1.7377   -0.5791    0.8254 H       1  LIG1        0.0278
@<TRIPOS>BOND
     1    11     9    1
     2     8     2    1
     3     6     1    1
     4     2     1   ar
     5     2     3   ar
     6     1     5   ar
     7     9     3    1
     8     9    10    1
     9     9    12    1
    10     3     4   ar
    11     5     4   ar
    12     4     7    1
