@<TRIPOS>MOLECULE
mol_data/opt/m06hf/geoms/mol2/5ai5ai-5ai-.out
 32 34 0 0 0
SMALL
GASTEIGER

@<TRIPOS>ATOM
      1 C          -1.9243   -1.8456   -1.0553 C.ar    1  LIG1       -0.0235
      2 C          -0.8538   -1.9197   -0.2226 C.ar    1  LIG1       -0.0512
      3 C          -0.3401   -0.6305    0.1552 C.ar    1  LIG1       -0.0352
      4 C          -1.0510    0.3830   -0.4259 C.ar    1  LIG1        0.0288
      5 S          -2.3369   -0.2181   -1.4210 S.2     1  LIG1       -0.0959
      6 H          -2.4956   -2.6574   -1.4752 H       1  LIG1        0.0693
      7 H          -0.4347   -2.8499    0.1343 H       1  LIG1        0.0626
      8 C           0.8225   -0.4476    1.1041 C.3     1  LIG1       -0.0386
      9 H           0.8328    0.5679    1.4982 H       1  LIG1        0.0278
     10 H           1.7690   -0.6357    0.5930 H       1  LIG1        0.0278
     11 H           0.7357   -1.1509    1.9330 H       1  LIG1        0.0278
     12 C          -0.8244    1.8283   -0.2891 C.ar    1  LIG1        0.0270
     13 C           0.3535    2.5026   -0.4251 C.ar    1  LIG1       -0.0429
     14 C           0.2391    3.9157   -0.2007 C.ar    1  LIG1       -0.0346
     15 C          -1.0495    4.2770    0.0859 C.ar    1  LIG1        0.0294
     16 S          -2.1178    2.9110    0.1007 S.2     1  LIG1       -0.0869
     17 H           1.2807    2.0122   -0.6895 H       1  LIG1        0.0632
     18 C           1.4160    4.8628   -0.2639 C.3     1  LIG1       -0.0386
     19 H           1.1962    5.7740    0.2912 H       1  LIG1        0.0278
     20 H           1.6413    5.1286   -1.2988 H       1  LIG1        0.0278
     21 H           2.2972    4.3854    0.1655 H       1  LIG1        0.0278
     22 C          -1.5626    5.6262    0.3599 C.ar    1  LIG1        0.0264
     23 C          -1.3203    6.7703   -0.3429 C.ar    1  LIG1       -0.0435
     24 C          -1.9748    7.9264    0.2074 C.ar    1  LIG1       -0.0428
     25 C          -2.7035    7.6067    1.3109 C.ar    1  LIG1       -0.0208
     26 S          -2.5996    5.9353    1.7128 S.2     1  LIG1       -0.0959
     27 H          -3.2992    8.2723    1.9159 H       1  LIG1        0.0696
     28 H          -0.7186    6.7891   -1.2416 H       1  LIG1        0.0632
     29 C          -1.8681    9.3114   -0.3908 C.3     1  LIG1       -0.0392
     30 H          -2.4363   10.0273    0.2015 H       1  LIG1        0.0278
     31 H          -2.2571    9.3140   -1.4101 H       1  LIG1        0.0278
     32 H          -0.8257    9.6319   -0.4203 H       1  LIG1        0.0278
@<TRIPOS>BOND
     1     6     1    1
     2     5     1   ar
     3     5     4   ar
     4    31    29    1
     5    20    18    1
     6    28    23    1
     7     1     2   ar
     8    17    13    1
     9     4    12    1
    10     4     3   ar
    11    13    12   ar
    12    13    14   ar
    13    32    29    1
    14    29    30    1
    15    29    24    1
    16    23    24   ar
    17    23    22   ar
    18    12    16   ar
    19    18    14    1
    20    18    21    1
    21    18    19    1
    22     2     7    1
    23     2     3   ar
    24    14    15   ar
    25    15    16   ar
    26    15    22    1
    27     3     8    1
    28    24    25   ar
    29    22    26   ar
    30    10     8    1
    31     8     9    1
    32     8    11    1
    33    25    26   ar
    34    25    27    1
