@<TRIPOS>MOLECULE
mol_data/opt/m06hf/geoms/mol2/5ai5ai5ai.out
 32 34 0 0 0
SMALL
GASTEIGER

@<TRIPOS>ATOM
      1 C          -1.9157   -1.8508   -1.0507 C.ar    1  LIG1       -0.0235
      2 C          -0.8515   -1.9208   -0.2097 C.ar    1  LIG1       -0.0512
      3 C          -0.3408   -0.6297    0.1657 C.ar    1  LIG1       -0.0352
      4 C          -1.0474    0.3809   -0.4256 C.ar    1  LIG1        0.0288
      5 S          -2.3257   -0.2251   -1.4274 S.2     1  LIG1       -0.0959
      6 H          -2.4838   -2.6647   -1.4710 H       1  LIG1        0.0693
      7 H          -0.4350   -2.8492    0.1548 H       1  LIG1        0.0626
      8 C           0.8147   -0.4421    1.1223 C.3     1  LIG1       -0.0386
      9 H           0.8219    0.5753    1.5117 H       1  LIG1        0.0278
     10 H           1.7650   -0.6325    0.6193 H       1  LIG1        0.0278
     11 H           0.7217   -1.1414    1.9540 H       1  LIG1        0.0278
     12 C          -0.8220    1.8268   -0.2940 C.ar    1  LIG1        0.0270
     13 C           0.3569    2.5007   -0.4244 C.ar    1  LIG1       -0.0429
     14 C           0.2407    3.9149   -0.2077 C.ar    1  LIG1       -0.0346
     15 C          -1.0500    4.2773    0.0674 C.ar    1  LIG1        0.0294
     16 S          -2.1183    2.9113    0.0808 S.2     1  LIG1       -0.0869
     17 H           1.2861    2.0091   -0.6795 H       1  LIG1        0.0632
     18 C           1.4180    4.8617   -0.2667 C.3     1  LIG1       -0.0386
     19 H           1.1939    5.7756    0.2824 H       1  LIG1        0.0278
     20 H           1.6510    5.1226   -1.3011 H       1  LIG1        0.0278
     21 H           2.2959    4.3865    0.1716 H       1  LIG1        0.0278
     22 C          -1.5653    5.6278    0.3310 C.ar    1  LIG1        0.0264
     23 C          -1.3179    6.7685   -0.3754 C.ar    1  LIG1       -0.0435
     24 C          -1.9766    7.9272    0.1643 C.ar    1  LIG1       -0.0428
     25 C          -2.7135    7.6127    1.2638 C.ar    1  LIG1       -0.0208
     26 S          -2.6125    5.9433    1.6746 S.2     1  LIG1       -0.0959
     27 H          -3.3138    8.2812    1.8611 H       1  LIG1        0.0696
     28 H          -0.7094    6.7830   -1.2696 H       1  LIG1        0.0632
     29 C          -1.8655    9.3092   -0.4398 C.3     1  LIG1       -0.0392
     30 H          -2.4381   10.0280    0.1448 H       1  LIG1        0.0278
     31 H          -2.2468    9.3069   -1.4619 H       1  LIG1        0.0278
     32 H          -0.8229    9.6297   -0.4630 H       1  LIG1        0.0278
@<TRIPOS>BOND
     1     6     1    1
     2    31    29    1
     3     5     1   ar
     4     5     4   ar
     5    20    18    1
     6    28    23    1
     7     1     2   ar
     8    17    13    1
     9    32    29    1
    10    29    30    1
    11    29    24    1
    12     4    12    1
    13     4     3   ar
    14    13    12   ar
    15    13    14   ar
    16    23    24   ar
    17    23    22   ar
    18    12    16   ar
    19    18    14    1
    20    18    21    1
    21    18    19    1
    22     2     7    1
    23     2     3   ar
    24    14    15   ar
    25    15    16   ar
    26    15    22    1
    27    24    25   ar
    28     3     8    1
    29    22    26   ar
    30    10     8    1
    31     8     9    1
    32     8    11    1
    33    25    26   ar
    34    25    27    1
