@<TRIPOS>MOLECULE
mol_data/opt/m06hf/geoms/mol2/5ai5ai.out
 22 23 0 0 0
SMALL
GASTEIGER

@<TRIPOS>ATOM
      1 C          -2.1000   -1.8031   -0.5401 C.ar    1  LIG1       -0.0235
      2 C          -0.7941   -1.8559   -0.1694 C.ar    1  LIG1       -0.0512
      3 C          -0.2321   -0.5619    0.1103 C.ar    1  LIG1       -0.0352
      4 C          -1.1499    0.4353   -0.0730 C.ar    1  LIG1        0.0288
      5 S          -2.6873   -0.1888   -0.5772 S.2     1  LIG1       -0.0959
      6 H          -2.7516   -2.6236   -0.7930 H       1  LIG1        0.0693
      7 H          -0.2330   -2.7754   -0.0780 H       1  LIG1        0.0626
      8 C           1.1911   -0.3611    0.5808 C.3     1  LIG1       -0.0386
      9 H           1.2954    0.6105    1.0623 H       1  LIG1        0.0278
     10 H           1.8863   -0.4130   -0.2599 H       1  LIG1        0.0278
     11 H           1.4566   -1.1432    1.2926 H       1  LIG1        0.0278
     12 C          -0.9503    1.8808    0.0989 C.ar    1  LIG1        0.0264
     13 C           0.0802    2.6401   -0.3718 C.ar    1  LIG1       -0.0435
     14 C          -0.0216    4.0282   -0.0112 C.ar    1  LIG1       -0.0428
     15 C          -1.1440    4.2704    0.7188 C.ar    1  LIG1       -0.0208
     16 S          -2.0734    2.8482    0.9965 S.2     1  LIG1       -0.0959
     17 H          -1.4751    5.2187    1.1124 H       1  LIG1        0.0696
     18 H           0.8772    2.2318   -0.9784 H       1  LIG1        0.0632
     19 C           0.9946    5.0731   -0.4145 C.3     1  LIG1       -0.0392
     20 H           0.7016    6.0540   -0.0432 H       1  LIG1        0.0278
     21 H           1.0776    5.1205   -1.5014 H       1  LIG1        0.0278
     22 H           1.9753    4.8239   -0.0064 H       1  LIG1        0.0278
@<TRIPOS>BOND
     1    21    19    1
     2    18    13    1
     3     6     1    1
     4     5     1   ar
     5     5     4   ar
     6     1     2   ar
     7    19    20    1
     8    19    14    1
     9    19    22    1
    10    13    14   ar
    11    13    12   ar
    12    10     8    1
    13     2     7    1
    14     2     3   ar
    15     4    12    1
    16     4     3   ar
    17    14    15   ar
    18    12    16   ar
    19     3     8    1
    20     8     9    1
    21     8    11    1
    22    15    16   ar
    23    15    17    1
