@<TRIPOS>MOLECULE
mol_data/opt/m06hf/geoms/mol2/5ai5ai-5ai5ai.out
 42 45 0 0 0
SMALL
GASTEIGER

@<TRIPOS>ATOM
      1 C          -1.4144   -1.8175   -1.7360 C.ar    1  LIG1       -0.0235
      2 C          -0.8146   -1.9282   -0.5228 C.ar    1  LIG1       -0.0512
      3 C          -0.4830   -0.6573    0.0636 C.ar    1  LIG1       -0.0352
      4 C          -0.8456    0.3810   -0.7501 C.ar    1  LIG1        0.0288
      5 S          -1.5855   -0.1768   -2.2170 S.2     1  LIG1       -0.0959
      6 H          -1.7669   -2.6100   -2.3761 H       1  LIG1        0.0693
      7 H          -0.6158   -2.8728   -0.0362 H       1  LIG1        0.0626
      8 C           0.1604   -0.5157    1.4246 C.3     1  LIG1       -0.0386
      9 H          -0.0211    0.4800    1.8277 H       1  LIG1        0.0278
     10 H           1.2387   -0.6756    1.3583 H       1  LIG1        0.0278
     11 H          -0.2538   -1.2581    2.1073 H       1  LIG1        0.0278
     12 C          -0.6645    1.8179   -0.5023 C.ar    1  LIG1        0.0270
     13 C           0.4655    2.4507   -0.0730 C.ar    1  LIG1       -0.0429
     14 C           0.3023    3.8663    0.0986 C.ar    1  LIG1       -0.0346
     15 C          -0.9640    4.2691   -0.2279 C.ar    1  LIG1        0.0294
     16 S          -1.9607    2.9414   -0.7246 S.2     1  LIG1       -0.0869
     17 H           1.3958    1.9290    0.1059 H       1  LIG1        0.0632
     18 C           1.4054    4.7746    0.5930 C.3     1  LIG1       -0.0386
     19 H           0.9868    5.7132    0.9541 H       1  LIG1        0.0278
     20 H           2.1125    4.9903   -0.2106 H       1  LIG1        0.0278
     21 H           1.9476    4.2891    1.4049 H       1  LIG1        0.0278
     22 C          -1.5018    5.6365   -0.1971 C.ar    1  LIG1        0.0270
     23 C          -0.9541    6.7578   -0.7494 C.ar    1  LIG1       -0.0429
     24 C          -1.7195    7.9484   -0.5132 C.ar    1  LIG1       -0.0346
     25 C          -2.8503    7.6838    0.2113 C.ar    1  LIG1        0.0294
     26 S          -2.9815    6.0043    0.6197 S.2     1  LIG1       -0.0869
     27 H          -0.0356    6.7390   -1.3204 H       1  LIG1        0.0632
     28 C          -1.2977    9.3150   -1.0041 C.3     1  LIG1       -0.0386
     29 H          -1.7964   10.0928   -0.4273 H       1  LIG1        0.0278
     30 H          -1.5546    9.4408   -2.0580 H       1  LIG1        0.0278
     31 H          -0.2182    9.4266   -0.8992 H       1  LIG1        0.0278
     32 C          -3.8858    8.6387    0.6293 C.ar    1  LIG1        0.0264
     33 C          -4.5104    9.5764   -0.1400 C.ar    1  LIG1       -0.0435
     34 C          -5.4677   10.3654    0.5866 C.ar    1  LIG1       -0.0428
     35 C          -5.5375    9.9850    1.8908 C.ar    1  LIG1       -0.0208
     36 S          -4.4556    8.6971    2.2649 S.2     1  LIG1       -0.0959
     37 H          -6.1735   10.3964    2.6590 H       1  LIG1        0.0696
     38 H          -4.3158    9.6875   -1.1983 H       1  LIG1        0.0632
     39 C          -6.2923   11.4666   -0.0420 C.3     1  LIG1       -0.0392
     40 H          -6.9636   11.9077    0.6935 H       1  LIG1        0.0278
     41 H          -6.8876   11.0689   -0.8654 H       1  LIG1        0.0278
     42 H          -5.6414   12.2488   -0.4349 H       1  LIG1        0.0278
@<TRIPOS>BOND
     1     6     1    1
     2     5     1   ar
     3     5     4   ar
     4    30    28    1
     5     1     2   ar
     6    27    23    1
     7    38    33    1
     8    28    31    1
     9    28    24    1
    10    28    29    1
    11    41    39    1
    12     4    12    1
    13     4     3   ar
    14    23    24   ar
    15    23    22   ar
    16    16    12   ar
    17    16    15   ar
    18     2     7    1
    19     2     3   ar
    20    24    25   ar
    21    12    13   ar
    22    42    39    1
    23    15    22    1
    24    15    14   ar
    25    20    18    1
    26    22    26   ar
    27    33    34   ar
    28    33    32   ar
    29    13    14   ar
    30    13    17    1
    31    39    34    1
    32    39    40    1
    33     3     8    1
    34    14    18    1
    35    25    26   ar
    36    25    32    1
    37    34    35   ar
    38    18    19    1
    39    18    21    1
    40    32    36   ar
    41    10     8    1
    42     8     9    1
    43     8    11    1
    44    35    36   ar
    45    35    37    1
