@<TRIPOS>MOLECULE
mol_data/opt/m06hf/geoms/mol2/5ai5ai-5ai-5ai.out
 42 45 0 0 0
SMALL
GASTEIGER

@<TRIPOS>ATOM
      1 C          -1.4011   -1.8159   -1.7452 C.ar    1  LIG1       -0.0235
      2 C          -0.8105   -1.9277   -0.5276 C.ar    1  LIG1       -0.0512
      3 C          -0.4833   -0.6573    0.0625 C.ar    1  LIG1       -0.0352
      4 C          -0.8397    0.3818   -0.7530 C.ar    1  LIG1        0.0288
      5 S          -1.5686   -0.1747   -2.2259 S.2     1  LIG1       -0.0959
      6 H          -1.7489   -2.6077   -2.3886 H       1  LIG1        0.0693
      7 H          -0.6154   -2.8727   -0.0404 H       1  LIG1        0.0626
      8 C           0.1498   -0.5169    1.4284 C.3     1  LIG1       -0.0386
      9 H          -0.0349    0.4783    1.8312 H       1  LIG1        0.0278
     10 H           1.2286   -0.6767    1.3701 H       1  LIG1        0.0278
     11 H          -0.2695   -1.2601    2.1072 H       1  LIG1        0.0278
     12 C          -0.6605    1.8184   -0.5025 C.ar    1  LIG1        0.0270
     13 C           0.4661    2.4509   -0.0640 C.ar    1  LIG1       -0.0429
     14 C           0.3016    3.8663    0.1077 C.ar    1  LIG1       -0.0346
     15 C          -0.9621    4.2694   -0.2283 C.ar    1  LIG1        0.0294
     16 S          -1.9549    2.9421   -0.7338 S.2     1  LIG1       -0.0869
     17 H           1.3951    1.9290    0.1217 H       1  LIG1        0.0632
     18 C           1.4009    4.7741    0.6113 C.3     1  LIG1       -0.0386
     19 H           0.9795    5.7124    0.9699 H       1  LIG1        0.0278
     20 H           2.1142    4.9905   -0.1866 H       1  LIG1        0.0278
     21 H           1.9368    4.2880    1.4269 H       1  LIG1        0.0278
     22 C          -1.5002    5.6367   -0.2003 C.ar    1  LIG1        0.0270
     23 C          -0.9484    6.7585   -0.7475 C.ar    1  LIG1       -0.0429
     24 C          -1.7156    7.9489   -0.5161 C.ar    1  LIG1       -0.0346
     25 C          -2.8518    7.6836    0.1996 C.ar    1  LIG1        0.0294
     26 S          -2.9860    6.0039    0.6055 S.2     1  LIG1       -0.0869
     27 H          -0.0256    6.7402   -1.3116 H       1  LIG1        0.0632
     28 C          -1.2901    9.3159   -1.0027 C.3     1  LIG1       -0.0386
     29 H          -1.7932   10.0932   -0.4291 H       1  LIG1        0.0278
     30 H          -1.5390    9.4425   -2.0585 H       1  LIG1        0.0278
     31 H          -0.2115    9.4275   -0.8896 H       1  LIG1        0.0278
     32 C          -3.8905    8.6382    0.6106 C.ar    1  LIG1        0.0264
     33 C          -4.5093    9.5765   -0.1626 C.ar    1  LIG1       -0.0435
     34 C          -5.4720   10.3649    0.5575 C.ar    1  LIG1       -0.0428
     35 C          -5.5516    9.9833    1.8608 C.ar    1  LIG1       -0.0208
     36 S          -4.4727    8.6950    2.2418 S.2     1  LIG1       -0.0959
     37 H          -6.1935   10.3940    2.6246 H       1  LIG1        0.0696
     38 H          -4.3067    9.6886   -1.2192 H       1  LIG1        0.0632
     39 C          -6.2918   11.4667   -0.0763 C.3     1  LIG1       -0.0392
     40 H          -6.9690   11.9068    0.6545 H       1  LIG1        0.0278
     41 H          -6.8805   11.0699   -0.9048 H       1  LIG1        0.0278
     42 H          -5.6380   12.2495   -0.4630 H       1  LIG1        0.0278
@<TRIPOS>BOND
     1     6     1    1
     2     5     1   ar
     3     5     4   ar
     4    30    28    1
     5     1     2   ar
     6    27    23    1
     7    38    33    1
     8    28    31    1
     9    28    24    1
    10    28    29    1
    11    41    39    1
    12     4    12    1
    13     4     3   ar
    14    23    24   ar
    15    23    22   ar
    16    16    12   ar
    17    16    15   ar
    18     2     7    1
    19     2     3   ar
    20    24    25   ar
    21    12    13   ar
    22    42    39    1
    23    15    22    1
    24    15    14   ar
    25    22    26   ar
    26    20    18    1
    27    33    34   ar
    28    33    32   ar
    29    39    34    1
    30    39    40    1
    31    13    14   ar
    32    13    17    1
    33     3     8    1
    34    14    18    1
    35    25    26   ar
    36    25    32    1
    37    34    35   ar
    38    32    36   ar
    39    18    19    1
    40    18    21    1
    41    10     8    1
    42     8     9    1
    43     8    11    1
    44    35    36   ar
    45    35    37    1
