@<TRIPOS>MOLECULE
mol_data/opt/m06hf/geoms/mol2/5ai5ai5ai-.out
 32 34 0 0 0
SMALL
GASTEIGER

@<TRIPOS>ATOM
      1 C          -1.9142   -1.8487   -1.0589 C.ar    1  LIG1       -0.0235
      2 C          -0.8514   -1.9204   -0.2163 C.ar    1  LIG1       -0.0512
      3 C          -0.3412   -0.6300    0.1625 C.ar    1  LIG1       -0.0352
      4 C          -1.0468    0.3818   -0.4279 C.ar    1  LIG1        0.0288
      5 S          -2.3235   -0.2222   -1.4330 S.2     1  LIG1       -0.0959
      6 H          -2.4817   -2.6617   -1.4817 H       1  LIG1        0.0693
      7 H          -0.4355   -2.8495    0.1471 H       1  LIG1        0.0626
      8 C           0.8127   -0.4443    1.1214 C.3     1  LIG1       -0.0386
      9 H           0.8193    0.5723    1.5127 H       1  LIG1        0.0278
     10 H           1.7638   -0.6338    0.6196 H       1  LIG1        0.0278
     11 H           0.7184   -1.1453    1.9515 H       1  LIG1        0.0278
     12 C          -0.8216    1.8274   -0.2932 C.ar    1  LIG1        0.0270
     13 C           0.3575    2.5015   -0.4204 C.ar    1  LIG1       -0.0429
     14 C           0.2410    3.9152   -0.2010 C.ar    1  LIG1       -0.0346
     15 C          -1.0502    4.2772    0.0727 C.ar    1  LIG1        0.0294
     16 S          -2.1185    2.9112    0.0817 S.2     1  LIG1       -0.0869
     17 H           1.2871    2.0103   -0.6749 H       1  LIG1        0.0632
     18 C           1.4184    4.8621   -0.2562 C.3     1  LIG1       -0.0386
     19 H           1.1934    5.7750    0.2943 H       1  LIG1        0.0278
     20 H           1.6531    5.1251   -1.2897 H       1  LIG1        0.0278
     21 H           2.2956    4.3861    0.1826 H       1  LIG1        0.0278
     22 C          -1.5658    5.6272    0.3381 C.ar    1  LIG1        0.0264
     23 C          -1.3172    6.7692   -0.3657 C.ar    1  LIG1       -0.0435
     24 C          -1.9768    7.9269    0.1752 C.ar    1  LIG1       -0.0428
     25 C          -2.7155    7.6103    1.2729 C.ar    1  LIG1       -0.0208
     26 S          -2.6152    5.9401    1.6806 S.2     1  LIG1       -0.0959
     27 H          -3.3167    8.2776    1.8706 H       1  LIG1        0.0696
     28 H          -0.7073    6.7855   -1.2589 H       1  LIG1        0.0632
     29 C          -1.8646    9.3101   -0.4259 C.3     1  LIG1       -0.0392
     30 H          -2.4382   10.0277    0.1591 H       1  LIG1        0.0278
     31 H          -2.2444    9.3098   -1.4487 H       1  LIG1        0.0278
     32 H          -0.8220    9.6306   -0.4468 H       1  LIG1        0.0278
@<TRIPOS>BOND
     1     6     1    1
     2    31    29    1
     3     5     1   ar
     4     5     4   ar
     5    20    18    1
     6    28    23    1
     7     1     2   ar
     8    17    13    1
     9    32    29    1
    10     4    12    1
    11     4     3   ar
    12    29    30    1
    13    29    24    1
    14    13    12   ar
    15    13    14   ar
    16    23    24   ar
    17    23    22   ar
    18    12    16   ar
    19    18    14    1
    20    18    21    1
    21    18    19    1
    22     2     7    1
    23     2     3   ar
    24    14    15   ar
    25    15    16   ar
    26    15    22    1
    27     3     8    1
    28    24    25   ar
    29    22    26   ar
    30    10     8    1
    31     8     9    1
    32     8    11    1
    33    25    26   ar
    34    25    27    1
