@<TRIPOS>MOLECULE
mol_data/opt/m06hf/geoms/mol2/5ai5ai5ai5ai.out
 42 45 0 0 0
SMALL
GASTEIGER

@<TRIPOS>ATOM
      1 C          -1.4001   -1.8227   -1.7334 C.ar    1  LIG1       -0.0235
      2 C          -0.8103   -1.9297   -0.5150 C.ar    1  LIG1       -0.0512
      3 C          -0.4834   -0.6570    0.0703 C.ar    1  LIG1       -0.0352
      4 C          -0.8394    0.3788   -0.7493 C.ar    1  LIG1        0.0288
      5 S          -1.5674   -0.1834   -2.2205 S.2     1  LIG1       -0.0959
      6 H          -1.7474   -2.6170   -2.3739 H       1  LIG1        0.0693
      7 H          -0.6154   -2.8729   -0.0240 H       1  LIG1        0.0626
      8 C           0.1489   -0.5114    1.4361 C.3     1  LIG1       -0.0386
      9 H          -0.0358    0.4855    1.8348 H       1  LIG1        0.0278
     10 H           1.2276   -0.6716    1.3791 H       1  LIG1        0.0278
     11 H          -0.2710   -1.2518    2.1176 H       1  LIG1        0.0278
     12 C          -0.6603    1.8164   -0.5044 C.ar    1  LIG1        0.0270
     13 C           0.4662    2.4505   -0.0678 C.ar    1  LIG1       -0.0429
     14 C           0.3016    3.8666    0.0983 C.ar    1  LIG1       -0.0346
     15 C          -0.9620    4.2684   -0.2398 C.ar    1  LIG1        0.0294
     16 S          -1.9546    2.9392   -0.7406 S.2     1  LIG1       -0.0869
     17 H           1.3950    1.9294    0.1202 H       1  LIG1        0.0632
     18 C           1.4007    4.7764    0.5989 C.3     1  LIG1       -0.0386
     19 H           0.9792    5.7161    0.9537 H       1  LIG1        0.0278
     20 H           2.1143    4.9896   -0.1995 H       1  LIG1        0.0278
     21 H           1.9362    4.2934    1.4167 H       1  LIG1        0.0278
     22 C          -1.5000    5.6359   -0.2174 C.ar    1  LIG1        0.0270
     23 C          -0.9478    6.7556   -0.7685 C.ar    1  LIG1       -0.0429
     24 C          -1.7151    7.9469   -0.5421 C.ar    1  LIG1       -0.0346
     25 C          -2.8518    7.6844    0.1739 C.ar    1  LIG1        0.0294
     26 S          -2.9863    6.0062    0.5862 S.2     1  LIG1       -0.0869
     27 H          -0.0246    6.7351   -1.3319 H       1  LIG1        0.0632
     28 C          -1.2892    9.3120   -1.0336 C.3     1  LIG1       -0.0386
     29 H          -1.7926   10.0915   -0.4631 H       1  LIG1        0.0278
     30 H          -1.5376    9.4347   -2.0900 H       1  LIG1        0.0278
     31 H          -0.2106    9.4239   -0.9204 H       1  LIG1        0.0278
     32 C          -3.8906    8.6405    0.5806 C.ar    1  LIG1        0.0264
     33 C          -4.5089    9.5759   -0.1965 C.ar    1  LIG1       -0.0435
     34 C          -5.4720   10.3671    0.5199 C.ar    1  LIG1       -0.0428
     35 C          -5.5525    9.9906    1.8246 C.ar    1  LIG1       -0.0208
     36 S          -4.4738    8.7037    2.2113 S.2     1  LIG1       -0.0959
     37 H          -6.1948   10.4043    2.5864 H       1  LIG1        0.0696
     38 H          -4.3057    9.6839   -1.2535 H       1  LIG1        0.0632
     39 C          -6.2914   11.4664   -0.1187 C.3     1  LIG1       -0.0392
     40 H          -6.9687   11.9097    0.6100 H       1  LIG1        0.0278
     41 H          -6.8800   11.0663   -0.9457 H       1  LIG1        0.0278
     42 H          -5.6373   12.2475   -0.5086 H       1  LIG1        0.0278
@<TRIPOS>BOND
     1     6     1    1
     2     5     1   ar
     3     5     4   ar
     4    30    28    1
     5     1     2   ar
     6    27    23    1
     7    38    33    1
     8    28    31    1
     9    28    24    1
    10    28    29    1
    11    41    39    1
    12    23    24   ar
    13    23    22   ar
    14     4    12    1
    15     4     3   ar
    16    16    12   ar
    17    16    15   ar
    18    24    25   ar
    19     2     7    1
    20     2     3   ar
    21    42    39    1
    22    12    13   ar
    23    15    22    1
    24    15    14   ar
    25    22    26   ar
    26    20    18    1
    27    33    34   ar
    28    33    32   ar
    29    39    34    1
    30    39    40    1
    31    13    14   ar
    32    13    17    1
    33     3     8    1
    34    14    18    1
    35    25    32    1
    36    25    26   ar
    37    34    35   ar
    38    32    36   ar
    39    18    19    1
    40    18    21    1
    41    10     8    1
    42     8     9    1
    43     8    11    1
    44    35    36   ar
    45    35    37    1
