@<TRIPOS>MOLECULE
mol_data/opt/m06hf/geoms/mol2/5ai5ai-.out
 22 23 0 0 0
SMALL
GASTEIGER

@<TRIPOS>ATOM
      1 C          -2.1031   -1.8041   -0.5294 C.ar    1  LIG1       -0.0235
      2 C          -0.7952   -1.8562   -0.1662 C.ar    1  LIG1       -0.0512
      3 C          -0.2315   -0.5617    0.1079 C.ar    1  LIG1       -0.0352
      4 C          -1.1504    0.4352   -0.0719 C.ar    1  LIG1        0.0288
      5 S          -2.6906   -0.1898   -0.5660 S.2     1  LIG1       -0.0959
      6 H          -2.7563   -2.6250   -0.7771 H       1  LIG1        0.0693
      7 H          -0.2336   -2.7755   -0.0764 H       1  LIG1        0.0626
      8 C           1.1944   -0.3601    0.5698 C.3     1  LIG1       -0.0386
      9 H           1.3015    0.6123    1.0490 H       1  LIG1        0.0278
     10 H           1.8847   -0.4136   -0.2748 H       1  LIG1        0.0278
     11 H           1.4640   -1.1410    1.2815 H       1  LIG1        0.0278
     12 C          -0.9497    1.8810    0.0962 C.ar    1  LIG1        0.0264
     13 C           0.0781    2.6394   -0.3818 C.ar    1  LIG1       -0.0435
     14 C          -0.0216    4.0282   -0.0231 C.ar    1  LIG1       -0.0428
     15 C          -1.1397    4.2717    0.7129 C.ar    1  LIG1       -0.0208
     16 S          -2.0676    2.8500    0.9986 S.2     1  LIG1       -0.0959
     17 H          -1.4685    5.2208    1.1067 H       1  LIG1        0.0696
     18 H           0.8715    2.2299   -0.9922 H       1  LIG1        0.0632
     19 C           0.9923    5.0723   -0.4342 C.3     1  LIG1       -0.0392
     20 H           0.7014    6.0539   -0.0629 H       1  LIG1        0.0278
     21 H           1.0690    5.1177   -1.5216 H       1  LIG1        0.0278
     22 H           1.9753    4.8237   -0.0313 H       1  LIG1        0.0278
@<TRIPOS>BOND
     1    21    19    1
     2    18    13    1
     3     6     1    1
     4     5     1   ar
     5     5     4   ar
     6     1     2   ar
     7    19    20    1
     8    19    22    1
     9    19    14    1
    10    13    14   ar
    11    13    12   ar
    12    10     8    1
    13     2     7    1
    14     2     3   ar
    15     4    12    1
    16     4     3   ar
    17    14    15   ar
    18    12    16   ar
    19     3     8    1
    20     8     9    1
    21     8    11    1
    22    15    16   ar
    23    15    17    1
