@<TRIPOS>MOLECULE
mol_data/opt/m06hf/geoms/mol2/5ai5ai5ai-5ai-.out
 42 45 0 0 0
SMALL
GASTEIGER

@<TRIPOS>ATOM
      1 C          -1.3852   -1.8228   -1.7391 C.ar    1  LIG1       -0.0235
      2 C          -0.8053   -1.9297   -0.5159 C.ar    1  LIG1       -0.0512
      3 C          -0.4836   -0.6569    0.0721 C.ar    1  LIG1       -0.0352
      4 C          -0.8329    0.3788   -0.7506 C.ar    1  LIG1        0.0288
      5 S          -1.5487   -0.1836   -2.2277 S.2     1  LIG1       -0.0959
      6 H          -1.7271   -2.6172   -2.3824 H       1  LIG1        0.0693
      7 H          -0.6142   -2.8728   -0.0233 H       1  LIG1        0.0626
      8 C           0.1374   -0.5111    1.4430 C.3     1  LIG1       -0.0386
      9 H          -0.0508    0.4857    1.8401 H       1  LIG1        0.0278
     10 H           1.2166   -0.6711    1.3949 H       1  LIG1        0.0278
     11 H          -0.2879   -1.2516    2.1210 H       1  LIG1        0.0278
     12 C          -0.6560    1.8165   -0.5042 C.ar    1  LIG1        0.0270
     13 C           0.4668    2.4507   -0.0584 C.ar    1  LIG1       -0.0429
     14 C           0.3007    3.8668    0.1063 C.ar    1  LIG1       -0.0346
     15 C          -0.9601    4.2685   -0.2420 C.ar    1  LIG1        0.0294
     16 S          -1.9484    2.9392   -0.7510 S.2     1  LIG1       -0.0869
     17 H           1.3941    1.9297    0.1372 H       1  LIG1        0.0632
     18 C           1.3956    4.7766    0.6159 C.3     1  LIG1       -0.0386
     19 H           0.9712    5.7162    0.9675 H       1  LIG1        0.0278
     20 H           2.1157    4.9901   -0.1767 H       1  LIG1        0.0278
     21 H           1.9246    4.2936    1.4379 H       1  LIG1        0.0278
     22 C          -1.4983    5.6359   -0.2241 C.ar    1  LIG1        0.0270
     23 C          -0.9416    6.7557   -0.7704 C.ar    1  LIG1       -0.0429
     24 C          -1.7108    7.9469   -0.5502 C.ar    1  LIG1       -0.0346
     25 C          -2.8535    7.6842    0.1561 C.ar    1  LIG1        0.0294
     26 S          -2.9914    6.0059    0.5669 S.2     1  LIG1       -0.0869
     27 H          -0.0137    6.7353   -1.3260 H       1  LIG1        0.0632
     28 C          -1.2808    9.3121   -1.0379 C.3     1  LIG1       -0.0386
     29 H          -1.7892   10.0915   -0.4718 H       1  LIG1        0.0278
     30 H          -1.5201    9.4349   -2.0964 H       1  LIG1        0.0278
     31 H          -0.2033    9.4241   -0.9153 H       1  LIG1        0.0278
     32 C          -3.8958    8.6403    0.5540 C.ar    1  LIG1        0.0264
     33 C          -4.5076    9.5756   -0.2283 C.ar    1  LIG1       -0.0435
     34 C          -5.4768   10.3668    0.4800 C.ar    1  LIG1       -0.0428
     35 C          -5.5682    9.9902    1.7839 C.ar    1  LIG1       -0.0208
     36 S          -4.4927    8.7034    2.1797 S.2     1  LIG1       -0.0959
     37 H          -6.2169   10.4039    2.5403 H       1  LIG1        0.0696
     38 H          -4.2955    9.6836   -1.2835 H       1  LIG1        0.0632
     39 C          -6.2908   11.4660   -0.1656 C.3     1  LIG1       -0.0392
     40 H          -6.9740   11.9096    0.5575 H       1  LIG1        0.0278
     41 H          -6.8726   11.0658   -0.9973 H       1  LIG1        0.0278
     42 H          -5.6334   12.2469   -0.5502 H       1  LIG1        0.0278
@<TRIPOS>BOND
     1     6     1    1
     2     5     1   ar
     3     5     4   ar
     4    30    28    1
     5     1     2   ar
     6    27    23    1
     7    38    33    1
     8    28    31    1
     9    28    24    1
    10    28    29    1
    11    41    39    1
    12    23    24   ar
    13    23    22   ar
    14    16    12   ar
    15    16    15   ar
    16     4    12    1
    17     4     3   ar
    18    24    25   ar
    19    42    39    1
    20     2     7    1
    21     2     3   ar
    22    12    13   ar
    23    15    22    1
    24    15    14   ar
    25    33    34   ar
    26    33    32   ar
    27    22    26   ar
    28    20    18    1
    29    39    34    1
    30    39    40    1
    31    13    14   ar
    32    13    17    1
    33     3     8    1
    34    14    18    1
    35    25    32    1
    36    25    26   ar
    37    34    35   ar
    38    32    36   ar
    39    18    19    1
    40    18    21    1
    41    10     8    1
    42     8     9    1
    43     8    11    1
    44    35    36   ar
    45    35    37    1
