@<TRIPOS>MOLECULE
mol_data/opt/m06hf/geoms/mol2/5ai5ai-5ai.out
 32 34 0 0 0
SMALL
GASTEIGER

@<TRIPOS>ATOM
      1 C          -1.9258   -1.8477   -1.0470 C.ar    1  LIG1       -0.0235
      2 C          -0.8540   -1.9202   -0.2160 C.ar    1  LIG1       -0.0512
      3 C          -0.3396   -0.6301    0.1584 C.ar    1  LIG1       -0.0352
      4 C          -1.0516    0.3821   -0.4235 C.ar    1  LIG1        0.0288
      5 S          -2.3391   -0.2209   -1.4152 S.2     1  LIG1       -0.0959
      6 H          -2.4978   -2.6604   -1.4644 H       1  LIG1        0.0693
      7 H          -0.4342   -2.8496    0.1421 H       1  LIG1        0.0626
      8 C           0.8246   -0.4454    1.1049 C.3     1  LIG1       -0.0386
      9 H           0.8355    0.5709    1.4970 H       1  LIG1        0.0278
     10 H           1.7702   -0.6344    0.5927 H       1  LIG1        0.0278
     11 H           0.7392   -1.1471    1.9354 H       1  LIG1        0.0278
     12 C          -0.8248    1.8277   -0.2899 C.ar    1  LIG1        0.0270
     13 C           0.3528    2.5019   -0.4292 C.ar    1  LIG1       -0.0429
     14 C           0.2387    3.9154   -0.2074 C.ar    1  LIG1       -0.0346
     15 C          -1.0494    4.2771    0.0806 C.ar    1  LIG1        0.0294
     16 S          -2.1176    2.9111    0.1000 S.2     1  LIG1       -0.0869
     17 H           1.2797    2.0109   -0.6942 H       1  LIG1        0.0632
     18 C           1.4155    4.8623   -0.2744 C.3     1  LIG1       -0.0386
     19 H           1.1966    5.7747    0.2793 H       1  LIG1        0.0278
     20 H           1.6391    5.1262   -1.3102 H       1  LIG1        0.0278
     21 H           2.2974    4.3858    0.1544 H       1  LIG1        0.0278
     22 C          -1.5621    5.6269    0.3528 C.ar    1  LIG1        0.0264
     23 C          -1.3210    6.7696   -0.3526 C.ar    1  LIG1       -0.0435
     24 C          -1.9746    7.9268    0.1964 C.ar    1  LIG1       -0.0428
     25 C          -2.7015    7.6092    1.3018 C.ar    1  LIG1       -0.0208
     26 S          -2.5969    5.9387    1.7068 S.2     1  LIG1       -0.0959
     27 H          -3.2962    8.2760    1.9065 H       1  LIG1        0.0696
     28 H          -0.7208    6.7866   -1.2523 H       1  LIG1        0.0632
     29 C          -1.8690    9.3106   -0.4047 C.3     1  LIG1       -0.0392
     30 H          -2.4362   10.0276    0.1872 H       1  LIG1        0.0278
     31 H          -2.2597    9.3111   -1.4232 H       1  LIG1        0.0278
     32 H          -0.8266    9.6310   -0.4366 H       1  LIG1        0.0278
@<TRIPOS>BOND
     1     6     1    1
     2    31    29    1
     3     5     1   ar
     4     5     4   ar
     5    20    18    1
     6    28    23    1
     7     1     2   ar
     8    17    13    1
     9    32    29    1
    10    13    12   ar
    11    13    14   ar
    12     4    12    1
    13     4     3   ar
    14    29    30    1
    15    29    24    1
    16    23    24   ar
    17    23    22   ar
    18    12    16   ar
    19    18    14    1
    20    18    21    1
    21    18    19    1
    22     2     7    1
    23     2     3   ar
    24    14    15   ar
    25    15    16   ar
    26    15    22    1
    27     3     8    1
    28    24    25   ar
    29    22    26   ar
    30    10     8    1
    31     8     9    1
    32     8    11    1
    33    25    26   ar
    34    25    27    1
