@<TRIPOS>MOLECULE
mol_data/opt/m06hf/geoms/mol2/5ai5ai5ai-5ai.out
 42 45 0 0 0
SMALL
GASTEIGER

@<TRIPOS>ATOM
      1 C          -1.3867   -1.8212   -1.7424 C.ar    1  LIG1       -0.0235
      2 C          -0.8060   -1.9292   -0.5197 C.ar    1  LIG1       -0.0512
      3 C          -0.4838   -0.6571    0.0692 C.ar    1  LIG1       -0.0352
      4 C          -0.8336    0.3795   -0.7523 C.ar    1  LIG1        0.0288
      5 S          -1.5504   -0.1815   -2.2294 S.2     1  LIG1       -0.0959
      6 H          -1.7291   -2.6150   -2.3862 H       1  LIG1        0.0693
      7 H          -0.6147   -2.8728   -0.0281 H       1  LIG1        0.0626
      8 C           0.1381   -0.5125    1.4399 C.3     1  LIG1       -0.0386
      9 H          -0.0496    0.4840    1.8379 H       1  LIG1        0.0278
     10 H           1.2173   -0.6727    1.3909 H       1  LIG1        0.0278
     11 H          -0.2868   -1.2535    2.1175 H       1  LIG1        0.0278
     12 C          -0.6565    1.8169   -0.5047 C.ar    1  LIG1        0.0270
     13 C           0.4667    2.4507   -0.0592 C.ar    1  LIG1       -0.0429
     14 C           0.3008    3.8666    0.1069 C.ar    1  LIG1       -0.0346
     15 C          -0.9603    4.2686   -0.2401 C.ar    1  LIG1        0.0294
     16 S          -1.9490    2.9399   -0.7496 S.2     1  LIG1       -0.0869
     17 H           1.3941    1.9294    0.1353 H       1  LIG1        0.0632
     18 C           1.3961    4.7759    0.6165 C.3     1  LIG1       -0.0386
     19 H           0.9719    5.7152    0.9693 H       1  LIG1        0.0278
     20 H           2.1155    4.9902   -0.1765 H       1  LIG1        0.0278
     21 H           1.9257    4.2921    1.4376 H       1  LIG1        0.0278
     22 C          -1.4984    5.6361   -0.2205 C.ar    1  LIG1        0.0270
     23 C          -0.9421    6.7563   -0.7663 C.ar    1  LIG1       -0.0429
     24 C          -1.7111    7.9474   -0.5446 C.ar    1  LIG1       -0.0346
     25 C          -2.8533    7.6841    0.1624 C.ar    1  LIG1        0.0294
     26 S          -2.9909    6.0055    0.5719 S.2     1  LIG1       -0.0869
     27 H          -0.0146    6.7365   -1.3226 H       1  LIG1        0.0632
     28 C          -1.2815    9.3130   -1.0313 C.3     1  LIG1       -0.0386
     29 H          -1.7894   10.0919   -0.4641 H       1  LIG1        0.0278
     30 H          -1.5216    9.4367   -2.0895 H       1  LIG1        0.0278
     31 H          -0.2038    9.4249   -0.9095 H       1  LIG1        0.0278
     32 C          -3.8953    8.6398    0.5620 C.ar    1  LIG1        0.0264
     33 C          -4.5077    9.5759   -0.2191 C.ar    1  LIG1       -0.0435
     34 C          -5.4763   10.3664    0.4907 C.ar    1  LIG1       -0.0428
     35 C          -5.5666    9.9887    1.7944 C.ar    1  LIG1       -0.0208
     36 S          -4.4908    8.7016    2.1882 S.2     1  LIG1       -0.0959
     37 H          -6.2147   10.4018    2.5517 H       1  LIG1        0.0696
     38 H          -4.2965    9.6847   -1.2744 H       1  LIG1        0.0632
     39 C          -6.2908   11.4662   -0.1532 C.3     1  LIG1       -0.0392
     40 H          -6.9736   11.9090    0.5708 H       1  LIG1        0.0278
     41 H          -6.8732   11.0668   -0.9849 H       1  LIG1        0.0278
     42 H          -5.6338   12.2476   -0.5375 H       1  LIG1        0.0278
@<TRIPOS>BOND
     1     6     1    1
     2     5     1   ar
     3     5     4   ar
     4    30    28    1
     5     1     2   ar
     6    27    23    1
     7    38    33    1
     8    28    31    1
     9    28    24    1
    10    28    29    1
    11    41    39    1
    12    23    24   ar
    13    23    22   ar
    14     4    12    1
    15     4     3   ar
    16    16    12   ar
    17    16    15   ar
    18    24    25   ar
    19    42    39    1
    20     2     7    1
    21     2     3   ar
    22    12    13   ar
    23    15    22    1
    24    15    14   ar
    25    22    26   ar
    26    33    34   ar
    27    33    32   ar
    28    20    18    1
    29    39    34    1
    30    39    40    1
    31    13    14   ar
    32    13    17    1
    33     3     8    1
    34    14    18    1
    35    25    32    1
    36    25    26   ar
    37    34    35   ar
    38    32    36   ar
    39    18    19    1
    40    18    21    1
    41    10     8    1
    42     8     9    1
    43     8    11    1
    44    35    36   ar
    45    35    37    1
