@<TRIPOS>MOLECULE
mol_data/opt/m06hf/geoms/mol2/5ai5ai-5ai-5ai-.out
 42 45 0 0 0
SMALL
GASTEIGER

@<TRIPOS>ATOM
      1 C          -1.3995   -1.8176   -1.7418 C.ar    1  LIG1       -0.0235
      2 C          -0.8097   -1.9281   -0.5237 C.ar    1  LIG1       -0.0512
      3 C          -0.4832   -0.6572    0.0655 C.ar    1  LIG1       -0.0352
      4 C          -0.8391    0.3811   -0.7512 C.ar    1  LIG1        0.0288
      5 S          -1.5669   -0.1769   -2.2242 S.2     1  LIG1       -0.0959
      6 H          -1.7467   -2.6101   -2.3847 H       1  LIG1        0.0693
      7 H          -0.6148   -2.8727   -0.0355 H       1  LIG1        0.0626
      8 C           0.1489   -0.5154    1.4317 C.3     1  LIG1       -0.0386
      9 H          -0.0359    0.4803    1.8333 H       1  LIG1        0.0278
     10 H           1.2277   -0.6754    1.3744 H       1  LIG1        0.0278
     11 H          -0.2710   -1.2578    2.1110 H       1  LIG1        0.0278
     12 C          -0.6602    1.8180   -0.5021 C.ar    1  LIG1        0.0270
     13 C           0.4662    2.4509   -0.0636 C.ar    1  LIG1       -0.0429
     14 C           0.3016    3.8665    0.1067 C.ar    1  LIG1       -0.0346
     15 C          -0.9621    4.2692   -0.2302 C.ar    1  LIG1        0.0294
     16 S          -1.9546    2.9414   -0.7350 S.2     1  LIG1       -0.0869
     17 H           1.3951    1.9292    0.1230 H       1  LIG1        0.0632
     18 C           1.4005    4.7747    0.6100 C.3     1  LIG1       -0.0386
     19 H           0.9790    5.7133    0.9679 H       1  LIG1        0.0278
     20 H           2.1141    4.9907   -0.1878 H       1  LIG1        0.0278
     21 H           1.9362    4.2893    1.4262 H       1  LIG1        0.0278
     22 C          -1.5001    5.6365   -0.2038 C.ar    1  LIG1        0.0270
     23 C          -0.9479    6.7579   -0.7514 C.ar    1  LIG1       -0.0429
     24 C          -1.7152    7.9485   -0.5215 C.ar    1  LIG1       -0.0346
     25 C          -2.8521    7.6837    0.1934 C.ar    1  LIG1        0.0294
     26 S          -2.9867    6.0043    0.6004 S.2     1  LIG1       -0.0869
     27 H          -0.0245    6.7392   -1.3146 H       1  LIG1        0.0632
     28 C          -1.2892    9.3151   -1.0086 C.3     1  LIG1       -0.0386
     29 H          -1.7929   10.0929   -0.4360 H       1  LIG1        0.0278
     30 H          -1.5371    9.4410   -2.0647 H       1  LIG1        0.0278
     31 H          -0.2107    9.4267   -0.8945 H       1  LIG1        0.0278
     32 C          -3.8911    8.6386    0.6027 C.ar    1  LIG1        0.0264
     33 C          -4.5093    9.5762   -0.1719 C.ar    1  LIG1       -0.0435
     34 C          -5.4726   10.3653    0.5467 C.ar    1  LIG1       -0.0428
     35 C          -5.5533    9.9849    1.8502 C.ar    1  LIG1       -0.0208
     36 S          -4.4746    8.6970    2.2334 S.2     1  LIG1       -0.0959
     37 H          -6.1958   10.3963    2.6131 H       1  LIG1        0.0696
     38 H          -4.3058    9.6873   -1.2285 H       1  LIG1        0.0632
     39 C          -6.2919   11.4664   -0.0889 C.3     1  LIG1       -0.0392
     40 H          -6.9692   11.9077    0.6410 H       1  LIG1        0.0278
     41 H          -6.8804   11.0687   -0.9170 H       1  LIG1        0.0278
     42 H          -5.6377   12.2486   -0.4765 H       1  LIG1        0.0278
@<TRIPOS>BOND
     1     6     1    1
     2     5     1   ar
     3     5     4   ar
     4    30    28    1
     5     1     2   ar
     6    27    23    1
     7    38    33    1
     8    28    31    1
     9    28    24    1
    10    28    29    1
    11    41    39    1
    12    23    24   ar
    13    23    22   ar
    14     4    12    1
    15     4     3   ar
    16    16    12   ar
    17    16    15   ar
    18     2     7    1
    19     2     3   ar
    20    24    25   ar
    21    12    13   ar
    22    42    39    1
    23    15    22    1
    24    15    14   ar
    25    22    26   ar
    26    20    18    1
    27    33    34   ar
    28    33    32   ar
    29    39    34    1
    30    39    40    1
    31    13    14   ar
    32    13    17    1
    33     3     8    1
    34    14    18    1
    35    25    26   ar
    36    25    32    1
    37    34    35   ar
    38    32    36   ar
    39    18    19    1
    40    18    21    1
    41    10     8    1
    42     8     9    1
    43     8    11    1
    44    35    36   ar
    45    35    37    1
