@<TRIPOS>MOLECULE
mol_data/opt/m06hf/geoms/mol2/5ai5ai5ai5ai-.out
 42 45 0 0 0
SMALL
GASTEIGER

@<TRIPOS>ATOM
      1 C          -1.3986   -1.8243   -1.7300 C.ar    1  LIG1       -0.0235
      2 C          -0.8096   -1.9301   -0.5111 C.ar    1  LIG1       -0.0512
      3 C          -0.4834   -0.6569    0.0733 C.ar    1  LIG1       -0.0352
      4 C          -0.8387    0.3782   -0.7476 C.ar    1  LIG1        0.0288
      5 S          -1.5657   -0.1855   -2.2188 S.2     1  LIG1       -0.0959
      6 H          -1.7455   -2.6192   -2.3700 H       1  LIG1        0.0693
      7 H          -0.6150   -2.8728   -0.0191 H       1  LIG1        0.0626
      8 C           0.1480   -0.5099    1.4394 C.3     1  LIG1       -0.0386
      9 H          -0.0371    0.4874    1.8369 H       1  LIG1        0.0278
     10 H           1.2267   -0.6702    1.3833 H       1  LIG1        0.0278
     11 H          -0.2724   -1.2496    2.1212 H       1  LIG1        0.0278
     12 C          -0.6599    1.8160   -0.5039 C.ar    1  LIG1        0.0270
     13 C           0.4663    2.4506   -0.0672 C.ar    1  LIG1       -0.0429
     14 C           0.3016    3.8668    0.0974 C.ar    1  LIG1       -0.0346
     15 C          -0.9618    4.2683   -0.2417 C.ar    1  LIG1        0.0294
     16 S          -1.9541    2.9386   -0.7419 S.2     1  LIG1       -0.0869
     17 H           1.3951    1.9296    0.1218 H       1  LIG1        0.0632
     18 C           1.4004    4.7770    0.5978 C.3     1  LIG1       -0.0386
     19 H           0.9787    5.7169    0.9520 H       1  LIG1        0.0278
     20 H           2.1142    4.9900   -0.2005 H       1  LIG1        0.0278
     21 H           1.9358    4.2946    1.4160 H       1  LIG1        0.0278
     22 C          -1.4998    5.6357   -0.2208 C.ar    1  LIG1        0.0270
     23 C          -0.9472    6.7550   -0.7724 C.ar    1  LIG1       -0.0429
     24 C          -1.7146    7.9464   -0.5475 C.ar    1  LIG1       -0.0346
     25 C          -2.8520    7.6845    0.1676 C.ar    1  LIG1        0.0294
     26 S          -2.9868    6.0066    0.5811 S.2     1  LIG1       -0.0869
     27 H          -0.0236    6.7341   -1.3350 H       1  LIG1        0.0632
     28 C          -1.2884    9.3111   -1.0397 C.3     1  LIG1       -0.0386
     29 H          -1.7924   10.0911   -0.4705 H       1  LIG1        0.0278
     30 H          -1.5357    9.4329   -2.0965 H       1  LIG1        0.0278
     31 H          -0.2099    9.4233   -0.9254 H       1  LIG1        0.0278
     32 C          -3.8912    8.6410    0.5727 C.ar    1  LIG1        0.0264
     33 C          -4.5090    9.5755   -0.2059 C.ar    1  LIG1       -0.0435
     34 C          -5.4726   10.3674    0.5091 C.ar    1  LIG1       -0.0428
     35 C          -5.5539    9.9922    1.8141 C.ar    1  LIG1       -0.0208
     36 S          -4.4754    8.7058    2.2029 S.2     1  LIG1       -0.0959
     37 H          -6.1967   10.4067    2.5751 H       1  LIG1        0.0696
     38 H          -4.3051    9.6824   -1.2628 H       1  LIG1        0.0632
     39 C          -6.2916   11.4660   -0.1312 C.3     1  LIG1       -0.0392
     40 H          -6.9694   11.9101    0.5966 H       1  LIG1        0.0278
     41 H          -6.8797   11.0651   -0.9581 H       1  LIG1        0.0278
     42 H          -5.6373   12.2467   -0.5214 H       1  LIG1        0.0278
@<TRIPOS>BOND
     1     6     1    1
     2     5     1   ar
     3     5     4   ar
     4    30    28    1
     5     1     2   ar
     6    27    23    1
     7    38    33    1
     8    28    31    1
     9    28    24    1
    10    28    29    1
    11    41    39    1
    12    23    24   ar
    13    23    22   ar
    14     4    12    1
    15     4     3   ar
    16    16    12   ar
    17    16    15   ar
    18    24    25   ar
    19    42    39    1
    20     2     7    1
    21     2     3   ar
    22    12    13   ar
    23    15    22    1
    24    15    14   ar
    25    22    26   ar
    26    33    34   ar
    27    33    32   ar
    28    20    18    1
    29    39    34    1
    30    39    40    1
    31    13    14   ar
    32    13    17    1
    33     3     8    1
    34    14    18    1
    35    25    32    1
    36    25    26   ar
    37    34    35   ar
    38    32    36   ar
    39    18    19    1
    40    18    21    1
    41    10     8    1
    42     8     9    1
    43     8    11    1
    44    35    36   ar
    45    35    37    1
