@<TRIPOS>MOLECULE
mol_data/opt/m06hf/geoms/mol2/5ai5ai-5ai5ai-.out
 42 45 0 0 0
SMALL
GASTEIGER

@<TRIPOS>ATOM
      1 C          -1.4129   -1.8192   -1.7326 C.ar    1  LIG1       -0.0235
      2 C          -0.8138   -1.9286   -0.5189 C.ar    1  LIG1       -0.0512
      3 C          -0.4828   -0.6571    0.0666 C.ar    1  LIG1       -0.0352
      4 C          -0.8450    0.3804   -0.7483 C.ar    1  LIG1        0.0288
      5 S          -1.5840   -0.1790   -2.2151 S.2     1  LIG1       -0.0959
      6 H          -1.7649   -2.6123   -2.3721 H       1  LIG1        0.0693
      7 H          -0.6151   -2.8728   -0.0313 H       1  LIG1        0.0626
      8 C           0.1597   -0.5142    1.4279 C.3     1  LIG1       -0.0386
      9 H          -0.0221    0.4819    1.8299 H       1  LIG1        0.0278
     10 H           1.2380   -0.6741    1.3624 H       1  LIG1        0.0278
     11 H          -0.2549   -1.2560    2.1109 H       1  LIG1        0.0278
     12 C          -0.6641    1.8175   -0.5018 C.ar    1  LIG1        0.0270
     13 C           0.4656    2.4508   -0.0725 C.ar    1  LIG1       -0.0429
     14 C           0.3022    3.8665    0.0977 C.ar    1  LIG1       -0.0346
     15 C          -0.9639    4.2689   -0.2298 C.ar    1  LIG1        0.0294
     16 S          -1.9602    2.9407   -0.7259 S.2     1  LIG1       -0.0869
     17 H           1.3958    1.9293    0.1074 H       1  LIG1        0.0632
     18 C           1.4050    4.7752    0.5919 C.3     1  LIG1       -0.0386
     19 H           0.9863    5.7141    0.9520 H       1  LIG1        0.0278
     20 H           2.1125    4.9904   -0.2115 H       1  LIG1        0.0278
     21 H           1.9469    4.2905    1.4044 H       1  LIG1        0.0278
     22 C          -1.5017    5.6363   -0.2006 C.ar    1  LIG1        0.0270
     23 C          -0.9537    6.7572   -0.7533 C.ar    1  LIG1       -0.0429
     24 C          -1.7192    7.9480   -0.5186 C.ar    1  LIG1       -0.0346
     25 C          -2.8507    7.6839    0.2051 C.ar    1  LIG1        0.0294
     26 S          -2.9821    6.0048    0.6146 S.2     1  LIG1       -0.0869
     27 H          -0.0346    6.7380   -1.3235 H       1  LIG1        0.0632
     28 C          -1.2969    9.3141   -1.0102 C.3     1  LIG1       -0.0386
     29 H          -1.7962   10.0925   -0.4345 H       1  LIG1        0.0278
     30 H          -1.5528    9.4391   -2.0645 H       1  LIG1        0.0278
     31 H          -0.2175    9.4259   -0.9044 H       1  LIG1        0.0278
     32 C          -3.8865    8.6391    0.6214 C.ar    1  LIG1        0.0264
     33 C          -4.5105    9.5761   -0.1493 C.ar    1  LIG1       -0.0435
     34 C          -5.4683   10.3658    0.5758 C.ar    1  LIG1       -0.0428
     35 C          -5.5392    9.9866    1.8803 C.ar    1  LIG1       -0.0208
     36 S          -4.4577    8.6990    2.2564 S.2     1  LIG1       -0.0959
     37 H          -6.1759   10.3987    2.6477 H       1  LIG1        0.0696
     38 H          -4.3151    9.6862   -1.2075 H       1  LIG1        0.0632
     39 C          -6.2924   11.4664   -0.0545 C.3     1  LIG1       -0.0392
     40 H          -6.9641   11.9084    0.6801 H       1  LIG1        0.0278
     41 H          -6.8872   11.0680   -0.8778 H       1  LIG1        0.0278
     42 H          -5.6411   12.2482   -0.4478 H       1  LIG1        0.0278
@<TRIPOS>BOND
     1     6     1    1
     2     5     1   ar
     3     5     4   ar
     4    30    28    1
     5     1     2   ar
     6    27    23    1
     7    38    33    1
     8    28    31    1
     9    28    24    1
    10    28    29    1
    11    41    39    1
    12    23    24   ar
    13    23    22   ar
    14     4    12    1
    15     4     3   ar
    16    16    12   ar
    17    16    15   ar
    18     2     7    1
    19     2     3   ar
    20    24    25   ar
    21    12    13   ar
    22    42    39    1
    23    15    22    1
    24    15    14   ar
    25    20    18    1
    26    22    26   ar
    27    33    34   ar
    28    33    32   ar
    29    13    14   ar
    30    13    17    1
    31    39    34    1
    32    39    40    1
    33     3     8    1
    34    14    18    1
    35    25    26   ar
    36    25    32    1
    37    34    35   ar
    38    18    19    1
    39    18    21    1
    40    32    36   ar
    41    10     8    1
    42     8     9    1
    43     8    11    1
    44    35    36   ar
    45    35    37    1
