@<TRIPOS>MOLECULE
mol_data/opt/m06hf/geoms/mol2/5al.out
 13 13 0 0 0
SMALL
GASTEIGER

@<TRIPOS>ATOM
      1 C          -2.1865   -1.7311    0.0001 C.ar    1  LIG1       -0.0208
      2 C          -0.8277   -1.7875   -0.0004 C.ar    1  LIG1       -0.0129
      3 C          -0.2412   -0.4706   -0.0002 C.ar    1  LIG1        0.1271
      4 C          -1.1738    0.5217    0.0004 C.ar    1  LIG1        0.0174
      5 S          -2.7696   -0.1180    0.0008 S.2     1  LIG1       -0.1013
      6 H          -2.8763   -2.5591    0.0001 H       1  LIG1        0.0694
      7 H          -0.9844    1.5813    0.0006 H       1  LIG1        0.0730
      8 H          -0.2714   -2.7121   -0.0009 H       1  LIG1        0.0659
      9 O           1.0880   -0.1882   -0.0006 O.3     1  LIG1       -0.4946
     10 C           1.9701   -1.2936   -0.0011 C.3     1  LIG1        0.0788
     11 H           2.9740   -0.8781   -0.0014 H       1  LIG1        0.0660
     12 H           1.8262   -1.9049    0.8937 H       1  LIG1        0.0660
     13 H           1.8257   -1.9045   -0.8962 H       1  LIG1        0.0660
@<TRIPOS>BOND
     1    13    10    1
     2    11    10    1
     3    10     9    1
     4    10    12    1
     5     8     2    1
     6     9     3    1
     7     2     3   ar
     8     2     1   ar
     9     3     4   ar
    10     6     1    1
    11     1     5   ar
    12     4     7    1
    13     4     5   ar
