@<TRIPOS>MOLECULE
mol_data/opt/m06hf/geoms/mol2/5al5al5al.out
 35 37 0 0 0
SMALL
GASTEIGER

@<TRIPOS>ATOM
      1 C          -2.1828   -2.0069    0.1431 C.ar    1  LIG1       -0.0202
      2 C          -0.8375   -2.0303   -0.0510 C.ar    1  LIG1       -0.0123
      3 C          -0.2778   -0.7068   -0.0544 C.ar    1  LIG1        0.1353
      4 C          -1.2144    0.2769    0.1353 C.ar    1  LIG1        0.0676
      5 S          -2.7879   -0.4141    0.3385 S.2     1  LIG1       -0.0924
      6 H          -2.8537   -2.8490    0.1916 H       1  LIG1        0.0695
      7 H          -0.2701   -2.9378   -0.1872 H       1  LIG1        0.0660
      8 O           1.0343   -0.4013   -0.2179 O.3     1  LIG1       -0.4939
      9 C           1.8757   -1.4359   -0.7004 C.3     1  LIG1        0.0788
     10 H           2.8410   -0.9742   -0.8885 H       1  LIG1        0.0660
     11 H           1.9853   -2.2237    0.0488 H       1  LIG1        0.0660
     12 H           1.4760   -1.8520   -1.6274 H       1  LIG1        0.0660
     13 C          -0.9807    1.7176    0.1630 C.ar    1  LIG1        0.0336
     14 C           0.2074    2.3600    0.3680 C.ar    1  LIG1       -0.0039
     15 C           0.0617    3.7857    0.3279 C.ar    1  LIG1        0.1359
     16 C          -1.2241    4.2012    0.1019 C.ar    1  LIG1        0.0682
     17 S          -2.2744    2.8379   -0.1028 S.2     1  LIG1       -0.0833
     18 H           1.1280    1.8267    0.5426 H       1  LIG1        0.0666
     19 O           1.0642    4.6853    0.4945 O.3     1  LIG1       -0.4939
     20 C           2.3297    4.1686    0.8686 C.3     1  LIG1        0.0788
     21 H           2.9757    5.0310    1.0083 H       1  LIG1        0.0660
     22 H           2.2534    3.6074    1.8025 H       1  LIG1        0.0660
     23 H           2.7323    3.5293    0.0797 H       1  LIG1        0.0660
     24 C          -1.7085    5.5763    0.0261 C.ar    1  LIG1        0.0330
     25 C          -0.9657    6.7077   -0.1721 C.ar    1  LIG1       -0.0045
     26 C          -1.7847    7.8894   -0.1924 C.ar    1  LIG1        0.1277
     27 C          -3.1081    7.6265   -0.0152 C.ar    1  LIG1        0.0180
     28 S          -3.3906    5.9438    0.1976 S.2     1  LIG1       -0.0923
     29 H          -3.9108    8.3432    0.0041 H       1  LIG1        0.0730
     30 H           0.1045    6.6761   -0.2998 H       1  LIG1        0.0666
     31 O          -1.3424    9.1613   -0.3734 O.3     1  LIG1       -0.4946
     32 C           0.0547    9.3333   -0.5136 C.3     1  LIG1        0.0788
     33 H           0.2146   10.4020   -0.6315 H       1  LIG1        0.0660
     34 H           0.5797    8.9772    0.3761 H       1  LIG1        0.0660
     35 H           0.4240    8.8072   -1.3974 H       1  LIG1        0.0660
@<TRIPOS>BOND
     1    12     9    1
     2    35    32    1
     3    10     9    1
     4     9     8    1
     5     9    11    1
     6    33    32    1
     7    32    31    1
     8    32    34    1
     9    31    26    1
    10    30    25    1
    11     8     3    1
    12    26    25   ar
    13    26    27   ar
    14     7     2    1
    15    25    24   ar
    16    17    16   ar
    17    17    13   ar
    18     3     2   ar
    19     3     4   ar
    20     2     1   ar
    21    27    29    1
    22    27    28   ar
    23    24    16    1
    24    24    28   ar
    25    23    20    1
    26    16    15   ar
    27     4    13    1
    28     4     5   ar
    29     1     6    1
    30     1     5   ar
    31    13    14   ar
    32    15    14   ar
    33    15    19    1
    34    14    18    1
    35    19    20    1
    36    20    21    1
    37    20    22    1
