@<TRIPOS>MOLECULE
mol_data/opt/m06hf/geoms/mol2/5al5al5al-5al-.out
 46 49 0 0 0
SMALL
GASTEIGER

@<TRIPOS>ATOM
      1 C          -2.1279   -2.0882    0.3487 C.ar    1  LIG1       -0.0202
      2 C          -0.8048   -2.1162    0.0363 C.ar    1  LIG1       -0.0123
      3 C          -0.2498   -0.7930   -0.0403 C.ar    1  LIG1        0.1353
      4 C          -1.1674    0.1941    0.2154 C.ar    1  LIG1        0.0676
      5 S          -2.7166   -0.4922    0.5667 S.2     1  LIG1       -0.0924
      6 H          -2.7914   -2.9282    0.4716 H       1  LIG1        0.0695
      7 H          -0.2514   -3.0266   -0.1342 H       1  LIG1        0.0660
      8 O           1.0389   -0.4878   -0.3320 O.3     1  LIG1       -0.4939
      9 C           1.9000   -1.5678   -0.6512 C.3     1  LIG1        0.0788
     10 H           2.8642   -1.1229   -0.8807 H       1  LIG1        0.0660
     11 H           1.9983   -2.2448    0.2006 H       1  LIG1        0.0660
     12 H           1.5274   -2.1107   -1.5227 H       1  LIG1        0.0660
     13 C          -0.9325    1.6349    0.1978 C.ar    1  LIG1        0.0336
     14 C           0.2735    2.2784    0.2151 C.ar    1  LIG1       -0.0039
     15 C           0.1229    3.7025    0.1844 C.ar    1  LIG1        0.1359
     16 C          -1.1840    4.1193    0.1479 C.ar    1  LIG1        0.0682
     17 S          -2.2511    2.7524    0.1402 S.2     1  LIG1       -0.0833
     18 H           1.2094    1.7455    0.2490 H       1  LIG1        0.0666
     19 O           1.1423    4.5980    0.1923 O.3     1  LIG1       -0.4939
     20 C           2.4566    4.0674    0.2151 C.3     1  LIG1        0.0788
     21 H           3.1261    4.9230    0.2077 H       1  LIG1        0.0660
     22 H           2.6162    3.4808    1.1225 H       1  LIG1        0.0660
     23 H           2.6344    3.4497   -0.6677 H       1  LIG1        0.0660
     24 C          -1.6720    5.4923    0.1060 C.ar    1  LIG1        0.0336
     25 C          -0.9287    6.6401    0.1391 C.ar    1  LIG1       -0.0039
     26 C          -1.7476    7.8136    0.0759 C.ar    1  LIG1        0.1359
     27 C          -3.0903    7.5486   -0.0035 C.ar    1  LIG1        0.0682
     28 S          -3.3659    5.8372   -0.0042 S.2     1  LIG1       -0.0833
     29 H           0.1461    6.6270    0.2048 H       1  LIG1        0.0666
     30 O          -1.2882    9.0907    0.0876 O.3     1  LIG1       -0.4939
     31 C           0.1094    9.2676    0.2440 C.3     1  LIG1        0.0788
     32 H           0.2725   10.3417    0.2699 H       1  LIG1        0.0660
     33 H           0.4499    8.8184    1.1794 H       1  LIG1        0.0660
     34 H           0.6488    8.8313   -0.5996 H       1  LIG1        0.0660
     35 C          -4.1807    8.5163   -0.0808 C.ar    1  LIG1        0.0330
     36 C          -4.0789    9.8774   -0.1786 C.ar    1  LIG1       -0.0045
     37 C          -5.3685   10.5108   -0.2353 C.ar    1  LIG1        0.1277
     38 C          -6.4026    9.6288   -0.1802 C.ar    1  LIG1        0.0180
     39 S          -5.8362    8.0083   -0.0528 S.2     1  LIG1       -0.0923
     40 H          -7.4533    9.8598   -0.2075 H       1  LIG1        0.0730
     41 H          -3.1276   10.3821   -0.2096 H       1  LIG1        0.0666
     42 O          -5.5903   11.8487   -0.3319 O.3     1  LIG1       -0.4946
     43 C          -4.4455   12.6729   -0.4368 C.3     1  LIG1        0.0788
     44 H          -4.8159   13.6910   -0.5279 H       1  LIG1        0.0660
     45 H          -3.8228   12.5857    0.4570 H       1  LIG1        0.0660
     46 H          -3.8607   12.4130   -1.3226 H       1  LIG1        0.0660
@<TRIPOS>BOND
     1    12     9    1
     2    46    43    1
     3    10     9    1
     4    23    20    1
     5     9     8    1
     6     9    11    1
     7    34    31    1
     8    44    43    1
     9    43    42    1
    10    43    45    1
    11     8     3    1
    12    42    37    1
    13    37    38   ar
    14    37    36   ar
    15    41    36    1
    16    40    38    1
    17    38    39   ar
    18    36    35   ar
    19     7     2    1
    20    35    39   ar
    21    35    27    1
    22     3     2   ar
    23     3     4   ar
    24    28    27   ar
    25    28    24   ar
    26    27    26   ar
    27     2     1   ar
    28    26    30    1
    29    26    25   ar
    30    30    31    1
    31    24    25   ar
    32    24    16    1
    33    25    29    1
    34    17    16   ar
    35    17    13   ar
    36    16    15   ar
    37    15    19    1
    38    15    14   ar
    39    19    20    1
    40    13    14   ar
    41    13     4    1
    42    21    20    1
    43    14    18    1
    44    20    22    1
    45     4     5   ar
    46    31    32    1
    47    31    33    1
    48     1     6    1
    49     1     5   ar
