@<TRIPOS>MOLECULE
mol_data/opt/m06hf/geoms/mol2/5al5al-5al-.out
 35 37 0 0 0
SMALL
GASTEIGER

@<TRIPOS>ATOM
      1 C          -2.1743   -2.0088   -0.1852 C.ar    1  LIG1       -0.0202
      2 C          -0.8319   -2.0311    0.0285 C.ar    1  LIG1       -0.0123
      3 C          -0.2740   -0.7069    0.0437 C.ar    1  LIG1        0.1353
      4 C          -1.2090    0.2762   -0.1569 C.ar    1  LIG1        0.0676
      5 S          -2.7785   -0.4162   -0.3849 S.2     1  LIG1       -0.0924
      6 H          -2.8433   -2.8516   -0.2457 H       1  LIG1        0.0695
      7 H          -0.2653   -2.9382    0.1705 H       1  LIG1        0.0660
      8 O           1.0351   -0.4001    0.2273 O.3     1  LIG1       -0.4939
      9 C           1.8710   -1.4352    0.7181 C.3     1  LIG1        0.0788
     10 H           2.8331   -0.9729    0.9211 H       1  LIG1        0.0660
     11 H           1.4590   -1.8546    1.6383 H       1  LIG1        0.0660
     12 H           1.9919   -2.2205   -0.0318 H       1  LIG1        0.0660
     13 C          -0.9767    1.7172   -0.1772 C.ar    1  LIG1        0.0336
     14 C           0.2135    2.3615   -0.3635 C.ar    1  LIG1       -0.0039
     15 C           0.0657    3.7869   -0.3215 C.ar    1  LIG1        0.1359
     16 C          -1.2238    4.2004   -0.1126 C.ar    1  LIG1        0.0682
     17 S          -2.2753    2.8353    0.0734 S.2     1  LIG1       -0.0833
     18 H           1.1371    1.8297   -0.5264 H       1  LIG1        0.0666
     19 O           1.0694    4.6881   -0.4713 O.3     1  LIG1       -0.4939
     20 C           2.3404    4.1740   -0.8298 C.3     1  LIG1        0.0788
     21 H           2.9873    5.0376   -0.9576 H       1  LIG1        0.0660
     22 H           2.7329    3.5323   -0.0376 H       1  LIG1        0.0660
     23 H           2.2775    3.6160   -1.7666 H       1  LIG1        0.0660
     24 C          -1.7107    5.5747   -0.0398 C.ar    1  LIG1        0.0330
     25 C          -0.9720    6.7064    0.1719 C.ar    1  LIG1       -0.0045
     26 C          -1.7924    7.8871    0.1840 C.ar    1  LIG1        0.1277
     27 C          -3.1129    7.6234   -0.0126 C.ar    1  LIG1        0.0180
     28 S          -3.3907    5.9410   -0.2340 S.2     1  LIG1       -0.0923
     29 H          -3.9160    8.3392   -0.0412 H       1  LIG1        0.0730
     30 H           0.0963    6.6754    0.3147 H       1  LIG1        0.0666
     31 O          -1.3541    9.1590    0.3747 O.3     1  LIG1       -0.4946
     32 C           0.0407    9.3319    0.5357 C.3     1  LIG1        0.0788
     33 H           0.1977   10.4004    0.6591 H       1  LIG1        0.0660
     34 H           0.3977    8.8035    1.4231 H       1  LIG1        0.0660
     35 H           0.5789    8.9790   -0.3475 H       1  LIG1        0.0660
@<TRIPOS>BOND
     1    23    20    1
     2    21    20    1
     3    20    19    1
     4    20    22    1
     5    18    14    1
     6    19    15    1
     7     5     1   ar
     8     5     4   ar
     9    14    15   ar
    10    14    13   ar
    11    35    32    1
    12    15    16   ar
    13     6     1    1
    14    28    24   ar
    15    28    27   ar
    16     1     2   ar
    17    13     4    1
    18    13    17   ar
    19     4     3   ar
    20    16    24    1
    21    16    17   ar
    22    29    27    1
    23    24    25   ar
    24    12     9    1
    25    27    26   ar
    26     2     3   ar
    27     2     7    1
    28     3     8    1
    29    25    26   ar
    30    25    30    1
    31    26    31    1
    32     8     9    1
    33    31    32    1
    34    32    33    1
    35    32    34    1
    36     9    10    1
    37     9    11    1
