@<TRIPOS>MOLECULE
mol_data/opt/m06hf/geoms/mol2/5al5al5al-5al.out
 46 49 0 0 0
SMALL
GASTEIGER

@<TRIPOS>ATOM
      1 C          -2.0905   -2.0448    0.7479 C.ar    1  LIG1       -0.0202
      2 C          -0.8008   -2.0973    0.3221 C.ar    1  LIG1       -0.0123
      3 C          -0.2500   -0.7832    0.1336 C.ar    1  LIG1        0.1353
      4 C          -1.1394    0.2208    0.4195 C.ar    1  LIG1        0.0676
      5 S          -2.6524   -0.4360    0.9435 S.2     1  LIG1       -0.0924
      6 H          -2.7432   -2.8733    0.9682 H       1  LIG1        0.0695
      7 H          -0.2671   -3.0187    0.1481 H       1  LIG1        0.0660
      8 O           1.0116   -0.5015   -0.2782 O.3     1  LIG1       -0.4939
      9 C           1.7826   -1.5868   -0.7661 C.3     1  LIG1        0.0788
     10 H           2.7047   -1.1531   -1.1429 H       1  LIG1        0.0660
     11 H           2.0093   -2.2904    0.0384 H       1  LIG1        0.0660
     12 H           1.2557   -2.0974   -1.5749 H       1  LIG1        0.0660
     13 C          -0.9013    1.6570    0.3140 C.ar    1  LIG1        0.0336
     14 C           0.3066    2.2957    0.2881 C.ar    1  LIG1       -0.0039
     15 C           0.1601    3.7168    0.1808 C.ar    1  LIG1        0.1359
     16 C          -1.1461    4.1346    0.1305 C.ar    1  LIG1        0.0682
     17 S          -2.2170    2.7729    0.1985 S.2     1  LIG1       -0.0833
     18 H           1.2408    1.7614    0.3487 H       1  LIG1        0.0666
     19 O           1.1814    4.6089    0.1357 O.3     1  LIG1       -0.4939
     20 C           2.4946    4.0772    0.1860 C.3     1  LIG1        0.0788
     21 H           3.1662    4.9287    0.1216 H       1  LIG1        0.0660
     22 H           2.6568    3.5482    1.1276 H       1  LIG1        0.0660
     23 H           2.6668    3.4047   -0.6571 H       1  LIG1        0.0660
     24 C          -1.6325    5.5048    0.0200 C.ar    1  LIG1        0.0336
     25 C          -0.8898    6.6537    0.0109 C.ar    1  LIG1       -0.0039
     26 C          -1.7091    7.8229   -0.1107 C.ar    1  LIG1        0.1359
     27 C          -3.0492    7.5506   -0.1937 C.ar    1  LIG1        0.0682
     28 S          -3.3273    5.8435   -0.1006 S.2     1  LIG1       -0.0833
     29 H           0.1845    6.6449    0.0870 H       1  LIG1        0.0666
     30 O          -1.2555    9.1018   -0.1444 O.3     1  LIG1       -0.4939
     31 C           0.1449    9.2793   -0.2742 C.3     1  LIG1        0.0788
     32 H           0.3006   10.3490   -0.3858 H       1  LIG1        0.0660
     33 H           0.6630    8.9223    0.6188 H       1  LIG1        0.0660
     34 H           0.5167    8.7552   -1.1573 H       1  LIG1        0.0660
     35 C          -4.1360    8.5123   -0.3500 C.ar    1  LIG1        0.0330
     36 C          -4.1059    9.8476   -0.0575 C.ar    1  LIG1       -0.0045
     37 C          -5.3611   10.4882   -0.3437 C.ar    1  LIG1        0.1277
     38 C          -6.2978    9.6334   -0.8368 C.ar    1  LIG1        0.0180
     39 S          -5.6758    8.0354   -0.9827 S.2     1  LIG1       -0.0923
     40 H          -7.3080    9.8758   -1.1182 H       1  LIG1        0.0730
     41 H          -3.2281   10.3277    0.3439 H       1  LIG1        0.0666
     42 O          -5.6430   11.8041   -0.1542 O.3     1  LIG1       -0.4946
     43 C          -4.5996   12.6056    0.3651 C.3     1  LIG1        0.0788
     44 H          -5.0049   13.6112    0.4438 H       1  LIG1        0.0660
     45 H          -4.2948   12.2537    1.3536 H       1  LIG1        0.0660
     46 H          -3.7395   12.6055   -0.3092 H       1  LIG1        0.0660
@<TRIPOS>BOND
     1    12     9    1
     2    34    31    1
     3    10     9    1
     4    40    38    1
     5    39    38   ar
     6    39    35   ar
     7    38    37   ar
     8     9     8    1
     9     9    11    1
    10    23    20    1
    11    32    31    1
    12    35    27    1
    13    35    36   ar
    14    37    42    1
    15    37    36   ar
    16    46    43    1
    17     8     3    1
    18    31    30    1
    19    31    33    1
    20    27    26   ar
    21    27    28   ar
    22    42    43    1
    23    30    26    1
    24    26    25   ar
    25    28    24   ar
    26    36    41    1
    27    25    24   ar
    28    25    29    1
    29    24    16    1
    30    21    20    1
    31    16    15   ar
    32    16    17   ar
    33     3     2   ar
    34     3     4   ar
    35    19    15    1
    36    19    20    1
    37     7     2    1
    38    15    14   ar
    39    20    22    1
    40    17    13   ar
    41    14    13   ar
    42    14    18    1
    43    13     4    1
    44     2     1   ar
    45    43    44    1
    46    43    45    1
    47     4     5   ar
    48     1     5   ar
    49     1     6    1
