@<TRIPOS>MOLECULE
mol_data/opt/m06hf/geoms/mol2/5al5al5al5al.out
 46 49 0 0 0
SMALL
GASTEIGER

@<TRIPOS>ATOM
      1 C          -2.1707   -2.0846   -0.0311 C.ar    1  LIG1       -0.0202
      2 C          -0.8118   -2.1226   -0.0078 C.ar    1  LIG1       -0.0123
      3 C          -0.2446   -0.8027    0.0054 C.ar    1  LIG1        0.1353
      4 C          -1.1885    0.1937   -0.0088 C.ar    1  LIG1        0.0676
      5 S          -2.7813   -0.4826   -0.0375 S.2     1  LIG1       -0.0924
      6 H          -2.8509   -2.9199   -0.0451 H       1  LIG1        0.0695
      7 H          -0.2412   -3.0382   -0.0004 H       1  LIG1        0.0660
      8 O           1.0794   -0.5099    0.0294 O.3     1  LIG1       -0.4939
      9 C           1.9816   -1.6037    0.0442 C.3     1  LIG1        0.0788
     10 H           2.9773   -1.1690    0.0650 H       1  LIG1        0.0660
     11 H           1.8270   -2.2154    0.9356 H       1  LIG1        0.0660
     12 H           1.8620   -2.2108   -0.8557 H       1  LIG1        0.0660
     13 C          -0.9476    1.6338   -0.0025 C.ar    1  LIG1        0.0336
     14 C           0.2600    2.2761    0.0203 C.ar    1  LIG1       -0.0039
     15 C           0.1112    3.7005    0.0180 C.ar    1  LIG1        0.1359
     16 C          -1.1946    4.1208   -0.0062 C.ar    1  LIG1        0.0682
     17 S          -2.2638    2.7558   -0.0267 S.2     1  LIG1       -0.0833
     18 H           1.1955    1.7424    0.0373 H       1  LIG1        0.0666
     19 O           1.1326    4.5938    0.0367 O.3     1  LIG1       -0.4939
     20 C           2.4457    4.0607    0.0678 C.3     1  LIG1        0.0788
     21 H           3.1164    4.9152    0.0841 H       1  LIG1        0.0660
     22 H           2.5920    3.4580    0.9668 H       1  LIG1        0.0660
     23 H           2.6347    3.4583   -0.8232 H       1  LIG1        0.0660
     24 C          -1.6802    5.4948   -0.0169 C.ar    1  LIG1        0.0336
     25 C          -0.9331    6.6403   -0.0322 C.ar    1  LIG1       -0.0039
     26 C          -1.7504    7.8166   -0.0422 C.ar    1  LIG1        0.1359
     27 C          -3.0964    7.5562   -0.0336 C.ar    1  LIG1        0.0682
     28 S          -3.3773    5.8458   -0.0106 S.2     1  LIG1       -0.0833
     29 H           0.1436    6.6239   -0.0361 H       1  LIG1        0.0666
     30 O          -1.2863    9.0920   -0.0574 O.3     1  LIG1       -0.4939
     31 C           0.1173    9.2624   -0.1563 C.3     1  LIG1        0.0788
     32 H           0.2844   10.3352   -0.2015 H       1  LIG1        0.0660
     33 H           0.6178    8.8467    0.7208 H       1  LIG1        0.0660
     34 H           0.4972    8.7891   -1.0644 H       1  LIG1        0.0660
     35 C          -4.1867    8.5274   -0.0486 C.ar    1  LIG1        0.0330
     36 C          -4.0861    9.8921   -0.0214 C.ar    1  LIG1       -0.0045
     37 C          -5.3754   10.5275   -0.0516 C.ar    1  LIG1        0.1277
     38 C          -6.4084    9.6436   -0.0988 C.ar    1  LIG1        0.0180
     39 S          -5.8415    8.0190   -0.1101 S.2     1  LIG1       -0.0923
     40 H          -7.4588    9.8759   -0.1271 H       1  LIG1        0.0730
     41 H          -3.1362   10.3986    0.0193 H       1  LIG1        0.0666
     42 O          -5.5980   11.8686   -0.0376 O.3     1  LIG1       -0.4946
     43 C          -4.4555   12.6979    0.0494 C.3     1  LIG1        0.0788
     44 H          -4.8269   13.7196    0.0656 H       1  LIG1        0.0660
     45 H          -3.8973   12.4941    0.9664 H       1  LIG1        0.0660
     46 H          -3.8069   12.5554   -0.8186 H       1  LIG1        0.0660
@<TRIPOS>BOND
     1    34    31    1
     2    12     9    1
     3    23    20    1
     4    46    43    1
     5    32    31    1
     6    31    30    1
     7    31    33    1
     8    40    38    1
     9    39    38   ar
    10    39    35   ar
    11    38    37   ar
    12    30    26    1
    13    37    42    1
    14    37    36   ar
    15    35    27    1
    16    35    36   ar
    17     6     1    1
    18    26    27   ar
    19    26    25   ar
    20    42    43    1
    21     5     1   ar
    22     5     4   ar
    23    29    25    1
    24    27    28   ar
    25    25    24   ar
    26     1     2   ar
    27    17    16   ar
    28    17    13   ar
    29    36    41    1
    30    24    28   ar
    31    24    16    1
    32     4    13    1
    33     4     3   ar
    34     2     7    1
    35     2     3   ar
    36    16    15   ar
    37    13    14   ar
    38     3     8    1
    39    15    14   ar
    40    15    19    1
    41    14    18    1
    42     8     9    1
    43    19    20    1
    44     9    10    1
    45     9    11    1
    46    43    44    1
    47    43    45    1
    48    20    21    1
    49    20    22    1
