@<TRIPOS>MOLECULE
mol_data/opt/m06hf/geoms/mol2/5al5al-5al5al.out
 46 49 0 0 0
SMALL
GASTEIGER

@<TRIPOS>ATOM
      1 C          -2.1709   -2.0844   -0.0338 C.ar    1  LIG1       -0.0202
      2 C          -0.8120   -2.1226   -0.0179 C.ar    1  LIG1       -0.0123
      3 C          -0.2446   -0.8027   -0.0027 C.ar    1  LIG1        0.1353
      4 C          -1.1886    0.1937   -0.0080 C.ar    1  LIG1        0.0676
      5 S          -2.7815   -0.4824   -0.0308 S.2     1  LIG1       -0.0924
      6 H          -2.8513   -2.9197   -0.0475 H       1  LIG1        0.0695
      7 H          -0.2414   -3.0382   -0.0171 H       1  LIG1        0.0660
      8 O           1.0795   -0.5100    0.0154 O.3     1  LIG1       -0.4939
      9 C           1.9817   -1.6039    0.0209 C.3     1  LIG1        0.0788
     10 H           2.9775   -1.1693    0.0382 H       1  LIG1        0.0660
     11 H           1.8318   -2.2192    0.9107 H       1  LIG1        0.0660
     12 H           1.8572   -2.2073   -0.8808 H       1  LIG1        0.0660
     13 C          -0.9476    1.6338    0.0025 C.ar    1  LIG1        0.0336
     14 C           0.2601    2.2760    0.0198 C.ar    1  LIG1       -0.0039
     15 C           0.1113    3.7005    0.0242 C.ar    1  LIG1        0.1359
     16 C          -1.1947    4.1208    0.0103 C.ar    1  LIG1        0.0682
     17 S          -2.2640    2.7559   -0.0084 S.2     1  LIG1       -0.0833
     18 H           1.1957    1.7422    0.0285 H       1  LIG1        0.0666
     19 O           1.1327    4.5937    0.0397 O.3     1  LIG1       -0.4939
     20 C           2.4460    4.0605    0.0600 C.3     1  LIG1        0.0788
     21 H           3.1168    4.9150    0.0751 H       1  LIG1        0.0660
     22 H           2.5984    3.4544    0.9557 H       1  LIG1        0.0660
     23 H           2.6291    3.4615   -0.8346 H       1  LIG1        0.0660
     24 C          -1.6804    5.4948    0.0081 C.ar    1  LIG1        0.0336
     25 C          -0.9333    6.6404   -0.0076 C.ar    1  LIG1       -0.0039
     26 C          -1.7507    7.8166   -0.0077 C.ar    1  LIG1        0.1359
     27 C          -3.0967    7.5562    0.0086 C.ar    1  LIG1        0.0682
     28 S          -3.3774    5.8458    0.0267 S.2     1  LIG1       -0.0833
     29 H           0.1433    6.6241   -0.0184 H       1  LIG1        0.0666
     30 O          -1.2868    9.0922   -0.0210 O.3     1  LIG1       -0.4939
     31 C           0.1162    9.2630   -0.1276 C.3     1  LIG1        0.0788
     32 H           0.2831   10.3359   -0.1694 H       1  LIG1        0.0660
     33 H           0.6219    8.8438    0.7448 H       1  LIG1        0.0660
     34 H           0.4907    8.7934   -1.0398 H       1  LIG1        0.0660
     35 C          -4.1870    8.5274    0.0043 C.ar    1  LIG1        0.0330
     36 C          -4.0863    9.8920    0.0370 C.ar    1  LIG1       -0.0045
     37 C          -5.3758   10.5275    0.0171 C.ar    1  LIG1        0.1277
     38 C          -6.4090    9.6438   -0.0279 C.ar    1  LIG1        0.0180
     39 S          -5.8422    8.0192   -0.0498 S.2     1  LIG1       -0.0923
     40 H          -7.4596    9.8761   -0.0489 H       1  LIG1        0.0730
     41 H          -3.1362   10.3983    0.0744 H       1  LIG1        0.0666
     42 O          -5.5983   11.8685    0.0383 O.3     1  LIG1       -0.4946
     43 C          -4.4553   12.6974    0.1232 C.3     1  LIG1        0.0788
     44 H          -4.8266   13.7190    0.1465 H       1  LIG1        0.0660
     45 H          -3.8921   12.4890    1.0361 H       1  LIG1        0.0660
     46 H          -3.8114   12.5592   -0.7490 H       1  LIG1        0.0660
@<TRIPOS>BOND
     1    34    31    1
     2    12     9    1
     3    23    20    1
     4    46    43    1
     5    32    31    1
     6    31    30    1
     7    31    33    1
     8    39    38   ar
     9    39    35   ar
    10    40    38    1
    11     6     1    1
    12     1     5   ar
    13     1     2   ar
    14     5     4   ar
    15    38    37   ar
    16    30    26    1
    17    29    25    1
    18     2     7    1
    19     2     3   ar
    20    17    13   ar
    21    17    16   ar
    22     4     3   ar
    23     4    13    1
    24    26    25   ar
    25    26    27   ar
    26    25    24   ar
    27     3     8    1
    28    13    14   ar
    29    35    27    1
    30    35    36   ar
    31    24    16    1
    32    24    28   ar
    33    27    28   ar
    34    16    15   ar
    35     8     9    1
    36    37    36   ar
    37    37    42    1
    38    14    15   ar
    39    14    18    1
    40     9    10    1
    41     9    11    1
    42    15    19    1
    43    36    41    1
    44    42    43    1
    45    19    20    1
    46    20    21    1
    47    20    22    1
    48    43    44    1
    49    43    45    1
